
*** ChampSim Multicore Out-of-Order Simulator ***

Warmup Instructions: 100000000
Simulation Instructions: 500000000
Number of CPUs: 1
LLC sets: 2048
LLC ways: 16
Clean RRIP Policies: 2213230222132302 Dirty RRIP Policies: 1213130212131302 PSEL Width: 10 Track Set: 4294967295 PSEL Mask: 1 Demote Mask: 1040100010401000DS Algo: 0Window size: 0
Off-chip DRAM Size: 4096 MB Channels: 1 Width: 64-bit Data Rate: 1600 MT/s

CPU 0 runs /mnt/beegfs/iconst01/spec2017/Gcc.trace.gz
NOT SORTED
TRACE STRING: /mnt/beegfs/iconst01/spec2017/Gcc.trace.gz
SORTED
TRACE STRING: /mnt/beegfs/iconst01/spec2017/Gcc.trace.gz
INITIAL
TRACE STRING: /mnt/beegfs/iconst01/spec2017/Gcc.trace.gz

champsim_seed used: 269

CPU 0 L1D next line prefetcher
CPU 0 L2C IP-based stride prefetcher
Initialize DRRIP state
Assign rand_sets[0]: 454  LLC: 2048
rand_sets[0]: 454
Assign rand_sets[1]: 1662  LLC: 2048
rand_sets[1]: 1662
Assign rand_sets[2]: 1921  LLC: 2048
rand_sets[2]: 1921
Assign rand_sets[3]: 1131  LLC: 2048
rand_sets[3]: 1131
Assign rand_sets[4]: 331  LLC: 2048
rand_sets[4]: 331
Assign rand_sets[5]: 1531  LLC: 2048
rand_sets[5]: 1531
Assign rand_sets[6]: 482  LLC: 2048
rand_sets[6]: 482
Assign rand_sets[7]: 1275  LLC: 2048
rand_sets[7]: 1275
Assign rand_sets[8]: 1876  LLC: 2048
rand_sets[8]: 1876
Assign rand_sets[9]: 2038  LLC: 2048
rand_sets[9]: 2038
Assign rand_sets[10]: 701  LLC: 2048
rand_sets[10]: 701
Assign rand_sets[11]: 479  LLC: 2048
rand_sets[11]: 479
Assign rand_sets[12]: 892  LLC: 2048
rand_sets[12]: 892
Assign rand_sets[13]: 1820  LLC: 2048
rand_sets[13]: 1820
Assign rand_sets[14]: 1505  LLC: 2048
rand_sets[14]: 1505
Assign rand_sets[15]: 1159  LLC: 2048
rand_sets[15]: 1159
Assign rand_sets[16]: 513  LLC: 2048
rand_sets[16]: 513
Assign rand_sets[17]: 703  LLC: 2048
rand_sets[17]: 703
Assign rand_sets[18]: 561  LLC: 2048
rand_sets[18]: 561
Assign rand_sets[19]: 990  LLC: 2048
rand_sets[19]: 990
Assign rand_sets[20]: 342  LLC: 2048
rand_sets[20]: 342
Assign rand_sets[21]: 882  LLC: 2048
rand_sets[21]: 882
Assign rand_sets[22]: 15  LLC: 2048
rand_sets[22]: 15
Assign rand_sets[23]: 71  LLC: 2048
rand_sets[23]: 71
Assign rand_sets[24]: 1127  LLC: 2048
rand_sets[24]: 1127
Assign rand_sets[25]: 1382  LLC: 2048
rand_sets[25]: 1382
Assign rand_sets[26]: 647  LLC: 2048
rand_sets[26]: 647
Assign rand_sets[27]: 857  LLC: 2048
rand_sets[27]: 857
Assign rand_sets[28]: 1450  LLC: 2048
rand_sets[28]: 1450
Assign rand_sets[29]: 1160  LLC: 2048
rand_sets[29]: 1160
Assign rand_sets[30]: 1852  LLC: 2048
rand_sets[30]: 1852
Assign rand_sets[31]: 1881  LLC: 2048
rand_sets[31]: 1881
Assign rand_sets[32]: 1770  LLC: 2048
rand_sets[32]: 1770
Assign rand_sets[33]: 1622  LLC: 2048
rand_sets[33]: 1622
Assign rand_sets[34]: 275  LLC: 2048
rand_sets[34]: 275
Assign rand_sets[35]: 635  LLC: 2048
rand_sets[35]: 635
Assign rand_sets[36]: 466  LLC: 2048
rand_sets[36]: 466
Assign rand_sets[37]: 1413  LLC: 2048
rand_sets[37]: 1413
Assign rand_sets[38]: 417  LLC: 2048
rand_sets[38]: 417
Assign rand_sets[39]: 472  LLC: 2048
rand_sets[39]: 472
Assign rand_sets[40]: 1340  LLC: 2048
rand_sets[40]: 1340
Assign rand_sets[41]: 852  LLC: 2048
rand_sets[41]: 852
Assign rand_sets[42]: 1365  LLC: 2048
rand_sets[42]: 1365
Assign rand_sets[43]: 47  LLC: 2048
rand_sets[43]: 47
Assign rand_sets[44]: 823  LLC: 2048
rand_sets[44]: 823
Assign rand_sets[45]: 686  LLC: 2048
rand_sets[45]: 686
Assign rand_sets[46]: 1637  LLC: 2048
rand_sets[46]: 1637
Assign rand_sets[47]: 1115  LLC: 2048
rand_sets[47]: 1115
Assign rand_sets[48]: 986  LLC: 2048
rand_sets[48]: 986
Assign rand_sets[49]: 258  LLC: 2048
rand_sets[49]: 258
Assign rand_sets[50]: 633  LLC: 2048
rand_sets[50]: 633
Assign rand_sets[51]: 920  LLC: 2048
rand_sets[51]: 920
Assign rand_sets[52]: 204  LLC: 2048
rand_sets[52]: 204
Assign rand_sets[53]: 227  LLC: 2048
rand_sets[53]: 227
Assign rand_sets[54]: 1818  LLC: 2048
rand_sets[54]: 1818
Assign rand_sets[55]: 886  LLC: 2048
rand_sets[55]: 886
Assign rand_sets[56]: 1422  LLC: 2048
rand_sets[56]: 1422
Assign rand_sets[57]: 607  LLC: 2048
rand_sets[57]: 607
Assign rand_sets[58]: 217  LLC: 2048
rand_sets[58]: 217
Assign rand_sets[59]: 1945  LLC: 2048
rand_sets[59]: 1945
Assign rand_sets[60]: 143  LLC: 2048
rand_sets[60]: 143
Assign rand_sets[61]: 1311  LLC: 2048
rand_sets[61]: 1311
Assign rand_sets[62]: 319  LLC: 2048
rand_sets[62]: 319
Assign rand_sets[63]: 1846  LLC: 2048
rand_sets[63]: 1846
 CLEAN-RRIP-POLICY-1: 2-2-1-3-2-3-0-2- CLEAN-RRIP-POLICY-2: 2-2-1-3-2-3-0-2-
 DIRTY-RRIP-POLICY-1: 1-2-1-3-1-3-0-2- DIRTY-RRIP-POLICY-2: 1-2-1-3-1-3-0-2-
 PSEL width: 10
Heartbeat CPU 0 instructions: 10000001 cycles: 7315979 heartbeat IPC: 1.36687 cumulative IPC: 1.36687 (Simulation time: 0 hr 0 min 14 sec) 
Heartbeat CPU 0 instructions: 20000000 cycles: 14307713 heartbeat IPC: 1.43026 cumulative IPC: 1.39785 (Simulation time: 0 hr 0 min 28 sec) 
Heartbeat CPU 0 instructions: 30000001 cycles: 21020617 heartbeat IPC: 1.48967 cumulative IPC: 1.42717 (Simulation time: 0 hr 0 min 44 sec) 
Heartbeat CPU 0 instructions: 40000000 cycles: 27481388 heartbeat IPC: 1.5478 cumulative IPC: 1.45553 (Simulation time: 0 hr 0 min 59 sec) 
Heartbeat CPU 0 instructions: 50000001 cycles: 33583153 heartbeat IPC: 1.63887 cumulative IPC: 1.48884 (Simulation time: 0 hr 1 min 14 sec) 
Heartbeat CPU 0 instructions: 60000000 cycles: 40064385 heartbeat IPC: 1.54292 cumulative IPC: 1.49759 (Simulation time: 0 hr 1 min 29 sec) 
Heartbeat CPU 0 instructions: 70000000 cycles: 47103372 heartbeat IPC: 1.42066 cumulative IPC: 1.48609 (Simulation time: 0 hr 1 min 44 sec) 
Heartbeat CPU 0 instructions: 80000000 cycles: 54193585 heartbeat IPC: 1.41039 cumulative IPC: 1.47619 (Simulation time: 0 hr 1 min 58 sec) 
Heartbeat CPU 0 instructions: 90000003 cycles: 61198280 heartbeat IPC: 1.42761 cumulative IPC: 1.47063 (Simulation time: 0 hr 2 min 12 sec) 
Heartbeat CPU 0 instructions: 100000000 cycles: 68365765 heartbeat IPC: 1.39519 cumulative IPC: 1.46272 (Simulation time: 0 hr 2 min 26 sec) 

Warmup complete CPU 0 instructions: 100000004 cycles: 68365766 (Simulation time: 0 hr 2 min 26 sec) 

Heartbeat CPU 0 instructions: 110000003 cycles: 95982308 heartbeat IPC: 0.362102 cumulative IPC: 0.362102 (Simulation time: 0 hr 2 min 53 sec) 
Heartbeat CPU 0 instructions: 120000000 cycles: 123423137 heartbeat IPC: 0.36442 cumulative IPC: 0.363257 (Simulation time: 0 hr 3 min 20 sec) 
Heartbeat CPU 0 instructions: 130000000 cycles: 148392365 heartbeat IPC: 0.400493 cumulative IPC: 0.374875 (Simulation time: 0 hr 3 min 47 sec) 
Heartbeat CPU 0 instructions: 140000000 cycles: 177947035 heartbeat IPC: 0.338356 cumulative IPC: 0.365026 (Simulation time: 0 hr 4 min 14 sec) 
Heartbeat CPU 0 instructions: 150000000 cycles: 207808465 heartbeat IPC: 0.33488 cumulative IPC: 0.35857 (Simulation time: 0 hr 4 min 41 sec) 
Heartbeat CPU 0 instructions: 160000000 cycles: 235220044 heartbeat IPC: 0.364809 cumulative IPC: 0.359595 (Simulation time: 0 hr 5 min 7 sec) 
Heartbeat CPU 0 instructions: 170000001 cycles: 263188175 heartbeat IPC: 0.35755 cumulative IPC: 0.359302 (Simulation time: 0 hr 5 min 35 sec) 
Heartbeat CPU 0 instructions: 180000000 cycles: 291619031 heartbeat IPC: 0.35173 cumulative IPC: 0.358337 (Simulation time: 0 hr 6 min 3 sec) 
Heartbeat CPU 0 instructions: 190000002 cycles: 319618297 heartbeat IPC: 0.357152 cumulative IPC: 0.358205 (Simulation time: 0 hr 6 min 30 sec) 
Heartbeat CPU 0 instructions: 200000000 cycles: 347965819 heartbeat IPC: 0.352764 cumulative IPC: 0.357654 (Simulation time: 0 hr 6 min 57 sec) 
Heartbeat CPU 0 instructions: 210000002 cycles: 375817298 heartbeat IPC: 0.359047 cumulative IPC: 0.35778 (Simulation time: 0 hr 7 min 25 sec) 
Heartbeat CPU 0 instructions: 220000000 cycles: 405002933 heartbeat IPC: 0.342634 cumulative IPC: 0.356467 (Simulation time: 0 hr 7 min 51 sec) 
Heartbeat CPU 0 instructions: 230000000 cycles: 432513969 heartbeat IPC: 0.36349 cumulative IPC: 0.356997 (Simulation time: 0 hr 8 min 17 sec) 
Heartbeat CPU 0 instructions: 240000000 cycles: 458431561 heartbeat IPC: 0.385838 cumulative IPC: 0.358914 (Simulation time: 0 hr 8 min 43 sec) 
Heartbeat CPU 0 instructions: 250000000 cycles: 488532723 heartbeat IPC: 0.332213 cumulative IPC: 0.357001 (Simulation time: 0 hr 9 min 11 sec) 
Heartbeat CPU 0 instructions: 260000000 cycles: 515613164 heartbeat IPC: 0.36927 cumulative IPC: 0.357744 (Simulation time: 0 hr 9 min 38 sec) 
Heartbeat CPU 0 instructions: 270000003 cycles: 544001083 heartbeat IPC: 0.352263 cumulative IPC: 0.357417 (Simulation time: 0 hr 10 min 6 sec) 
Heartbeat CPU 0 instructions: 280000000 cycles: 572157484 heartbeat IPC: 0.355159 cumulative IPC: 0.357291 (Simulation time: 0 hr 10 min 34 sec) 
Heartbeat CPU 0 instructions: 290000000 cycles: 601077575 heartbeat IPC: 0.34578 cumulative IPC: 0.356666 (Simulation time: 0 hr 11 min 2 sec) 
Heartbeat CPU 0 instructions: 300000000 cycles: 631097744 heartbeat IPC: 0.333109 cumulative IPC: 0.355409 (Simulation time: 0 hr 11 min 29 sec) 
Heartbeat CPU 0 instructions: 310000001 cycles: 660531961 heartbeat IPC: 0.339741 cumulative IPC: 0.35463 (Simulation time: 0 hr 11 min 56 sec) 
Heartbeat CPU 0 instructions: 320000000 cycles: 688759258 heartbeat IPC: 0.354267 cumulative IPC: 0.354614 (Simulation time: 0 hr 12 min 22 sec) 
Heartbeat CPU 0 instructions: 330000000 cycles: 717401667 heartbeat IPC: 0.349133 cumulative IPC: 0.354372 (Simulation time: 0 hr 12 min 49 sec) 
Heartbeat CPU 0 instructions: 340000000 cycles: 746656554 heartbeat IPC: 0.341823 cumulative IPC: 0.353831 (Simulation time: 0 hr 13 min 16 sec) 
Heartbeat CPU 0 instructions: 350000003 cycles: 773703687 heartbeat IPC: 0.369725 cumulative IPC: 0.35444 (Simulation time: 0 hr 13 min 42 sec) 
Heartbeat CPU 0 instructions: 360000000 cycles: 801852724 heartbeat IPC: 0.355252 cumulative IPC: 0.354471 (Simulation time: 0 hr 14 min 7 sec) 
Heartbeat CPU 0 instructions: 370000000 cycles: 830034028 heartbeat IPC: 0.354845 cumulative IPC: 0.354485 (Simulation time: 0 hr 14 min 33 sec) 
Heartbeat CPU 0 instructions: 380000000 cycles: 858526934 heartbeat IPC: 0.350965 cumulative IPC: 0.354358 (Simulation time: 0 hr 14 min 58 sec) 
Heartbeat CPU 0 instructions: 390000001 cycles: 886126862 heartbeat IPC: 0.36232 cumulative IPC: 0.354627 (Simulation time: 0 hr 15 min 24 sec) 
Heartbeat CPU 0 instructions: 400000000 cycles: 914757824 heartbeat IPC: 0.349272 cumulative IPC: 0.354446 (Simulation time: 0 hr 15 min 49 sec) 
Heartbeat CPU 0 instructions: 410000001 cycles: 942058202 heartbeat IPC: 0.366295 cumulative IPC: 0.354816 (Simulation time: 0 hr 16 min 14 sec) 
Heartbeat CPU 0 instructions: 420000000 cycles: 969370702 heartbeat IPC: 0.366133 cumulative IPC: 0.355159 (Simulation time: 0 hr 16 min 40 sec) 
Heartbeat CPU 0 instructions: 430000002 cycles: 997075187 heartbeat IPC: 0.360952 cumulative IPC: 0.355332 (Simulation time: 0 hr 17 min 5 sec) 
Heartbeat CPU 0 instructions: 440000000 cycles: 1026608403 heartbeat IPC: 0.338602 cumulative IPC: 0.354816 (Simulation time: 0 hr 17 min 31 sec) 
Heartbeat CPU 0 instructions: 450000002 cycles: 1055834919 heartbeat IPC: 0.342155 cumulative IPC: 0.354441 (Simulation time: 0 hr 17 min 57 sec) 
Heartbeat CPU 0 instructions: 460000000 cycles: 1083530141 heartbeat IPC: 0.361073 cumulative IPC: 0.354622 (Simulation time: 0 hr 18 min 22 sec) 
Heartbeat CPU 0 instructions: 470000000 cycles: 1111161153 heartbeat IPC: 0.361912 cumulative IPC: 0.354816 (Simulation time: 0 hr 18 min 48 sec) 
Heartbeat CPU 0 instructions: 480000000 cycles: 1139034774 heartbeat IPC: 0.358762 cumulative IPC: 0.354918 (Simulation time: 0 hr 19 min 13 sec) 
Heartbeat CPU 0 instructions: 490000000 cycles: 1166618196 heartbeat IPC: 0.362537 cumulative IPC: 0.35511 (Simulation time: 0 hr 19 min 38 sec) 
Heartbeat CPU 0 instructions: 500000000 cycles: 1194926143 heartbeat IPC: 0.353258 cumulative IPC: 0.355063 (Simulation time: 0 hr 20 min 4 sec) 
Heartbeat CPU 0 instructions: 510000000 cycles: 1229022144 heartbeat IPC: 0.29329 cumulative IPC: 0.353248 (Simulation time: 0 hr 20 min 33 sec) 
Heartbeat CPU 0 instructions: 520000000 cycles: 1257045442 heartbeat IPC: 0.356846 cumulative IPC: 0.353333 (Simulation time: 0 hr 21 min 0 sec) 
Heartbeat CPU 0 instructions: 530000001 cycles: 1286564226 heartbeat IPC: 0.338767 cumulative IPC: 0.35298 (Simulation time: 0 hr 21 min 27 sec) 
Heartbeat CPU 0 instructions: 540000000 cycles: 1314629343 heartbeat IPC: 0.356314 cumulative IPC: 0.353055 (Simulation time: 0 hr 21 min 53 sec) 
Heartbeat CPU 0 instructions: 550000001 cycles: 1343793378 heartbeat IPC: 0.342888 cumulative IPC: 0.352823 (Simulation time: 0 hr 22 min 21 sec) 
Heartbeat CPU 0 instructions: 560000000 cycles: 1369174802 heartbeat IPC: 0.393989 cumulative IPC: 0.353626 (Simulation time: 0 hr 22 min 47 sec) 
Heartbeat CPU 0 instructions: 570000000 cycles: 1398639697 heartbeat IPC: 0.339387 cumulative IPC: 0.353311 (Simulation time: 0 hr 23 min 14 sec) 
Heartbeat CPU 0 instructions: 580000000 cycles: 1426575237 heartbeat IPC: 0.357967 cumulative IPC: 0.353406 (Simulation time: 0 hr 23 min 41 sec) 
Heartbeat CPU 0 instructions: 590000001 cycles: 1451302747 heartbeat IPC: 0.404408 cumulative IPC: 0.354318 (Simulation time: 0 hr 24 min 6 sec) 
Heartbeat CPU 0 instructions: 600000000 cycles: 1477352478 heartbeat IPC: 0.383881 cumulative IPC: 0.354865 (Simulation time: 0 hr 24 min 32 sec) 
Finished CPU 0 instructions: 500000000 cycles: 1408986734 cumulative IPC: 0.354865 (Simulation time: 0 hr 24 min 32 sec) 

CPU 0 Branch Prediction Accuracy: 86.4311% MPKI: 26.2662
Number of Branches: 96788573 Number of Mispredictions: 13133102
Number of LOAD Instructions: 164682285
Number of LOAD Instructions (ROI): 164682285
Number of STORE Instructions: 78194750
Number of STORE Instructions (ROI): 78194750
Total Destination Memory Operands: 83268534
Total Destination Memory Operands (ROI): 83268534
Total Source Memory Operands: 164712438
Total Source Memory Operands (ROI): 164712438
Number of DEPENDED LOADS: 7056806
Number of DEPENDED LOADS (ROI): 7056806
Number of SQ_ADDED: 83268522
Number of SQ_ADDED (ROI): 83268522
Number of LQ_ADDED: 236739236
Number of LQ_ADDED (ROI): 236739236
Number of Instructions read from trace: 600000066

ChampSim completed all CPUs

Region of Interest Statistics

CPU 0 cumulative IPC: 0.354865 instructions: 500000000 cycles: 1408986734
ITLB TOTAL     ACCESS:  100519187  HIT:  100314741  MISS:     204446
ITLB LOAD      ACCESS:  100519187  HIT:  100314741  MISS:     204446
ITLB RFO       ACCESS:          0  HIT:          0  MISS:          0
ITLB PREFETCH  ACCESS:          0  HIT:          0  MISS:          0
ITLB WRITEBACK ACCESS:          0  HIT:          0  MISS:          0
ITLB PREFETCH  REQUESTED:          0  ISSUED:          0  USEFUL:          0  USELESS:          0
ITLB TOTAL MSHR MERGED:     172424
ITLB LOAD MSHR MERGED:     172424
ITLB RFO MSHR MERGED:          0
ITLB PREFETCH MSHR MERGED:          0
ITLB WRITEBACK MSHR MERGED:          0
ITLB TOTAL ACCESSES:  100691611 HITS:  100314741 MISSES:     376870
ITLB LOAD ACCESSES:  100691611 HITS:  100314741 MISSES:     376870
ITLB RFO ACCESSES:          0 HITS:          0 MISSES:          0
ITLB PREFETCH ACCESSES:          0 HITS:          0 MISSES:          0
ITLB WRITEBACK ACCESSES:          0 HITS:          0 MISSES:          0
ITLB RQ ACCESS:  500000057
ITLB RQ TO_CACHE:  100691611
ITLB RQ MERGED:  399308446
ITLB RQ FORWARD:          0
ITLB WQ ACCESS:          0
ITLB WQ TO_CACHE:          0
ITLB WQ MERGED:          0
ITLB WQ FORWARD:          0
DTLB TOTAL     ACCESS:  165339524  HIT:  164705171  MISS:     634353
DTLB LOAD      ACCESS:  106294359  HIT:  105724440  MISS:     569919
DTLB RFO       ACCESS:   59045165  HIT:   58980731  MISS:      64434
DTLB PREFETCH  ACCESS:          0  HIT:          0  MISS:          0
DTLB WRITEBACK ACCESS:          0  HIT:          0  MISS:          0
DTLB PREFETCH  REQUESTED:          0  ISSUED:          0  USEFUL:          0  USELESS:          0
DTLB TOTAL MSHR MERGED:      99952
DTLB LOAD MSHR MERGED:      59435
DTLB RFO MSHR MERGED:      40517
DTLB PREFETCH MSHR MERGED:          0
DTLB WRITEBACK MSHR MERGED:          0
DTLB TOTAL ACCESSES:  165439476 HITS:  164705171 MISSES:     734305
DTLB LOAD ACCESSES:  106353794 HITS:  105724440 MISSES:     629354
DTLB RFO ACCESSES:   59085682 HITS:   58980731 MISSES:     104951
DTLB PREFETCH ACCESSES:          0 HITS:          0 MISSES:          0
DTLB WRITEBACK ACCESSES:          0 HITS:          0 MISSES:          0
DTLB RQ ACCESS:  200314079
DTLB RQ TO_CACHE:  165439476
DTLB RQ MERGED:   34874603
DTLB RQ FORWARD:          0
DTLB WQ ACCESS:          0
DTLB WQ TO_CACHE:          0
DTLB WQ MERGED:          0
DTLB WQ FORWARD:          0
L1D TOTAL     ACCESS:  281856798  HIT:  273947418  MISS:    7909380
L1D LOAD      ACCESS:  110421808  HIT:  107144195  MISS:    3277613
L1D RFO       ACCESS:   67129927  HIT:   66239866  MISS:     890061
L1D PREFETCH  ACCESS:  104305063  HIT:  100563357  MISS:    3741706
L1D WRITEBACK ACCESS:          0  HIT:          0  MISS:          0
L1D PREFETCH  REQUESTED:  110819850  ISSUED:  109120543  USEFUL:    1662326  USELESS:    2079344
L1D TOTAL MSHR MERGED:    2852758
L1D LOAD MSHR MERGED:     495127
L1D RFO MSHR MERGED:    1855521
L1D PREFETCH MSHR MERGED:     502110
L1D WRITEBACK MSHR MERGED:          0
L1D TOTAL ACCESSES:  284736976 HITS:  273974838 MISSES:   10762138
L1D LOAD ACCESSES:  110821262 HITS:  107145607 MISSES:    3675655
L1D RFO ACCESSES:   68974189 HITS:   66239866 MISSES:    2734323
L1D PREFETCH ACCESSES:  104941525 HITS:  100589365 MISSES:    4352160
L1D WRITEBACK ACCESSES:          0 HITS:          0 MISSES:          0
L1D RQ ACCESS:  130761476
L1D RQ TO_CACHE:  110819853
L1D RQ MERGED:   19940211
L1D RQ FORWARD:          0
L1D WQ ACCESS:   69552603
L1D WQ TO_CACHE:   68974190
L1D WQ MERGED:     578413
L1D WQ FORWARD:      27420
L1I TOTAL     ACCESS:  126566501  HIT:  122327947  MISS:    4238554
L1I LOAD      ACCESS:  126566501  HIT:  122327947  MISS:    4238554
L1I RFO       ACCESS:          0  HIT:          0  MISS:          0
L1I PREFETCH  ACCESS:          0  HIT:          0  MISS:          0
L1I WRITEBACK ACCESS:          0  HIT:          0  MISS:          0
L1I PREFETCH  REQUESTED:          0  ISSUED:          0  USEFUL:          0  USELESS:          0
L1I TOTAL MSHR MERGED:    1834603
L1I LOAD MSHR MERGED:    1834603
L1I RFO MSHR MERGED:          0
L1I PREFETCH MSHR MERGED:          0
L1I WRITEBACK MSHR MERGED:          0
L1I TOTAL ACCESSES:  128401107 HITS:  122327947 MISSES:    6073160
L1I LOAD ACCESSES:  128401107 HITS:  122327947 MISSES:    6073160
L1I RFO ACCESSES:          0 HITS:          0 MISSES:          0
L1I PREFETCH ACCESSES:          0 HITS:          0 MISSES:          0
L1I WRITEBACK ACCESSES:          0 HITS:          0 MISSES:          0
L1I RQ ACCESS:  500000057
L1I RQ TO_CACHE:  128401107
L1I RQ MERGED:  371598950
L1I RQ FORWARD:          0
L1I WQ ACCESS:          0
L1I WQ TO_CACHE:          0
L1I WQ MERGED:          0
L1I WQ FORWARD:          0
L2C TOTAL     ACCESS:   14905492  HIT:   11158984  MISS:    3746508
L2C LOAD      ACCESS:    7418874  HIT:    5098928  MISS:    2319946
L2C RFO       ACCESS:     878704  HIT:     409897  MISS:     468807
L2C PREFETCH  ACCESS:    4568666  HIT:    3628165  MISS:     940501
L2C WRITEBACK ACCESS:    2039248  HIT:    2021994  MISS:      17254
L2C PREFETCH  REQUESTED:     842797  ISSUED:     842797  USEFUL:     203409  USELESS:     736798
L2C TOTAL MSHR MERGED:       6868
L2C LOAD MSHR MERGED:        741
L2C RFO MSHR MERGED:          0
L2C PREFETCH MSHR MERGED:       6127
L2C WRITEBACK MSHR MERGED:          0
L2C TOTAL ACCESSES:   14913238 HITS:   11159434 MISSES:    3753804
L2C LOAD ACCESSES:    7419082 HITS:    5099136 MISSES:    2319946
L2C RFO ACCESSES:     878802 HITS:     409995 MISSES:     468807
L2C PREFETCH ACCESSES:    4576106 HITS:    3628309 MISSES:     947797
L2C WRITEBACK ACCESSES:    2039248 HITS:    2021994 MISSES:      17254
L2C RQ ACCESS:    8297887
L2C RQ TO_CACHE:    8297581
L2C RQ MERGED:          0
L2C RQ FORWARD:          0
L2C WQ ACCESS:    2039248
L2C WQ TO_CACHE:    2039248
L2C WQ MERGED:          0
L2C WQ FORWARD:        450
LLC TOTAL     ACCESS:    4609850  HIT:    4006196  MISS:     603654
LLC LOAD      ACCESS:    2319189  HIT:    2071807  MISS:     247382
LLC RFO       ACCESS:     468797  HIT:     422498  MISS:      46299
LLC PREFETCH  ACCESS:     941561  HIT:     673327  MISS:     268234
LLC WRITEBACK ACCESS:     880303  HIT:     838564  MISS:      41739
LLC PREFETCH  REQUESTED:          0  ISSUED:          0  USEFUL:      13764  USELESS:     254939
LLC TOTAL MSHR MERGED:         90
LLC LOAD MSHR MERGED:         27
LLC RFO MSHR MERGED:          0
LLC PREFETCH MSHR MERGED:         63
LLC WRITEBACK MSHR MERGED:          0
LLC TOTAL ACCESSES:    4609976 HITS:    4006232 MISSES:     603744
LLC LOAD ACCESSES:    2319205 HITS:    2071823 MISSES:     247382
LLC RFO ACCESSES:     468807 HITS:     422508 MISSES:      46299
LLC PREFETCH ACCESSES:     941661 HITS:     673337 MISSES:     268324
LLC WRITEBACK ACCESSES:     880303 HITS:     838564 MISSES:      41739
LLC 0 RQ ACCESS:    2788012
LLC 0 RQ TO_CACHE:    2787986
LLC 0 RQ MERGED:          0
LLC 0 RQ FORWARD:          0
LLC WQ ACCESS:     880303
LLC WQ TO_CACHE:     880303
LLC WQ MERGED:          0
LLC WQ FORWARD:         36
Major fault: 0 Minor fault: 12862
CPU 0 L1D next line prefetcher final stats
CPU 0 L2C PC-based stride prefetcher final stats
All Misses: 722691
All Hits: 4704165
SD Algo Stats - Switches: 0 SRR-Repls: 293023 BRR-Repls: 0

DRAM Statistics
 CHANNEL 0
 RQ ROW_BUFFER_HIT:     115758  ROW_BUFFER_MISS:     445691
 DBUS_CONGESTED:     304157
 WQ ROW_BUFFER_HIT:       9310  ROW_BUFFER_MISS:     139266  FULL:          0

 AVG_CONGESTED_CYCLE: 13
LOADS RETIRED: 136549171
INSTR RETIRED: 500000000
