
*** ChampSim Multicore Out-of-Order Simulator ***

Warmup Instructions: 100000000
Simulation Instructions: 500000000
Number of CPUs: 1
LLC sets: 2048
LLC ways: 16
Clean RRIP Policies: 2213230222132302 Dirty RRIP Policies: 1203130212031302 PSEL Width: 10 Track Set: 4294967295 PSEL Mask: 1 Demote Mask: 1040100010401000DS Algo: 0Window size: 0
Off-chip DRAM Size: 4096 MB Channels: 1 Width: 64-bit Data Rate: 1600 MT/s

CPU 0 runs /mnt/beegfs/iconst01/spec2017/Fotonik3d.trace.gz
NOT SORTED
TRACE STRING: /mnt/beegfs/iconst01/spec2017/Fotonik3d.trace.gz
SORTED
TRACE STRING: /mnt/beegfs/iconst01/spec2017/Fotonik3d.trace.gz
INITIAL
TRACE STRING: /mnt/beegfs/iconst01/spec2017/Fotonik3d.trace.gz

champsim_seed used: 881

CPU 0 L1D next line prefetcher
CPU 0 L2C IP-based stride prefetcher
Initialize DRRIP state
Assign rand_sets[0]: 454  LLC: 2048
rand_sets[0]: 454
Assign rand_sets[1]: 1662  LLC: 2048
rand_sets[1]: 1662
Assign rand_sets[2]: 1921  LLC: 2048
rand_sets[2]: 1921
Assign rand_sets[3]: 1131  LLC: 2048
rand_sets[3]: 1131
Assign rand_sets[4]: 331  LLC: 2048
rand_sets[4]: 331
Assign rand_sets[5]: 1531  LLC: 2048
rand_sets[5]: 1531
Assign rand_sets[6]: 482  LLC: 2048
rand_sets[6]: 482
Assign rand_sets[7]: 1275  LLC: 2048
rand_sets[7]: 1275
Assign rand_sets[8]: 1876  LLC: 2048
rand_sets[8]: 1876
Assign rand_sets[9]: 2038  LLC: 2048
rand_sets[9]: 2038
Assign rand_sets[10]: 701  LLC: 2048
rand_sets[10]: 701
Assign rand_sets[11]: 479  LLC: 2048
rand_sets[11]: 479
Assign rand_sets[12]: 892  LLC: 2048
rand_sets[12]: 892
Assign rand_sets[13]: 1820  LLC: 2048
rand_sets[13]: 1820
Assign rand_sets[14]: 1505  LLC: 2048
rand_sets[14]: 1505
Assign rand_sets[15]: 1159  LLC: 2048
rand_sets[15]: 1159
Assign rand_sets[16]: 513  LLC: 2048
rand_sets[16]: 513
Assign rand_sets[17]: 703  LLC: 2048
rand_sets[17]: 703
Assign rand_sets[18]: 561  LLC: 2048
rand_sets[18]: 561
Assign rand_sets[19]: 990  LLC: 2048
rand_sets[19]: 990
Assign rand_sets[20]: 342  LLC: 2048
rand_sets[20]: 342
Assign rand_sets[21]: 882  LLC: 2048
rand_sets[21]: 882
Assign rand_sets[22]: 15  LLC: 2048
rand_sets[22]: 15
Assign rand_sets[23]: 71  LLC: 2048
rand_sets[23]: 71
Assign rand_sets[24]: 1127  LLC: 2048
rand_sets[24]: 1127
Assign rand_sets[25]: 1382  LLC: 2048
rand_sets[25]: 1382
Assign rand_sets[26]: 647  LLC: 2048
rand_sets[26]: 647
Assign rand_sets[27]: 857  LLC: 2048
rand_sets[27]: 857
Assign rand_sets[28]: 1450  LLC: 2048
rand_sets[28]: 1450
Assign rand_sets[29]: 1160  LLC: 2048
rand_sets[29]: 1160
Assign rand_sets[30]: 1852  LLC: 2048
rand_sets[30]: 1852
Assign rand_sets[31]: 1881  LLC: 2048
rand_sets[31]: 1881
Assign rand_sets[32]: 1770  LLC: 2048
rand_sets[32]: 1770
Assign rand_sets[33]: 1622  LLC: 2048
rand_sets[33]: 1622
Assign rand_sets[34]: 275  LLC: 2048
rand_sets[34]: 275
Assign rand_sets[35]: 635  LLC: 2048
rand_sets[35]: 635
Assign rand_sets[36]: 466  LLC: 2048
rand_sets[36]: 466
Assign rand_sets[37]: 1413  LLC: 2048
rand_sets[37]: 1413
Assign rand_sets[38]: 417  LLC: 2048
rand_sets[38]: 417
Assign rand_sets[39]: 472  LLC: 2048
rand_sets[39]: 472
Assign rand_sets[40]: 1340  LLC: 2048
rand_sets[40]: 1340
Assign rand_sets[41]: 852  LLC: 2048
rand_sets[41]: 852
Assign rand_sets[42]: 1365  LLC: 2048
rand_sets[42]: 1365
Assign rand_sets[43]: 47  LLC: 2048
rand_sets[43]: 47
Assign rand_sets[44]: 823  LLC: 2048
rand_sets[44]: 823
Assign rand_sets[45]: 686  LLC: 2048
rand_sets[45]: 686
Assign rand_sets[46]: 1637  LLC: 2048
rand_sets[46]: 1637
Assign rand_sets[47]: 1115  LLC: 2048
rand_sets[47]: 1115
Assign rand_sets[48]: 986  LLC: 2048
rand_sets[48]: 986
Assign rand_sets[49]: 258  LLC: 2048
rand_sets[49]: 258
Assign rand_sets[50]: 633  LLC: 2048
rand_sets[50]: 633
Assign rand_sets[51]: 920  LLC: 2048
rand_sets[51]: 920
Assign rand_sets[52]: 204  LLC: 2048
rand_sets[52]: 204
Assign rand_sets[53]: 227  LLC: 2048
rand_sets[53]: 227
Assign rand_sets[54]: 1818  LLC: 2048
rand_sets[54]: 1818
Assign rand_sets[55]: 886  LLC: 2048
rand_sets[55]: 886
Assign rand_sets[56]: 1422  LLC: 2048
rand_sets[56]: 1422
Assign rand_sets[57]: 607  LLC: 2048
rand_sets[57]: 607
Assign rand_sets[58]: 217  LLC: 2048
rand_sets[58]: 217
Assign rand_sets[59]: 1945  LLC: 2048
rand_sets[59]: 1945
Assign rand_sets[60]: 143  LLC: 2048
rand_sets[60]: 143
Assign rand_sets[61]: 1311  LLC: 2048
rand_sets[61]: 1311
Assign rand_sets[62]: 319  LLC: 2048
rand_sets[62]: 319
Assign rand_sets[63]: 1846  LLC: 2048
rand_sets[63]: 1846
 CLEAN-RRIP-POLICY-1: 2-2-1-3-2-3-0-2- CLEAN-RRIP-POLICY-2: 2-2-1-3-2-3-0-2-
 DIRTY-RRIP-POLICY-1: 1-2-0-3-1-3-0-2- DIRTY-RRIP-POLICY-2: 1-2-0-3-1-3-0-2-
 PSEL width: 10
Heartbeat CPU 0 instructions: 10000002 cycles: 7306734 heartbeat IPC: 1.3686 cumulative IPC: 1.3686 (Simulation time: 0 hr 0 min 24 sec) 
Heartbeat CPU 0 instructions: 20000000 cycles: 14613587 heartbeat IPC: 1.36858 cumulative IPC: 1.36859 (Simulation time: 0 hr 0 min 47 sec) 
Heartbeat CPU 0 instructions: 30000001 cycles: 21920304 heartbeat IPC: 1.3686 cumulative IPC: 1.36859 (Simulation time: 0 hr 1 min 11 sec) 
Heartbeat CPU 0 instructions: 40000000 cycles: 29226901 heartbeat IPC: 1.36863 cumulative IPC: 1.3686 (Simulation time: 0 hr 1 min 34 sec) 
Heartbeat CPU 0 instructions: 50000001 cycles: 36533492 heartbeat IPC: 1.36863 cumulative IPC: 1.36861 (Simulation time: 0 hr 1 min 58 sec) 
Heartbeat CPU 0 instructions: 60000000 cycles: 43840315 heartbeat IPC: 1.36858 cumulative IPC: 1.3686 (Simulation time: 0 hr 2 min 21 sec) 
Heartbeat CPU 0 instructions: 70000002 cycles: 51146937 heartbeat IPC: 1.36862 cumulative IPC: 1.36861 (Simulation time: 0 hr 2 min 45 sec) 
Heartbeat CPU 0 instructions: 80000000 cycles: 58453549 heartbeat IPC: 1.36862 cumulative IPC: 1.36861 (Simulation time: 0 hr 3 min 8 sec) 
Heartbeat CPU 0 instructions: 90000003 cycles: 65763959 heartbeat IPC: 1.36791 cumulative IPC: 1.36853 (Simulation time: 0 hr 3 min 32 sec) 
Heartbeat CPU 0 instructions: 100000000 cycles: 73074434 heartbeat IPC: 1.3679 cumulative IPC: 1.36847 (Simulation time: 0 hr 3 min 55 sec) 

Warmup complete CPU 0 instructions: 100000002 cycles: 73074446 (Simulation time: 0 hr 3 min 55 sec) 

Heartbeat CPU 0 instructions: 110000001 cycles: 85510503 heartbeat IPC: 0.804113 cumulative IPC: 0.804113 (Simulation time: 0 hr 4 min 23 sec) 
Heartbeat CPU 0 instructions: 120000000 cycles: 97872328 heartbeat IPC: 0.808942 cumulative IPC: 0.80652 (Simulation time: 0 hr 4 min 51 sec) 
Heartbeat CPU 0 instructions: 130000000 cycles: 110292057 heartbeat IPC: 0.805171 cumulative IPC: 0.80607 (Simulation time: 0 hr 5 min 19 sec) 
Heartbeat CPU 0 instructions: 140000000 cycles: 122687439 heartbeat IPC: 0.806752 cumulative IPC: 0.80624 (Simulation time: 0 hr 5 min 48 sec) 
Heartbeat CPU 0 instructions: 150000000 cycles: 135034831 heartbeat IPC: 0.809888 cumulative IPC: 0.806967 (Simulation time: 0 hr 6 min 16 sec) 
Heartbeat CPU 0 instructions: 160000000 cycles: 147428609 heartbeat IPC: 0.806856 cumulative IPC: 0.806949 (Simulation time: 0 hr 6 min 44 sec) 
Heartbeat CPU 0 instructions: 170000001 cycles: 159835460 heartbeat IPC: 0.806006 cumulative IPC: 0.806814 (Simulation time: 0 hr 7 min 12 sec) 
Heartbeat CPU 0 instructions: 180000000 cycles: 172227605 heartbeat IPC: 0.806963 cumulative IPC: 0.806833 (Simulation time: 0 hr 7 min 40 sec) 
Heartbeat CPU 0 instructions: 190000000 cycles: 184650828 heartbeat IPC: 0.804944 cumulative IPC: 0.806622 (Simulation time: 0 hr 8 min 8 sec) 
Heartbeat CPU 0 instructions: 200000000 cycles: 197029244 heartbeat IPC: 0.807858 cumulative IPC: 0.806746 (Simulation time: 0 hr 8 min 36 sec) 
Heartbeat CPU 0 instructions: 210000002 cycles: 209442602 heartbeat IPC: 0.805584 cumulative IPC: 0.80664 (Simulation time: 0 hr 9 min 4 sec) 
Heartbeat CPU 0 instructions: 220000000 cycles: 221862130 heartbeat IPC: 0.805183 cumulative IPC: 0.806518 (Simulation time: 0 hr 9 min 32 sec) 
Heartbeat CPU 0 instructions: 230000002 cycles: 234246003 heartbeat IPC: 0.807502 cumulative IPC: 0.806594 (Simulation time: 0 hr 10 min 0 sec) 
Heartbeat CPU 0 instructions: 240000000 cycles: 247367076 heartbeat IPC: 0.762133 cumulative IPC: 0.803247 (Simulation time: 0 hr 10 min 28 sec) 
Heartbeat CPU 0 instructions: 250000001 cycles: 264614178 heartbeat IPC: 0.579808 cumulative IPC: 0.783127 (Simulation time: 0 hr 10 min 59 sec) 
Heartbeat CPU 0 instructions: 260000000 cycles: 281717027 heartbeat IPC: 0.584698 cumulative IPC: 0.766862 (Simulation time: 0 hr 11 min 29 sec) 
Heartbeat CPU 0 instructions: 270000000 cycles: 298891778 heartbeat IPC: 0.58225 cumulative IPC: 0.752821 (Simulation time: 0 hr 12 min 0 sec) 
Heartbeat CPU 0 instructions: 280000000 cycles: 316041700 heartbeat IPC: 0.583093 cumulative IPC: 0.740841 (Simulation time: 0 hr 12 min 30 sec) 
Heartbeat CPU 0 instructions: 290000000 cycles: 344414249 heartbeat IPC: 0.352453 cumulative IPC: 0.700229 (Simulation time: 0 hr 13 min 8 sec) 
Heartbeat CPU 0 instructions: 300000000 cycles: 381336556 heartbeat IPC: 0.270839 cumulative IPC: 0.648799 (Simulation time: 0 hr 13 min 51 sec) 
Heartbeat CPU 0 instructions: 310000000 cycles: 397874605 heartbeat IPC: 0.604666 cumulative IPC: 0.646551 (Simulation time: 0 hr 14 min 20 sec) 
Heartbeat CPU 0 instructions: 320000000 cycles: 414398018 heartbeat IPC: 0.605202 cumulative IPC: 0.64455 (Simulation time: 0 hr 14 min 50 sec) 
Heartbeat CPU 0 instructions: 330000003 cycles: 430937634 heartbeat IPC: 0.604609 cumulative IPC: 0.642704 (Simulation time: 0 hr 15 min 20 sec) 
Heartbeat CPU 0 instructions: 340000000 cycles: 447473732 heartbeat IPC: 0.604737 cumulative IPC: 0.641027 (Simulation time: 0 hr 15 min 50 sec) 
Heartbeat CPU 0 instructions: 350000001 cycles: 462213561 heartbeat IPC: 0.678434 cumulative IPC: 0.642444 (Simulation time: 0 hr 16 min 18 sec) 
Heartbeat CPU 0 instructions: 360000000 cycles: 474072295 heartbeat IPC: 0.84326 cumulative IPC: 0.648383 (Simulation time: 0 hr 16 min 44 sec) 
Heartbeat CPU 0 instructions: 370000002 cycles: 485783533 heartbeat IPC: 0.853881 cumulative IPC: 0.654214 (Simulation time: 0 hr 17 min 10 sec) 
Heartbeat CPU 0 instructions: 380000000 cycles: 497674000 heartbeat IPC: 0.84101 cumulative IPC: 0.659445 (Simulation time: 0 hr 17 min 36 sec) 
Heartbeat CPU 0 instructions: 390000003 cycles: 511038603 heartbeat IPC: 0.748245 cumulative IPC: 0.662155 (Simulation time: 0 hr 18 min 3 sec) 
Heartbeat CPU 0 instructions: 400000000 cycles: 523313482 heartbeat IPC: 0.814672 cumulative IPC: 0.666313 (Simulation time: 0 hr 18 min 30 sec) 
Heartbeat CPU 0 instructions: 410000003 cycles: 535318498 heartbeat IPC: 0.832985 cumulative IPC: 0.670641 (Simulation time: 0 hr 18 min 57 sec) 
Heartbeat CPU 0 instructions: 420000000 cycles: 548167299 heartbeat IPC: 0.778283 cumulative IPC: 0.673553 (Simulation time: 0 hr 19 min 23 sec) 
Heartbeat CPU 0 instructions: 430000003 cycles: 566593575 heartbeat IPC: 0.542703 cumulative IPC: 0.668667 (Simulation time: 0 hr 19 min 47 sec) 
Heartbeat CPU 0 instructions: 440000000 cycles: 585049802 heartbeat IPC: 0.541822 cumulative IPC: 0.664094 (Simulation time: 0 hr 20 min 11 sec) 
Heartbeat CPU 0 instructions: 450000003 cycles: 603526683 heartbeat IPC: 0.541217 cumulative IPC: 0.659814 (Simulation time: 0 hr 20 min 35 sec) 
Heartbeat CPU 0 instructions: 460000000 cycles: 621974674 heartbeat IPC: 0.542064 cumulative IPC: 0.655857 (Simulation time: 0 hr 20 min 59 sec) 
Heartbeat CPU 0 instructions: 470000003 cycles: 640444826 heartbeat IPC: 0.541414 cumulative IPC: 0.652131 (Simulation time: 0 hr 21 min 23 sec) 
Heartbeat CPU 0 instructions: 480000000 cycles: 658897801 heartbeat IPC: 0.541918 cumulative IPC: 0.64866 (Simulation time: 0 hr 21 min 47 sec) 
Heartbeat CPU 0 instructions: 490000003 cycles: 677377832 heartbeat IPC: 0.541125 cumulative IPC: 0.645371 (Simulation time: 0 hr 22 min 11 sec) 
Heartbeat CPU 0 instructions: 500000000 cycles: 695800121 heartbeat IPC: 0.542821 cumulative IPC: 0.642337 (Simulation time: 0 hr 22 min 35 sec) 
Heartbeat CPU 0 instructions: 510000003 cycles: 714254930 heartbeat IPC: 0.541864 cumulative IPC: 0.639446 (Simulation time: 0 hr 22 min 59 sec) 
Heartbeat CPU 0 instructions: 520000000 cycles: 732707801 heartbeat IPC: 0.541921 cumulative IPC: 0.636717 (Simulation time: 0 hr 23 min 23 sec) 
Heartbeat CPU 0 instructions: 530000001 cycles: 751194094 heartbeat IPC: 0.540941 cumulative IPC: 0.634106 (Simulation time: 0 hr 23 min 47 sec) 
Heartbeat CPU 0 instructions: 540000000 cycles: 769599563 heartbeat IPC: 0.543317 cumulative IPC: 0.631707 (Simulation time: 0 hr 24 min 11 sec) 
Heartbeat CPU 0 instructions: 550000001 cycles: 787991437 heartbeat IPC: 0.543718 cumulative IPC: 0.629444 (Simulation time: 0 hr 24 min 35 sec) 
Heartbeat CPU 0 instructions: 560000000 cycles: 806401930 heartbeat IPC: 0.543168 cumulative IPC: 0.627278 (Simulation time: 0 hr 24 min 59 sec) 
Heartbeat CPU 0 instructions: 570000001 cycles: 824802689 heartbeat IPC: 0.543456 cumulative IPC: 0.625226 (Simulation time: 0 hr 25 min 23 sec) 
Heartbeat CPU 0 instructions: 580000000 cycles: 843144235 heartbeat IPC: 0.54521 cumulative IPC: 0.62332 (Simulation time: 0 hr 25 min 47 sec) 
Heartbeat CPU 0 instructions: 590000001 cycles: 861555799 heartbeat IPC: 0.543137 cumulative IPC: 0.621448 (Simulation time: 0 hr 26 min 11 sec) 
Heartbeat CPU 0 instructions: 600000000 cycles: 879962509 heartbeat IPC: 0.54328 cumulative IPC: 0.619665 (Simulation time: 0 hr 26 min 34 sec) 
Finished CPU 0 instructions: 500000002 cycles: 806888077 cumulative IPC: 0.619665 (Simulation time: 0 hr 26 min 34 sec) 

CPU 0 Branch Prediction Accuracy: 99.5931% MPKI: 0.08288
Number of Branches: 10184133 Number of Mispredictions: 41440
Number of LOAD Instructions: 261155957
Number of LOAD Instructions (ROI): 261155957
Number of STORE Instructions: 57884062
Number of STORE Instructions (ROI): 57884062
Total Destination Memory Operands: 83293336
Total Destination Memory Operands (ROI): 83293336
Total Source Memory Operands: 261155957
Total Source Memory Operands (ROI): 261155957
Number of DEPENDED LOADS: 22255479
Number of DEPENDED LOADS (ROI): 22255479
Number of SQ_ADDED: 83293300
Number of SQ_ADDED (ROI): 83293300
Number of LQ_ADDED: 1766128664
Number of LQ_ADDED (ROI): 1766128664
Number of Instructions read from trace: 600000257

ChampSim completed all CPUs

Region of Interest Statistics

CPU 0 cumulative IPC: 0.619665 instructions: 500000002 cycles: 806888077
ITLB TOTAL     ACCESS:   94644713  HIT:   94644675  MISS:         38
ITLB LOAD      ACCESS:   94644713  HIT:   94644675  MISS:         38
ITLB RFO       ACCESS:          0  HIT:          0  MISS:          0
ITLB PREFETCH  ACCESS:          0  HIT:          0  MISS:          0
ITLB WRITEBACK ACCESS:          0  HIT:          0  MISS:          0
ITLB PREFETCH  REQUESTED:          0  ISSUED:          0  USEFUL:          0  USELESS:          0
ITLB TOTAL MSHR MERGED:         93
ITLB LOAD MSHR MERGED:         93
ITLB RFO MSHR MERGED:          0
ITLB PREFETCH MSHR MERGED:          0
ITLB WRITEBACK MSHR MERGED:          0
ITLB TOTAL ACCESSES:   94644806 HITS:   94644675 MISSES:        131
ITLB LOAD ACCESSES:   94644806 HITS:   94644675 MISSES:        131
ITLB RFO ACCESSES:          0 HITS:          0 MISSES:          0
ITLB PREFETCH ACCESSES:          0 HITS:          0 MISSES:          0
ITLB WRITEBACK ACCESSES:          0 HITS:          0 MISSES:          0
ITLB RQ ACCESS:  500000001
ITLB RQ TO_CACHE:   94644807
ITLB RQ MERGED:  405355194
ITLB RQ FORWARD:          0
ITLB WQ ACCESS:          0
ITLB WQ TO_CACHE:          0
ITLB WQ MERGED:          0
ITLB WQ FORWARD:          0
DTLB TOTAL     ACCESS:  149172130  HIT:  148575170  MISS:     596960
DTLB LOAD      ACCESS:  107298286  HIT:  106701337  MISS:     596949
DTLB RFO       ACCESS:   41873844  HIT:   41873833  MISS:         11
DTLB PREFETCH  ACCESS:          0  HIT:          0  MISS:          0
DTLB WRITEBACK ACCESS:          0  HIT:          0  MISS:          0
DTLB PREFETCH  REQUESTED:          0  ISSUED:          0  USEFUL:          0  USELESS:          0
DTLB TOTAL MSHR MERGED:     134240
DTLB LOAD MSHR MERGED:     134240
DTLB RFO MSHR MERGED:          0
DTLB PREFETCH MSHR MERGED:          0
DTLB WRITEBACK MSHR MERGED:          0
DTLB TOTAL ACCESSES:  149306370 HITS:  148575170 MISSES:     731200
DTLB LOAD ACCESSES:  107432526 HITS:  106701337 MISSES:     731189
DTLB RFO ACCESSES:   41873844 HITS:   41873833 MISSES:         11
DTLB PREFETCH ACCESSES:          0 HITS:          0 MISSES:          0
DTLB WRITEBACK ACCESSES:          0 HITS:          0 MISSES:          0
DTLB RQ ACCESS:  259760415
DTLB RQ TO_CACHE:  149306370
DTLB RQ MERGED:  110454045
DTLB RQ FORWARD:          0
DTLB WQ ACCESS:          0
DTLB WQ TO_CACHE:          0
DTLB WQ MERGED:          0
DTLB WQ FORWARD:          0
L1D TOTAL     ACCESS:  261023213  HIT:  245625943  MISS:   15397270
L1D LOAD      ACCESS:  118068508  HIT:  112564470  MISS:    5504038
L1D RFO       ACCESS:   68946727  HIT:   68932320  MISS:      14407
L1D PREFETCH  ACCESS:   74007978  HIT:   64129153  MISS:    9878825
L1D WRITEBACK ACCESS:          0  HIT:          0  MISS:          0
L1D PREFETCH  REQUESTED:  120657066  ISSUED:  119081018  USEFUL:    8008574  USELESS:    1870273
L1D TOTAL MSHR MERGED:   16529106
L1D LOAD MSHR MERGED:    5002707
L1D RFO MSHR MERGED:      21852
L1D PREFETCH MSHR MERGED:   11504547
L1D WRITEBACK MSHR MERGED:          0
L1D TOTAL ACCESSES:  277662629 HITS:  245736253 MISSES:   31926376
L1D LOAD ACCESSES:  120664590 HITS:  112571994 MISSES:    8092596
L1D RFO ACCESSES:   68968578 HITS:   68932320 MISSES:      36258
L1D PREFETCH ACCESSES:   88029461 HITS:   64231939 MISSES:   23797522
L1D WRITEBACK ACCESSES:          0 HITS:          0 MISSES:          0
L1D RQ ACCESS:  190686099
L1D RQ TO_CACHE:  120657066
L1D RQ MERGED:   70021509
L1D RQ FORWARD:          0
L1D WQ ACCESS:   69074336
L1D WQ TO_CACHE:   68968580
L1D WQ MERGED:     105756
L1D WQ FORWARD:     110310
L1I TOTAL     ACCESS:  121561084  HIT:  121560011  MISS:       1073
L1I LOAD      ACCESS:  121561084  HIT:  121560011  MISS:       1073
L1I RFO       ACCESS:          0  HIT:          0  MISS:          0
L1I PREFETCH  ACCESS:          0  HIT:          0  MISS:          0
L1I WRITEBACK ACCESS:          0  HIT:          0  MISS:          0
L1I PREFETCH  REQUESTED:          0  ISSUED:          0  USEFUL:          0  USELESS:          0
L1I TOTAL MSHR MERGED:       1090
L1I LOAD MSHR MERGED:       1090
L1I RFO MSHR MERGED:          0
L1I PREFETCH MSHR MERGED:          0
L1I WRITEBACK MSHR MERGED:          0
L1I TOTAL ACCESSES:  121562174 HITS:  121560011 MISSES:       2163
L1I LOAD ACCESSES:  121562174 HITS:  121560011 MISSES:       2163
L1I RFO ACCESSES:          0 HITS:          0 MISSES:          0
L1I PREFETCH ACCESSES:          0 HITS:          0 MISSES:          0
L1I WRITEBACK ACCESSES:          0 HITS:          0 MISSES:          0
L1I RQ ACCESS:  500000000
L1I RQ TO_CACHE:  121562174
L1I RQ MERGED:  378437826
L1I RQ FORWARD:          0
L1I WQ ACCESS:          0
L1I WQ TO_CACHE:          0
L1I WQ MERGED:          0
L1I WQ FORWARD:          0
L2C TOTAL     ACCESS:   22470093  HIT:    9151789  MISS:   13318304
L2C LOAD      ACCESS:    3090927  HIT:     416946  MISS:    2673981
L2C RFO       ACCESS:      14406  HIT:      13992  MISS:        414
L2C PREFETCH  ACCESS:   12734838  HIT:    2092723  MISS:   10642115
L2C WRITEBACK ACCESS:    6629922  HIT:    6628128  MISS:       1794
L2C PREFETCH  REQUESTED:     694823  ISSUED:     694823  USEFUL:     186413  USELESS:   10456499
L2C TOTAL MSHR MERGED:      71743
L2C LOAD MSHR MERGED:      22559
L2C RFO MSHR MERGED:          0
L2C PREFETCH MSHR MERGED:      49184
L2C WRITEBACK MSHR MERGED:          0
L2C TOTAL ACCESSES:   22683192 HITS:    9151837 MISSES:   13531355
L2C LOAD ACCESSES:    3090962 HITS:     416981 MISSES:    2673981
L2C RFO ACCESSES:      14406 HITS:      13992 MISSES:        414
L2C PREFETCH ACCESSES:   12947902 HITS:    2092736 MISSES:   10855166
L2C WRITEBACK ACCESSES:    6629922 HITS:    6628128 MISSES:       1794
L2C RQ ACCESS:    3105368
L2C RQ TO_CACHE:    3105333
L2C RQ MERGED:          0
L2C RQ FORWARD:          0
L2C WQ ACCESS:    6629922
L2C WQ TO_CACHE:    6629922
L2C WQ MERGED:          0
L2C WQ FORWARD:         48
LLC TOTAL     ACCESS:   20026115  HIT:    1986933  MISS:   18039182
LLC LOAD      ACCESS:    2651422  HIT:     432442  MISS:    2218980
LLC RFO       ACCESS:        414  HIT:         21  MISS:        393
LLC PREFETCH  ACCESS:   10783046  HIT:     118547  MISS:   10664499
LLC WRITEBACK ACCESS:    6591233  HIT:    1435923  MISS:    5155310
LLC PREFETCH  REQUESTED:          0  ISSUED:          0  USEFUL:      45772  USELESS:   10619873
LLC TOTAL MSHR MERGED:      21557
LLC LOAD MSHR MERGED:       9974
LLC RFO MSHR MERGED:          0
LLC PREFETCH MSHR MERGED:      11583
LLC WRITEBACK MSHR MERGED:          0
LLC TOTAL ACCESSES:   20047673 HITS:    1986934 MISSES:   18060739
LLC LOAD ACCESSES:    2651422 HITS:     432442 MISSES:    2218980
LLC RFO ACCESSES:        414 HITS:         21 MISSES:        393
LLC PREFETCH ACCESSES:   10804604 HITS:     118548 MISSES:   10686056
LLC WRITEBACK ACCESSES:    6591233 HITS:    1435923 MISSES:    5155310
LLC 0 RQ ACCESS:    2651836
LLC 0 RQ TO_CACHE:    2651836
LLC 0 RQ MERGED:          0
LLC 0 RQ FORWARD:          0
LLC WQ ACCESS:    6591233
LLC WQ TO_CACHE:    6591233
LLC WQ MERGED:          0
LLC WQ FORWARD:          1
Major fault: 0 Minor fault: 183991
CPU 0 L1D next line prefetcher final stats
CPU 0 L2C PC-based stride prefetcher final stats
All Misses: 20896031
All Hits: 2061130
SD Algo Stats - Switches: 0 SRR-Repls: 2270187 BRR-Repls: 0

DRAM Statistics
 CHANNEL 0
 RQ ROW_BUFFER_HIT:    7162278  ROW_BUFFER_MISS:    5721594
 DBUS_CONGESTED:   11506903
 WQ ROW_BUFFER_HIT:    1421722  ROW_BUFFER_MISS:    5162938  FULL:          0

 AVG_CONGESTED_CYCLE: 13
LOADS RETIRED: 204440772
INSTR RETIRED: 500000000
