
*** ChampSim Multicore Out-of-Order Simulator ***

Warmup Instructions: 100000000
Simulation Instructions: 500000000
Number of CPUs: 1
LLC sets: 2048
LLC ways: 16
Clean RRIP Policies: 2122110321221103 Dirty RRIP Policies: 1112010311120103 PSEL Width: 10 Track Set: 4294967295 PSEL Mask: 1 Demote Mask: 443111104431111DS Algo: 0Window size: 0
Off-chip DRAM Size: 4096 MB Channels: 1 Width: 64-bit Data Rate: 1600 MT/s

CPU 0 runs /mnt/beegfs/iconst01/spec2017/Bwaves.trace.gz
NOT SORTED
TRACE STRING: /mnt/beegfs/iconst01/spec2017/Bwaves.trace.gz
SORTED
TRACE STRING: /mnt/beegfs/iconst01/spec2017/Bwaves.trace.gz
INITIAL
TRACE STRING: /mnt/beegfs/iconst01/spec2017/Bwaves.trace.gz

champsim_seed used: 616

CPU 0 L1D next line prefetcher
CPU 0 L2C IP-based stride prefetcher
Initialize DRRIP state
Assign rand_sets[0]: 454  LLC: 2048
rand_sets[0]: 454
Assign rand_sets[1]: 1662  LLC: 2048
rand_sets[1]: 1662
Assign rand_sets[2]: 1921  LLC: 2048
rand_sets[2]: 1921
Assign rand_sets[3]: 1131  LLC: 2048
rand_sets[3]: 1131
Assign rand_sets[4]: 331  LLC: 2048
rand_sets[4]: 331
Assign rand_sets[5]: 1531  LLC: 2048
rand_sets[5]: 1531
Assign rand_sets[6]: 482  LLC: 2048
rand_sets[6]: 482
Assign rand_sets[7]: 1275  LLC: 2048
rand_sets[7]: 1275
Assign rand_sets[8]: 1876  LLC: 2048
rand_sets[8]: 1876
Assign rand_sets[9]: 2038  LLC: 2048
rand_sets[9]: 2038
Assign rand_sets[10]: 701  LLC: 2048
rand_sets[10]: 701
Assign rand_sets[11]: 479  LLC: 2048
rand_sets[11]: 479
Assign rand_sets[12]: 892  LLC: 2048
rand_sets[12]: 892
Assign rand_sets[13]: 1820  LLC: 2048
rand_sets[13]: 1820
Assign rand_sets[14]: 1505  LLC: 2048
rand_sets[14]: 1505
Assign rand_sets[15]: 1159  LLC: 2048
rand_sets[15]: 1159
Assign rand_sets[16]: 513  LLC: 2048
rand_sets[16]: 513
Assign rand_sets[17]: 703  LLC: 2048
rand_sets[17]: 703
Assign rand_sets[18]: 561  LLC: 2048
rand_sets[18]: 561
Assign rand_sets[19]: 990  LLC: 2048
rand_sets[19]: 990
Assign rand_sets[20]: 342  LLC: 2048
rand_sets[20]: 342
Assign rand_sets[21]: 882  LLC: 2048
rand_sets[21]: 882
Assign rand_sets[22]: 15  LLC: 2048
rand_sets[22]: 15
Assign rand_sets[23]: 71  LLC: 2048
rand_sets[23]: 71
Assign rand_sets[24]: 1127  LLC: 2048
rand_sets[24]: 1127
Assign rand_sets[25]: 1382  LLC: 2048
rand_sets[25]: 1382
Assign rand_sets[26]: 647  LLC: 2048
rand_sets[26]: 647
Assign rand_sets[27]: 857  LLC: 2048
rand_sets[27]: 857
Assign rand_sets[28]: 1450  LLC: 2048
rand_sets[28]: 1450
Assign rand_sets[29]: 1160  LLC: 2048
rand_sets[29]: 1160
Assign rand_sets[30]: 1852  LLC: 2048
rand_sets[30]: 1852
Assign rand_sets[31]: 1881  LLC: 2048
rand_sets[31]: 1881
Assign rand_sets[32]: 1770  LLC: 2048
rand_sets[32]: 1770
Assign rand_sets[33]: 1622  LLC: 2048
rand_sets[33]: 1622
Assign rand_sets[34]: 275  LLC: 2048
rand_sets[34]: 275
Assign rand_sets[35]: 635  LLC: 2048
rand_sets[35]: 635
Assign rand_sets[36]: 466  LLC: 2048
rand_sets[36]: 466
Assign rand_sets[37]: 1413  LLC: 2048
rand_sets[37]: 1413
Assign rand_sets[38]: 417  LLC: 2048
rand_sets[38]: 417
Assign rand_sets[39]: 472  LLC: 2048
rand_sets[39]: 472
Assign rand_sets[40]: 1340  LLC: 2048
rand_sets[40]: 1340
Assign rand_sets[41]: 852  LLC: 2048
rand_sets[41]: 852
Assign rand_sets[42]: 1365  LLC: 2048
rand_sets[42]: 1365
Assign rand_sets[43]: 47  LLC: 2048
rand_sets[43]: 47
Assign rand_sets[44]: 823  LLC: 2048
rand_sets[44]: 823
Assign rand_sets[45]: 686  LLC: 2048
rand_sets[45]: 686
Assign rand_sets[46]: 1637  LLC: 2048
rand_sets[46]: 1637
Assign rand_sets[47]: 1115  LLC: 2048
rand_sets[47]: 1115
Assign rand_sets[48]: 986  LLC: 2048
rand_sets[48]: 986
Assign rand_sets[49]: 258  LLC: 2048
rand_sets[49]: 258
Assign rand_sets[50]: 633  LLC: 2048
rand_sets[50]: 633
Assign rand_sets[51]: 920  LLC: 2048
rand_sets[51]: 920
Assign rand_sets[52]: 204  LLC: 2048
rand_sets[52]: 204
Assign rand_sets[53]: 227  LLC: 2048
rand_sets[53]: 227
Assign rand_sets[54]: 1818  LLC: 2048
rand_sets[54]: 1818
Assign rand_sets[55]: 886  LLC: 2048
rand_sets[55]: 886
Assign rand_sets[56]: 1422  LLC: 2048
rand_sets[56]: 1422
Assign rand_sets[57]: 607  LLC: 2048
rand_sets[57]: 607
Assign rand_sets[58]: 217  LLC: 2048
rand_sets[58]: 217
Assign rand_sets[59]: 1945  LLC: 2048
rand_sets[59]: 1945
Assign rand_sets[60]: 143  LLC: 2048
rand_sets[60]: 143
Assign rand_sets[61]: 1311  LLC: 2048
rand_sets[61]: 1311
Assign rand_sets[62]: 319  LLC: 2048
rand_sets[62]: 319
Assign rand_sets[63]: 1846  LLC: 2048
rand_sets[63]: 1846
 CLEAN-RRIP-POLICY-1: 2-1-2-2-1-1-0-3- CLEAN-RRIP-POLICY-2: 2-1-2-2-1-1-0-3-
 DIRTY-RRIP-POLICY-1: 1-1-1-2-0-1-0-3- DIRTY-RRIP-POLICY-2: 1-1-1-2-0-1-0-3-
 PSEL width: 10
Heartbeat CPU 0 instructions: 10000000 cycles: 4301292 heartbeat IPC: 2.32488 cumulative IPC: 2.32488 (Simulation time: 0 hr 0 min 11 sec) 
Heartbeat CPU 0 instructions: 20000000 cycles: 8590211 heartbeat IPC: 2.33159 cumulative IPC: 2.32823 (Simulation time: 0 hr 0 min 22 sec) 
Heartbeat CPU 0 instructions: 30000000 cycles: 12882266 heartbeat IPC: 2.32989 cumulative IPC: 2.32878 (Simulation time: 0 hr 0 min 33 sec) 
Heartbeat CPU 0 instructions: 40000000 cycles: 17228871 heartbeat IPC: 2.30065 cumulative IPC: 2.32168 (Simulation time: 0 hr 0 min 45 sec) 
Heartbeat CPU 0 instructions: 50000002 cycles: 21518561 heartbeat IPC: 2.33117 cumulative IPC: 2.32358 (Simulation time: 0 hr 0 min 56 sec) 
Heartbeat CPU 0 instructions: 60000000 cycles: 25808258 heartbeat IPC: 2.33117 cumulative IPC: 2.32484 (Simulation time: 0 hr 1 min 7 sec) 
Heartbeat CPU 0 instructions: 70000002 cycles: 30100376 heartbeat IPC: 2.32985 cumulative IPC: 2.32555 (Simulation time: 0 hr 1 min 18 sec) 
Heartbeat CPU 0 instructions: 80000000 cycles: 34398972 heartbeat IPC: 2.32634 cumulative IPC: 2.32565 (Simulation time: 0 hr 1 min 29 sec) 
Heartbeat CPU 0 instructions: 90000000 cycles: 38685650 heartbeat IPC: 2.33281 cumulative IPC: 2.32644 (Simulation time: 0 hr 1 min 41 sec) 
Heartbeat CPU 0 instructions: 100000000 cycles: 42960725 heartbeat IPC: 2.33914 cumulative IPC: 2.32771 (Simulation time: 0 hr 1 min 52 sec) 

Warmup complete CPU 0 instructions: 100000002 cycles: 42960726 (Simulation time: 0 hr 1 min 52 sec) 

Heartbeat CPU 0 instructions: 110000003 cycles: 52804023 heartbeat IPC: 1.01592 cumulative IPC: 1.01592 (Simulation time: 0 hr 2 min 8 sec) 
Heartbeat CPU 0 instructions: 120000000 cycles: 62573203 heartbeat IPC: 1.02363 cumulative IPC: 1.01976 (Simulation time: 0 hr 2 min 24 sec) 
Heartbeat CPU 0 instructions: 130000002 cycles: 72370068 heartbeat IPC: 1.02073 cumulative IPC: 1.02008 (Simulation time: 0 hr 2 min 40 sec) 
Heartbeat CPU 0 instructions: 140000000 cycles: 82297478 heartbeat IPC: 1.00731 cumulative IPC: 1.01686 (Simulation time: 0 hr 2 min 56 sec) 
Heartbeat CPU 0 instructions: 150000003 cycles: 92239427 heartbeat IPC: 1.00584 cumulative IPC: 1.01464 (Simulation time: 0 hr 3 min 13 sec) 
Heartbeat CPU 0 instructions: 160000000 cycles: 102158304 heartbeat IPC: 1.00818 cumulative IPC: 1.01355 (Simulation time: 0 hr 3 min 29 sec) 
Heartbeat CPU 0 instructions: 170000003 cycles: 112112892 heartbeat IPC: 1.00456 cumulative IPC: 1.01226 (Simulation time: 0 hr 3 min 45 sec) 
Heartbeat CPU 0 instructions: 180000000 cycles: 122057653 heartbeat IPC: 1.00555 cumulative IPC: 1.01142 (Simulation time: 0 hr 4 min 1 sec) 
Heartbeat CPU 0 instructions: 190000001 cycles: 131951433 heartbeat IPC: 1.01074 cumulative IPC: 1.01134 (Simulation time: 0 hr 4 min 18 sec) 
Heartbeat CPU 0 instructions: 200000000 cycles: 141731296 heartbeat IPC: 1.02251 cumulative IPC: 1.01245 (Simulation time: 0 hr 4 min 34 sec) 
Heartbeat CPU 0 instructions: 210000000 cycles: 151624174 heartbeat IPC: 1.01083 cumulative IPC: 1.0123 (Simulation time: 0 hr 4 min 50 sec) 
Heartbeat CPU 0 instructions: 220000000 cycles: 161357991 heartbeat IPC: 1.02735 cumulative IPC: 1.01354 (Simulation time: 0 hr 5 min 6 sec) 
Heartbeat CPU 0 instructions: 230000000 cycles: 171099409 heartbeat IPC: 1.02654 cumulative IPC: 1.01453 (Simulation time: 0 hr 5 min 22 sec) 
Heartbeat CPU 0 instructions: 240000000 cycles: 181275460 heartbeat IPC: 0.982699 cumulative IPC: 1.01218 (Simulation time: 0 hr 5 min 39 sec) 
Heartbeat CPU 0 instructions: 250000002 cycles: 191114055 heartbeat IPC: 1.01641 cumulative IPC: 1.01246 (Simulation time: 0 hr 5 min 55 sec) 
Heartbeat CPU 0 instructions: 260000000 cycles: 200837467 heartbeat IPC: 1.02845 cumulative IPC: 1.01345 (Simulation time: 0 hr 6 min 11 sec) 
Heartbeat CPU 0 instructions: 270000000 cycles: 210532897 heartbeat IPC: 1.03141 cumulative IPC: 1.01449 (Simulation time: 0 hr 6 min 27 sec) 
Heartbeat CPU 0 instructions: 280000000 cycles: 220255127 heartbeat IPC: 1.02857 cumulative IPC: 1.01526 (Simulation time: 0 hr 6 min 43 sec) 
Heartbeat CPU 0 instructions: 290000000 cycles: 229964065 heartbeat IPC: 1.02998 cumulative IPC: 1.01602 (Simulation time: 0 hr 7 min 0 sec) 
Heartbeat CPU 0 instructions: 300000000 cycles: 239679703 heartbeat IPC: 1.02927 cumulative IPC: 1.01668 (Simulation time: 0 hr 7 min 16 sec) 
Heartbeat CPU 0 instructions: 310000001 cycles: 249368255 heartbeat IPC: 1.03215 cumulative IPC: 1.0174 (Simulation time: 0 hr 7 min 31 sec) 
Heartbeat CPU 0 instructions: 320000000 cycles: 259083765 heartbeat IPC: 1.02928 cumulative IPC: 1.01794 (Simulation time: 0 hr 7 min 47 sec) 
Heartbeat CPU 0 instructions: 330000002 cycles: 269111293 heartbeat IPC: 0.997255 cumulative IPC: 1.01702 (Simulation time: 0 hr 8 min 4 sec) 
Heartbeat CPU 0 instructions: 340000000 cycles: 279197115 heartbeat IPC: 0.991491 cumulative IPC: 1.01593 (Simulation time: 0 hr 8 min 21 sec) 
Heartbeat CPU 0 instructions: 350000003 cycles: 289042026 heartbeat IPC: 1.01575 cumulative IPC: 1.01592 (Simulation time: 0 hr 8 min 37 sec) 
Heartbeat CPU 0 instructions: 360000000 cycles: 298855617 heartbeat IPC: 1.01899 cumulative IPC: 1.01604 (Simulation time: 0 hr 8 min 53 sec) 
Heartbeat CPU 0 instructions: 370000001 cycles: 308665210 heartbeat IPC: 1.01941 cumulative IPC: 1.01617 (Simulation time: 0 hr 9 min 9 sec) 
Heartbeat CPU 0 instructions: 380000000 cycles: 318432079 heartbeat IPC: 1.02387 cumulative IPC: 1.01644 (Simulation time: 0 hr 9 min 25 sec) 
Heartbeat CPU 0 instructions: 390000001 cycles: 328345702 heartbeat IPC: 1.00871 cumulative IPC: 1.01617 (Simulation time: 0 hr 9 min 41 sec) 
Heartbeat CPU 0 instructions: 400000000 cycles: 338295777 heartbeat IPC: 1.00502 cumulative IPC: 1.0158 (Simulation time: 0 hr 9 min 58 sec) 
Heartbeat CPU 0 instructions: 410000002 cycles: 348243833 heartbeat IPC: 1.00522 cumulative IPC: 1.01545 (Simulation time: 0 hr 10 min 14 sec) 
Heartbeat CPU 0 instructions: 420000000 cycles: 358165202 heartbeat IPC: 1.00793 cumulative IPC: 1.01521 (Simulation time: 0 hr 10 min 30 sec) 
Heartbeat CPU 0 instructions: 430000001 cycles: 368105582 heartbeat IPC: 1.006 cumulative IPC: 1.01493 (Simulation time: 0 hr 10 min 47 sec) 
Heartbeat CPU 0 instructions: 440000000 cycles: 378030348 heartbeat IPC: 1.00758 cumulative IPC: 1.01471 (Simulation time: 0 hr 11 min 3 sec) 
Heartbeat CPU 0 instructions: 450000003 cycles: 387728661 heartbeat IPC: 1.03111 cumulative IPC: 1.01518 (Simulation time: 0 hr 11 min 19 sec) 
Heartbeat CPU 0 instructions: 460000000 cycles: 397667011 heartbeat IPC: 1.0062 cumulative IPC: 1.01492 (Simulation time: 0 hr 11 min 35 sec) 
Heartbeat CPU 0 instructions: 470000001 cycles: 407399246 heartbeat IPC: 1.02751 cumulative IPC: 1.01526 (Simulation time: 0 hr 11 min 51 sec) 
Heartbeat CPU 0 instructions: 480000000 cycles: 417138472 heartbeat IPC: 1.02678 cumulative IPC: 1.01556 (Simulation time: 0 hr 12 min 7 sec) 
Heartbeat CPU 0 instructions: 490000002 cycles: 427155468 heartbeat IPC: 0.998303 cumulative IPC: 1.01511 (Simulation time: 0 hr 12 min 23 sec) 
Heartbeat CPU 0 instructions: 500000000 cycles: 437165286 heartbeat IPC: 0.999019 cumulative IPC: 1.0147 (Simulation time: 0 hr 12 min 39 sec) 
Heartbeat CPU 0 instructions: 510000002 cycles: 446871691 heartbeat IPC: 1.03025 cumulative IPC: 1.01508 (Simulation time: 0 hr 12 min 55 sec) 
Heartbeat CPU 0 instructions: 520000000 cycles: 456583154 heartbeat IPC: 1.02971 cumulative IPC: 1.01542 (Simulation time: 0 hr 13 min 11 sec) 
Heartbeat CPU 0 instructions: 530000002 cycles: 466285023 heartbeat IPC: 1.03073 cumulative IPC: 1.01577 (Simulation time: 0 hr 13 min 26 sec) 
Heartbeat CPU 0 instructions: 540000000 cycles: 476011604 heartbeat IPC: 1.02811 cumulative IPC: 1.01605 (Simulation time: 0 hr 13 min 43 sec) 
Heartbeat CPU 0 instructions: 550000001 cycles: 485710279 heartbeat IPC: 1.03107 cumulative IPC: 1.01638 (Simulation time: 0 hr 13 min 58 sec) 
Heartbeat CPU 0 instructions: 560000000 cycles: 495423119 heartbeat IPC: 1.02956 cumulative IPC: 1.01666 (Simulation time: 0 hr 14 min 14 sec) 
Heartbeat CPU 0 instructions: 570000002 cycles: 505119655 heartbeat IPC: 1.0313 cumulative IPC: 1.01697 (Simulation time: 0 hr 14 min 30 sec) 
Heartbeat CPU 0 instructions: 580000000 cycles: 515135470 heartbeat IPC: 0.998421 cumulative IPC: 1.01657 (Simulation time: 0 hr 14 min 46 sec) 
Heartbeat CPU 0 instructions: 590000000 cycles: 525164557 heartbeat IPC: 0.9971 cumulative IPC: 1.01617 (Simulation time: 0 hr 15 min 2 sec) 
Heartbeat CPU 0 instructions: 600000000 cycles: 535071908 heartbeat IPC: 1.00935 cumulative IPC: 1.01603 (Simulation time: 0 hr 15 min 18 sec) 
Finished CPU 0 instructions: 500000000 cycles: 492111191 cumulative IPC: 1.01603 (Simulation time: 0 hr 15 min 18 sec) 

CPU 0 Branch Prediction Accuracy: 92.9125% MPKI: 10.756
Number of Branches: 75879920 Number of Mispredictions: 5377988
Number of LOAD Instructions: 153642898
Number of LOAD Instructions (ROI): 153642898
Number of STORE Instructions: 31440677
Number of STORE Instructions (ROI): 31440677
Total Destination Memory Operands: 31725032
Total Destination Memory Operands (ROI): 31725032
Total Source Memory Operands: 153642898
Total Source Memory Operands (ROI): 153642898
Number of DEPENDED LOADS: 1892577
Number of DEPENDED LOADS (ROI): 1892577
Number of SQ_ADDED: 31725032
Number of SQ_ADDED (ROI): 31725032
Number of LQ_ADDED: 153654782
Number of LQ_ADDED (ROI): 153654782
Number of Instructions read from trace: 600000003

ChampSim completed all CPUs

Region of Interest Statistics

CPU 0 cumulative IPC: 1.01603 instructions: 500000000 cycles: 492111191
ITLB TOTAL     ACCESS:   82135859  HIT:   82135859  MISS:          0
ITLB LOAD      ACCESS:   82135859  HIT:   82135859  MISS:          0
ITLB RFO       ACCESS:          0  HIT:          0  MISS:          0
ITLB PREFETCH  ACCESS:          0  HIT:          0  MISS:          0
ITLB WRITEBACK ACCESS:          0  HIT:          0  MISS:          0
ITLB PREFETCH  REQUESTED:          0  ISSUED:          0  USEFUL:          0  USELESS:          0
ITLB TOTAL MSHR MERGED:          0
ITLB LOAD MSHR MERGED:          0
ITLB RFO MSHR MERGED:          0
ITLB PREFETCH MSHR MERGED:          0
ITLB WRITEBACK MSHR MERGED:          0
ITLB TOTAL ACCESSES:   82135859 HITS:   82135859 MISSES:          0
ITLB LOAD ACCESSES:   82135859 HITS:   82135859 MISSES:          0
ITLB RFO ACCESSES:          0 HITS:          0 MISSES:          0
ITLB PREFETCH ACCESSES:          0 HITS:          0 MISSES:          0
ITLB WRITEBACK ACCESSES:          0 HITS:          0 MISSES:          0
ITLB RQ ACCESS:  499999926
ITLB RQ TO_CACHE:   82135859
ITLB RQ MERGED:  417864067
ITLB RQ FORWARD:          0
ITLB WQ ACCESS:          0
ITLB WQ TO_CACHE:          0
ITLB WQ MERGED:          0
ITLB WQ FORWARD:          0
DTLB TOTAL     ACCESS:   87138318  HIT:   87137441  MISS:        877
DTLB LOAD      ACCESS:   68494748  HIT:   68494647  MISS:        101
DTLB RFO       ACCESS:   18643570  HIT:   18642794  MISS:        776
DTLB PREFETCH  ACCESS:          0  HIT:          0  MISS:          0
DTLB WRITEBACK ACCESS:          0  HIT:          0  MISS:          0
DTLB PREFETCH  REQUESTED:          0  ISSUED:          0  USEFUL:          0  USELESS:          0
DTLB TOTAL MSHR MERGED:       1089
DTLB LOAD MSHR MERGED:         26
DTLB RFO MSHR MERGED:       1063
DTLB PREFETCH MSHR MERGED:          0
DTLB WRITEBACK MSHR MERGED:          0
DTLB TOTAL ACCESSES:   87139407 HITS:   87137441 MISSES:       1966
DTLB LOAD ACCESSES:   68494774 HITS:   68494647 MISSES:        127
DTLB RFO ACCESSES:   18644633 HITS:   18642794 MISSES:       1839
DTLB PREFETCH ACCESSES:          0 HITS:          0 MISSES:          0
DTLB WRITEBACK ACCESSES:          0 HITS:          0 MISSES:          0
DTLB RQ ACCESS:  152860122
DTLB RQ TO_CACHE:   87139407
DTLB RQ MERGED:   65720715
DTLB RQ FORWARD:          0
DTLB WQ ACCESS:          0
DTLB WQ TO_CACHE:          0
DTLB WQ MERGED:          0
DTLB WQ FORWARD:          0
L1D TOTAL     ACCESS:  151315696  HIT:  151255839  MISS:      59857
L1D LOAD      ACCESS:   73265341  HIT:   73263539  MISS:       1802
L1D RFO       ACCESS:   25967031  HIT:   25915724  MISS:      51307
L1D PREFETCH  ACCESS:   52083324  HIT:   52076576  MISS:       6748
L1D WRITEBACK ACCESS:          0  HIT:          0  MISS:          0
L1D PREFETCH  REQUESTED:   73265588  ISSUED:   72835384  USEFUL:       5360  USELESS:       1386
L1D TOTAL MSHR MERGED:     296710
L1D LOAD MSHR MERGED:        306
L1D RFO MSHR MERGED:     292615
L1D PREFETCH MSHR MERGED:       3789
L1D WRITEBACK MSHR MERGED:          0
L1D TOTAL ACCESSES:  151616594 HITS:  151260027 MISSES:     356567
L1D LOAD ACCESSES:   73265941 HITS:   73263892 MISSES:       2049
L1D RFO ACCESSES:   26259645 HITS:   25915724 MISSES:     343921
L1D PREFETCH ACCESSES:   52091008 HITS:   52080411 MISSES:      10597
L1D WRITEBACK ACCESSES:          0 HITS:          0 MISSES:          0
L1D RQ ACCESS:  126388228
L1D RQ TO_CACHE:   73265588
L1D RQ MERGED:   53122287
L1D RQ FORWARD:          0
L1D WQ ACCESS:   26471896
L1D WQ TO_CACHE:   26259646
L1D WQ MERGED:     212250
L1D WQ FORWARD:       4188
L1I TOTAL     ACCESS:   94261517  HIT:   94261511  MISS:          6
L1I LOAD      ACCESS:   94261517  HIT:   94261511  MISS:          6
L1I RFO       ACCESS:          0  HIT:          0  MISS:          0
L1I PREFETCH  ACCESS:          0  HIT:          0  MISS:          0
L1I WRITEBACK ACCESS:          0  HIT:          0  MISS:          0
L1I PREFETCH  REQUESTED:          0  ISSUED:          0  USEFUL:          0  USELESS:          0
L1I TOTAL MSHR MERGED:          4
L1I LOAD MSHR MERGED:          4
L1I RFO MSHR MERGED:          0
L1I PREFETCH MSHR MERGED:          0
L1I WRITEBACK MSHR MERGED:          0
L1I TOTAL ACCESSES:   94261521 HITS:   94261511 MISSES:         10
L1I LOAD ACCESSES:   94261521 HITS:   94261511 MISSES:         10
L1I RFO ACCESSES:          0 HITS:          0 MISSES:          0
L1I PREFETCH ACCESSES:          0 HITS:          0 MISSES:          0
L1I WRITEBACK ACCESSES:          0 HITS:          0 MISSES:          0
L1I RQ ACCESS:  499999932
L1I RQ TO_CACHE:   94261521
L1I RQ MERGED:  405738411
L1I RQ FORWARD:          0
L1I WQ ACCESS:          0
L1I WQ TO_CACHE:          0
L1I WQ MERGED:          0
L1I WQ FORWARD:          0
L2C TOTAL     ACCESS:     111543  HIT:      56079  MISS:      55464
L2C LOAD      ACCESS:       1749  HIT:       1443  MISS:        306
L2C RFO       ACCESS:      51306  HIT:       1524  MISS:      49782
L2C PREFETCH  ACCESS:       6808  HIT:       1657  MISS:       5151
L2C WRITEBACK ACCESS:      51680  HIT:      51455  MISS:        225
L2C PREFETCH  REQUESTED:          0  ISSUED:          0  USEFUL:        120  USELESS:       5056
L2C TOTAL MSHR MERGED:          0
L2C LOAD MSHR MERGED:          0
L2C RFO MSHR MERGED:          0
L2C PREFETCH MSHR MERGED:          0
L2C WRITEBACK MSHR MERGED:          0
L2C TOTAL ACCESSES:     111543 HITS:      56079 MISSES:      55464
L2C LOAD ACCESSES:       1749 HITS:       1443 MISSES:        306
L2C RFO ACCESSES:      51306 HITS:       1524 MISSES:      49782
L2C PREFETCH ACCESSES:       6808 HITS:       1657 MISSES:       5151
L2C WRITEBACK ACCESSES:      51680 HITS:      51455 MISSES:        225
L2C RQ ACCESS:      53055
L2C RQ TO_CACHE:      53055
L2C RQ MERGED:          0
L2C RQ FORWARD:          0
L2C WQ ACCESS:      51680
L2C WQ TO_CACHE:      51680
L2C WQ MERGED:          0
L2C WQ FORWARD:          0
LLC TOTAL     ACCESS:     105239  HIT:      50344  MISS:      54895
LLC LOAD      ACCESS:        306  HIT:         18  MISS:        288
LLC RFO       ACCESS:      49782  HIT:        173  MISS:      49609
LLC PREFETCH  ACCESS:       5151  HIT:        158  MISS:       4993
LLC WRITEBACK ACCESS:      50000  HIT:      49995  MISS:          5
LLC PREFETCH  REQUESTED:          0  ISSUED:          0  USEFUL:          3  USELESS:       3572
LLC TOTAL MSHR MERGED:          0
LLC LOAD MSHR MERGED:          0
LLC RFO MSHR MERGED:          0
LLC PREFETCH MSHR MERGED:          0
LLC WRITEBACK MSHR MERGED:          0
LLC TOTAL ACCESSES:     105239 HITS:      50344 MISSES:      54895
LLC LOAD ACCESSES:        306 HITS:         18 MISSES:        288
LLC RFO ACCESSES:      49782 HITS:        173 MISSES:      49609
LLC PREFETCH ACCESSES:       5151 HITS:        158 MISSES:       4993
LLC WRITEBACK ACCESSES:      50000 HITS:      49995 MISSES:          5
LLC 0 RQ ACCESS:      50088
LLC 0 RQ TO_CACHE:      50088
LLC 0 RQ MERGED:          0
LLC 0 RQ FORWARD:          0
LLC WQ ACCESS:      50000
LLC WQ TO_CACHE:      50000
LLC WQ MERGED:          0
LLC WQ FORWARD:          0
Major fault: 0 Minor fault: 1116
CPU 0 L1D next line prefetcher final stats
CPU 0 L2C PC-based stride prefetcher final stats
All Misses: 69834
All Hits: 60103
SD Algo Stats - Switches: 0 SRR-Repls: 652 BRR-Repls: 0

DRAM Statistics
 CHANNEL 0
 RQ ROW_BUFFER_HIT:      38773  ROW_BUFFER_MISS:      16117
 DBUS_CONGESTED:      52611
 WQ ROW_BUFFER_HIT:      15480  ROW_BUFFER_MISS:      17338  FULL:          0

 AVG_CONGESTED_CYCLE: 13
LOADS RETIRED: 127961192
INSTR RETIRED: 500000000
