
*** ChampSim Multicore Out-of-Order Simulator ***

Warmup Instructions: 100000000
Simulation Instructions: 500000000
Number of CPUs: 1
LLC sets: 2048
LLC ways: 16
Clean RRIP Policies: 2122110321221103 Dirty RRIP Policies: 1112010311120103 PSEL Width: 10 Track Set: 4294967295 PSEL Mask: 1 Demote Mask: 443111104431111DS Algo: 0Window size: 0
Off-chip DRAM Size: 4096 MB Channels: 1 Width: 64-bit Data Rate: 1600 MT/s

CPU 0 runs /mnt/beegfs/iconst01/spec2017/Fotonik3d.trace.gz
NOT SORTED
TRACE STRING: /mnt/beegfs/iconst01/spec2017/Fotonik3d.trace.gz
SORTED
TRACE STRING: /mnt/beegfs/iconst01/spec2017/Fotonik3d.trace.gz
INITIAL
TRACE STRING: /mnt/beegfs/iconst01/spec2017/Fotonik3d.trace.gz

champsim_seed used: 881

CPU 0 L1D next line prefetcher
CPU 0 L2C IP-based stride prefetcher
Initialize DRRIP state
Assign rand_sets[0]: 454  LLC: 2048
rand_sets[0]: 454
Assign rand_sets[1]: 1662  LLC: 2048
rand_sets[1]: 1662
Assign rand_sets[2]: 1921  LLC: 2048
rand_sets[2]: 1921
Assign rand_sets[3]: 1131  LLC: 2048
rand_sets[3]: 1131
Assign rand_sets[4]: 331  LLC: 2048
rand_sets[4]: 331
Assign rand_sets[5]: 1531  LLC: 2048
rand_sets[5]: 1531
Assign rand_sets[6]: 482  LLC: 2048
rand_sets[6]: 482
Assign rand_sets[7]: 1275  LLC: 2048
rand_sets[7]: 1275
Assign rand_sets[8]: 1876  LLC: 2048
rand_sets[8]: 1876
Assign rand_sets[9]: 2038  LLC: 2048
rand_sets[9]: 2038
Assign rand_sets[10]: 701  LLC: 2048
rand_sets[10]: 701
Assign rand_sets[11]: 479  LLC: 2048
rand_sets[11]: 479
Assign rand_sets[12]: 892  LLC: 2048
rand_sets[12]: 892
Assign rand_sets[13]: 1820  LLC: 2048
rand_sets[13]: 1820
Assign rand_sets[14]: 1505  LLC: 2048
rand_sets[14]: 1505
Assign rand_sets[15]: 1159  LLC: 2048
rand_sets[15]: 1159
Assign rand_sets[16]: 513  LLC: 2048
rand_sets[16]: 513
Assign rand_sets[17]: 703  LLC: 2048
rand_sets[17]: 703
Assign rand_sets[18]: 561  LLC: 2048
rand_sets[18]: 561
Assign rand_sets[19]: 990  LLC: 2048
rand_sets[19]: 990
Assign rand_sets[20]: 342  LLC: 2048
rand_sets[20]: 342
Assign rand_sets[21]: 882  LLC: 2048
rand_sets[21]: 882
Assign rand_sets[22]: 15  LLC: 2048
rand_sets[22]: 15
Assign rand_sets[23]: 71  LLC: 2048
rand_sets[23]: 71
Assign rand_sets[24]: 1127  LLC: 2048
rand_sets[24]: 1127
Assign rand_sets[25]: 1382  LLC: 2048
rand_sets[25]: 1382
Assign rand_sets[26]: 647  LLC: 2048
rand_sets[26]: 647
Assign rand_sets[27]: 857  LLC: 2048
rand_sets[27]: 857
Assign rand_sets[28]: 1450  LLC: 2048
rand_sets[28]: 1450
Assign rand_sets[29]: 1160  LLC: 2048
rand_sets[29]: 1160
Assign rand_sets[30]: 1852  LLC: 2048
rand_sets[30]: 1852
Assign rand_sets[31]: 1881  LLC: 2048
rand_sets[31]: 1881
Assign rand_sets[32]: 1770  LLC: 2048
rand_sets[32]: 1770
Assign rand_sets[33]: 1622  LLC: 2048
rand_sets[33]: 1622
Assign rand_sets[34]: 275  LLC: 2048
rand_sets[34]: 275
Assign rand_sets[35]: 635  LLC: 2048
rand_sets[35]: 635
Assign rand_sets[36]: 466  LLC: 2048
rand_sets[36]: 466
Assign rand_sets[37]: 1413  LLC: 2048
rand_sets[37]: 1413
Assign rand_sets[38]: 417  LLC: 2048
rand_sets[38]: 417
Assign rand_sets[39]: 472  LLC: 2048
rand_sets[39]: 472
Assign rand_sets[40]: 1340  LLC: 2048
rand_sets[40]: 1340
Assign rand_sets[41]: 852  LLC: 2048
rand_sets[41]: 852
Assign rand_sets[42]: 1365  LLC: 2048
rand_sets[42]: 1365
Assign rand_sets[43]: 47  LLC: 2048
rand_sets[43]: 47
Assign rand_sets[44]: 823  LLC: 2048
rand_sets[44]: 823
Assign rand_sets[45]: 686  LLC: 2048
rand_sets[45]: 686
Assign rand_sets[46]: 1637  LLC: 2048
rand_sets[46]: 1637
Assign rand_sets[47]: 1115  LLC: 2048
rand_sets[47]: 1115
Assign rand_sets[48]: 986  LLC: 2048
rand_sets[48]: 986
Assign rand_sets[49]: 258  LLC: 2048
rand_sets[49]: 258
Assign rand_sets[50]: 633  LLC: 2048
rand_sets[50]: 633
Assign rand_sets[51]: 920  LLC: 2048
rand_sets[51]: 920
Assign rand_sets[52]: 204  LLC: 2048
rand_sets[52]: 204
Assign rand_sets[53]: 227  LLC: 2048
rand_sets[53]: 227
Assign rand_sets[54]: 1818  LLC: 2048
rand_sets[54]: 1818
Assign rand_sets[55]: 886  LLC: 2048
rand_sets[55]: 886
Assign rand_sets[56]: 1422  LLC: 2048
rand_sets[56]: 1422
Assign rand_sets[57]: 607  LLC: 2048
rand_sets[57]: 607
Assign rand_sets[58]: 217  LLC: 2048
rand_sets[58]: 217
Assign rand_sets[59]: 1945  LLC: 2048
rand_sets[59]: 1945
Assign rand_sets[60]: 143  LLC: 2048
rand_sets[60]: 143
Assign rand_sets[61]: 1311  LLC: 2048
rand_sets[61]: 1311
Assign rand_sets[62]: 319  LLC: 2048
rand_sets[62]: 319
Assign rand_sets[63]: 1846  LLC: 2048
rand_sets[63]: 1846
 CLEAN-RRIP-POLICY-1: 2-1-2-2-1-1-0-3- CLEAN-RRIP-POLICY-2: 2-1-2-2-1-1-0-3-
 DIRTY-RRIP-POLICY-1: 1-1-1-2-0-1-0-3- DIRTY-RRIP-POLICY-2: 1-1-1-2-0-1-0-3-
 PSEL width: 10
Heartbeat CPU 0 instructions: 10000002 cycles: 7306900 heartbeat IPC: 1.36857 cumulative IPC: 1.36857 (Simulation time: 0 hr 0 min 23 sec) 
Heartbeat CPU 0 instructions: 20000000 cycles: 14614009 heartbeat IPC: 1.36853 cumulative IPC: 1.36855 (Simulation time: 0 hr 0 min 47 sec) 
Heartbeat CPU 0 instructions: 30000001 cycles: 21920983 heartbeat IPC: 1.36856 cumulative IPC: 1.36855 (Simulation time: 0 hr 1 min 11 sec) 
Heartbeat CPU 0 instructions: 40000000 cycles: 29227825 heartbeat IPC: 1.36858 cumulative IPC: 1.36856 (Simulation time: 0 hr 1 min 35 sec) 
Heartbeat CPU 0 instructions: 50000001 cycles: 36534610 heartbeat IPC: 1.36859 cumulative IPC: 1.36857 (Simulation time: 0 hr 1 min 59 sec) 
Heartbeat CPU 0 instructions: 60000000 cycles: 43841687 heartbeat IPC: 1.36854 cumulative IPC: 1.36856 (Simulation time: 0 hr 2 min 23 sec) 
Heartbeat CPU 0 instructions: 70000002 cycles: 51148526 heartbeat IPC: 1.36858 cumulative IPC: 1.36856 (Simulation time: 0 hr 2 min 47 sec) 
Heartbeat CPU 0 instructions: 80000000 cycles: 58455331 heartbeat IPC: 1.36859 cumulative IPC: 1.36857 (Simulation time: 0 hr 3 min 11 sec) 
Heartbeat CPU 0 instructions: 90000003 cycles: 65765990 heartbeat IPC: 1.36787 cumulative IPC: 1.36849 (Simulation time: 0 hr 3 min 35 sec) 
Heartbeat CPU 0 instructions: 100000000 cycles: 73076684 heartbeat IPC: 1.36786 cumulative IPC: 1.36843 (Simulation time: 0 hr 4 min 0 sec) 

Warmup complete CPU 0 instructions: 100000002 cycles: 73076696 (Simulation time: 0 hr 4 min 0 sec) 

Heartbeat CPU 0 instructions: 110000001 cycles: 85611103 heartbeat IPC: 0.797803 cumulative IPC: 0.797804 (Simulation time: 0 hr 4 min 28 sec) 
Heartbeat CPU 0 instructions: 120000000 cycles: 98083846 heartbeat IPC: 0.801748 cumulative IPC: 0.799771 (Simulation time: 0 hr 4 min 57 sec) 
Heartbeat CPU 0 instructions: 130000000 cycles: 110624490 heartbeat IPC: 0.797407 cumulative IPC: 0.798982 (Simulation time: 0 hr 5 min 26 sec) 
Heartbeat CPU 0 instructions: 140000000 cycles: 123131354 heartbeat IPC: 0.799561 cumulative IPC: 0.799126 (Simulation time: 0 hr 5 min 55 sec) 
Heartbeat CPU 0 instructions: 150000000 cycles: 135587036 heartbeat IPC: 0.802846 cumulative IPC: 0.799868 (Simulation time: 0 hr 6 min 23 sec) 
Heartbeat CPU 0 instructions: 160000000 cycles: 148095862 heartbeat IPC: 0.799436 cumulative IPC: 0.799796 (Simulation time: 0 hr 6 min 52 sec) 
Heartbeat CPU 0 instructions: 170000001 cycles: 160618302 heartbeat IPC: 0.798567 cumulative IPC: 0.79962 (Simulation time: 0 hr 7 min 21 sec) 
Heartbeat CPU 0 instructions: 180000000 cycles: 173122847 heartbeat IPC: 0.799709 cumulative IPC: 0.799631 (Simulation time: 0 hr 7 min 50 sec) 
Heartbeat CPU 0 instructions: 190000000 cycles: 185656521 heartbeat IPC: 0.797851 cumulative IPC: 0.799433 (Simulation time: 0 hr 8 min 19 sec) 
Heartbeat CPU 0 instructions: 200000000 cycles: 198157112 heartbeat IPC: 0.799962 cumulative IPC: 0.799486 (Simulation time: 0 hr 8 min 47 sec) 
Heartbeat CPU 0 instructions: 210000002 cycles: 210705436 heartbeat IPC: 0.796919 cumulative IPC: 0.799252 (Simulation time: 0 hr 9 min 16 sec) 
Heartbeat CPU 0 instructions: 220000000 cycles: 223248122 heartbeat IPC: 0.797277 cumulative IPC: 0.799087 (Simulation time: 0 hr 9 min 45 sec) 
Heartbeat CPU 0 instructions: 230000002 cycles: 235750331 heartbeat IPC: 0.799859 cumulative IPC: 0.799146 (Simulation time: 0 hr 10 min 14 sec) 
Heartbeat CPU 0 instructions: 240000000 cycles: 248945117 heartbeat IPC: 0.757875 cumulative IPC: 0.79605 (Simulation time: 0 hr 10 min 43 sec) 
Heartbeat CPU 0 instructions: 250000002 cycles: 267185165 heartbeat IPC: 0.548244 cumulative IPC: 0.772764 (Simulation time: 0 hr 11 min 15 sec) 
Heartbeat CPU 0 instructions: 260000000 cycles: 285353526 heartbeat IPC: 0.550407 cumulative IPC: 0.753733 (Simulation time: 0 hr 11 min 46 sec) 
Heartbeat CPU 0 instructions: 270000000 cycles: 303628176 heartbeat IPC: 0.547206 cumulative IPC: 0.737362 (Simulation time: 0 hr 12 min 18 sec) 
Heartbeat CPU 0 instructions: 280000000 cycles: 321824880 heartbeat IPC: 0.54955 cumulative IPC: 0.723623 (Simulation time: 0 hr 12 min 50 sec) 
Heartbeat CPU 0 instructions: 290000001 cycles: 352277896 heartbeat IPC: 0.328375 cumulative IPC: 0.680513 (Simulation time: 0 hr 13 min 30 sec) 
Heartbeat CPU 0 instructions: 300000000 cycles: 392450898 heartbeat IPC: 0.248923 cumulative IPC: 0.626225 (Simulation time: 0 hr 14 min 15 sec) 
Heartbeat CPU 0 instructions: 310000000 cycles: 410113119 heartbeat IPC: 0.56618 cumulative IPC: 0.623078 (Simulation time: 0 hr 14 min 46 sec) 
Heartbeat CPU 0 instructions: 320000000 cycles: 427629561 heartbeat IPC: 0.570892 cumulative IPC: 0.6205 (Simulation time: 0 hr 15 min 17 sec) 
Heartbeat CPU 0 instructions: 330000003 cycles: 445332491 heartbeat IPC: 0.564878 cumulative IPC: 0.617855 (Simulation time: 0 hr 15 min 48 sec) 
Heartbeat CPU 0 instructions: 340000000 cycles: 462915803 heartbeat IPC: 0.568721 cumulative IPC: 0.615639 (Simulation time: 0 hr 16 min 19 sec) 
Heartbeat CPU 0 instructions: 350000001 cycles: 478577084 heartbeat IPC: 0.638517 cumulative IPC: 0.616522 (Simulation time: 0 hr 16 min 48 sec) 
Heartbeat CPU 0 instructions: 360000000 cycles: 490459247 heartbeat IPC: 0.841598 cumulative IPC: 0.62293 (Simulation time: 0 hr 17 min 14 sec) 
Heartbeat CPU 0 instructions: 370000002 cycles: 502078948 heartbeat IPC: 0.860608 cumulative IPC: 0.629367 (Simulation time: 0 hr 17 min 40 sec) 
Heartbeat CPU 0 instructions: 380000000 cycles: 513922077 heartbeat IPC: 0.844371 cumulative IPC: 0.635143 (Simulation time: 0 hr 18 min 7 sec) 
Heartbeat CPU 0 instructions: 390000003 cycles: 527204669 heartbeat IPC: 0.752865 cumulative IPC: 0.638587 (Simulation time: 0 hr 18 min 33 sec) 
Heartbeat CPU 0 instructions: 400000000 cycles: 539453923 heartbeat IPC: 0.816376 cumulative IPC: 0.643256 (Simulation time: 0 hr 19 min 0 sec) 
Heartbeat CPU 0 instructions: 410000002 cycles: 551410947 heartbeat IPC: 0.836329 cumulative IPC: 0.648082 (Simulation time: 0 hr 19 min 27 sec) 
Heartbeat CPU 0 instructions: 420000000 cycles: 564208952 heartbeat IPC: 0.781372 cumulative IPC: 0.651556 (Simulation time: 0 hr 19 min 54 sec) 
Heartbeat CPU 0 instructions: 430000003 cycles: 582571785 heartbeat IPC: 0.544578 cumulative IPC: 0.6477 (Simulation time: 0 hr 20 min 18 sec) 
Heartbeat CPU 0 instructions: 440000000 cycles: 600915260 heartbeat IPC: 0.545153 cumulative IPC: 0.644136 (Simulation time: 0 hr 20 min 42 sec) 
Heartbeat CPU 0 instructions: 450000003 cycles: 619285519 heartbeat IPC: 0.544358 cumulative IPC: 0.640781 (Simulation time: 0 hr 21 min 7 sec) 
Heartbeat CPU 0 instructions: 460000000 cycles: 637617149 heartbeat IPC: 0.545505 cumulative IPC: 0.637687 (Simulation time: 0 hr 21 min 31 sec) 
Heartbeat CPU 0 instructions: 470000003 cycles: 655954333 heartbeat IPC: 0.54534 cumulative IPC: 0.634782 (Simulation time: 0 hr 21 min 55 sec) 
Heartbeat CPU 0 instructions: 480000000 cycles: 674302139 heartbeat IPC: 0.545024 cumulative IPC: 0.632042 (Simulation time: 0 hr 22 min 19 sec) 
Heartbeat CPU 0 instructions: 490000003 cycles: 692677785 heartbeat IPC: 0.544199 cumulative IPC: 0.629437 (Simulation time: 0 hr 22 min 43 sec) 
Heartbeat CPU 0 instructions: 500000000 cycles: 710980663 heartbeat IPC: 0.546362 cumulative IPC: 0.627054 (Simulation time: 0 hr 23 min 7 sec) 
Heartbeat CPU 0 instructions: 510000003 cycles: 729335318 heartbeat IPC: 0.544821 cumulative IPC: 0.624754 (Simulation time: 0 hr 23 min 32 sec) 
Heartbeat CPU 0 instructions: 520000000 cycles: 747672742 heartbeat IPC: 0.545333 cumulative IPC: 0.622595 (Simulation time: 0 hr 23 min 56 sec) 
Heartbeat CPU 0 instructions: 530000001 cycles: 766035632 heartbeat IPC: 0.544577 cumulative IPC: 0.620527 (Simulation time: 0 hr 24 min 20 sec) 
Heartbeat CPU 0 instructions: 540000000 cycles: 784327110 heartbeat IPC: 0.546703 cumulative IPC: 0.618629 (Simulation time: 0 hr 24 min 44 sec) 
Heartbeat CPU 0 instructions: 550000001 cycles: 802633114 heartbeat IPC: 0.546269 cumulative IPC: 0.616813 (Simulation time: 0 hr 25 min 8 sec) 
Heartbeat CPU 0 instructions: 560000000 cycles: 820944541 heartbeat IPC: 0.546107 cumulative IPC: 0.615082 (Simulation time: 0 hr 25 min 32 sec) 
Heartbeat CPU 0 instructions: 570000001 cycles: 839228484 heartbeat IPC: 0.546928 cumulative IPC: 0.613455 (Simulation time: 0 hr 25 min 57 sec) 
Heartbeat CPU 0 instructions: 580000000 cycles: 857467846 heartbeat IPC: 0.548265 cumulative IPC: 0.61194 (Simulation time: 0 hr 26 min 21 sec) 
Heartbeat CPU 0 instructions: 590000001 cycles: 875776492 heartbeat IPC: 0.54619 cumulative IPC: 0.61044 (Simulation time: 0 hr 26 min 45 sec) 
Heartbeat CPU 0 instructions: 600000000 cycles: 894073975 heartbeat IPC: 0.546523 cumulative IPC: 0.609015 (Simulation time: 0 hr 27 min 9 sec) 
Finished CPU 0 instructions: 500000002 cycles: 820997293 cumulative IPC: 0.609015 (Simulation time: 0 hr 27 min 9 sec) 

CPU 0 Branch Prediction Accuracy: 99.5931% MPKI: 0.08288
Number of Branches: 10184133 Number of Mispredictions: 41440
Number of LOAD Instructions: 261155957
Number of LOAD Instructions (ROI): 261155957
Number of STORE Instructions: 57884062
Number of STORE Instructions (ROI): 57884062
Total Destination Memory Operands: 83293336
Total Destination Memory Operands (ROI): 83293336
Total Source Memory Operands: 261155957
Total Source Memory Operands (ROI): 261155957
Number of DEPENDED LOADS: 22256503
Number of DEPENDED LOADS (ROI): 22256503
Number of SQ_ADDED: 83293300
Number of SQ_ADDED (ROI): 83293300
Number of LQ_ADDED: 1781771859
Number of LQ_ADDED (ROI): 1781771859
Number of Instructions read from trace: 600000257

ChampSim completed all CPUs

Region of Interest Statistics

CPU 0 cumulative IPC: 0.609015 instructions: 500000002 cycles: 820997293
ITLB TOTAL     ACCESS:   94995060  HIT:   94995022  MISS:         38
ITLB LOAD      ACCESS:   94995060  HIT:   94995022  MISS:         38
ITLB RFO       ACCESS:          0  HIT:          0  MISS:          0
ITLB PREFETCH  ACCESS:          0  HIT:          0  MISS:          0
ITLB WRITEBACK ACCESS:          0  HIT:          0  MISS:          0
ITLB PREFETCH  REQUESTED:          0  ISSUED:          0  USEFUL:          0  USELESS:          0
ITLB TOTAL MSHR MERGED:         93
ITLB LOAD MSHR MERGED:         93
ITLB RFO MSHR MERGED:          0
ITLB PREFETCH MSHR MERGED:          0
ITLB WRITEBACK MSHR MERGED:          0
ITLB TOTAL ACCESSES:   94995153 HITS:   94995022 MISSES:        131
ITLB LOAD ACCESSES:   94995153 HITS:   94995022 MISSES:        131
ITLB RFO ACCESSES:          0 HITS:          0 MISSES:          0
ITLB PREFETCH ACCESSES:          0 HITS:          0 MISSES:          0
ITLB WRITEBACK ACCESSES:          0 HITS:          0 MISSES:          0
ITLB RQ ACCESS:  500000001
ITLB RQ TO_CACHE:   94995154
ITLB RQ MERGED:  405004847
ITLB RQ FORWARD:          0
ITLB WQ ACCESS:          0
ITLB WQ TO_CACHE:          0
ITLB WQ MERGED:          0
ITLB WQ FORWARD:          0
DTLB TOTAL     ACCESS:  149273082  HIT:  148676122  MISS:     596960
DTLB LOAD      ACCESS:  107399941  HIT:  106802992  MISS:     596949
DTLB RFO       ACCESS:   41873141  HIT:   41873130  MISS:         11
DTLB PREFETCH  ACCESS:          0  HIT:          0  MISS:          0
DTLB WRITEBACK ACCESS:          0  HIT:          0  MISS:          0
DTLB PREFETCH  REQUESTED:          0  ISSUED:          0  USEFUL:          0  USELESS:          0
DTLB TOTAL MSHR MERGED:     133643
DTLB LOAD MSHR MERGED:     133643
DTLB RFO MSHR MERGED:          0
DTLB PREFETCH MSHR MERGED:          0
DTLB WRITEBACK MSHR MERGED:          0
DTLB TOTAL ACCESSES:  149406725 HITS:  148676122 MISSES:     730603
DTLB LOAD ACCESSES:  107533584 HITS:  106802992 MISSES:     730592
DTLB RFO ACCESSES:   41873141 HITS:   41873130 MISSES:         11
DTLB PREFETCH ACCESSES:          0 HITS:          0 MISSES:          0
DTLB WRITEBACK ACCESSES:          0 HITS:          0 MISSES:          0
DTLB RQ ACCESS:  259759394
DTLB RQ TO_CACHE:  149406725
DTLB RQ MERGED:  110352669
DTLB RQ FORWARD:          0
DTLB WQ ACCESS:          0
DTLB WQ TO_CACHE:          0
DTLB WQ MERGED:          0
DTLB WQ FORWARD:          0
L1D TOTAL     ACCESS:  261656430  HIT:  246167621  MISS:   15488809
L1D LOAD      ACCESS:  118095370  HIT:  112640250  MISS:    5455120
L1D RFO       ACCESS:   68946804  HIT:   68932395  MISS:      14409
L1D PREFETCH  ACCESS:   74614256  HIT:   64594976  MISS:   10019280
L1D WRITEBACK ACCESS:          0  HIT:          0  MISS:          0
L1D PREFETCH  REQUESTED:  120673191  ISSUED:  119436128  USEFUL:    8057453  USELESS:    1961849
L1D TOTAL MSHR MERGED:   16418543
L1D LOAD MSHR MERGED:    4979110
L1D RFO MSHR MERGED:      21767
L1D PREFETCH MSHR MERGED:   11417666
L1D WRITEBACK MSHR MERGED:          0
L1D TOTAL ACCESSES:  278185159 HITS:  246277807 MISSES:   31907352
L1D LOAD ACCESSES:  120680743 HITS:  112647802 MISSES:    8032941
L1D RFO ACCESSES:   68968571 HITS:   68932395 MISSES:      36176
L1D PREFETCH ACCESSES:   88535845 HITS:   64697610 MISSES:   23838235
L1D WRITEBACK ACCESSES:          0 HITS:          0 MISSES:          0
L1D RQ ACCESS:  190685078
L1D RQ TO_CACHE:  120673191
L1D RQ MERGED:   70004335
L1D RQ FORWARD:          0
L1D WQ ACCESS:   69074336
L1D WQ TO_CACHE:   68968573
L1D WQ MERGED:     105763
L1D WQ FORWARD:     110186
L1I TOTAL     ACCESS:  121861534  HIT:  121860461  MISS:       1073
L1I LOAD      ACCESS:  121861534  HIT:  121860461  MISS:       1073
L1I RFO       ACCESS:          0  HIT:          0  MISS:          0
L1I PREFETCH  ACCESS:          0  HIT:          0  MISS:          0
L1I WRITEBACK ACCESS:          0  HIT:          0  MISS:          0
L1I PREFETCH  REQUESTED:          0  ISSUED:          0  USEFUL:          0  USELESS:          0
L1I TOTAL MSHR MERGED:       1096
L1I LOAD MSHR MERGED:       1096
L1I RFO MSHR MERGED:          0
L1I PREFETCH MSHR MERGED:          0
L1I WRITEBACK MSHR MERGED:          0
L1I TOTAL ACCESSES:  121862630 HITS:  121860461 MISSES:       2169
L1I LOAD ACCESSES:  121862630 HITS:  121860461 MISSES:       2169
L1I RFO ACCESSES:          0 HITS:          0 MISSES:          0
L1I PREFETCH ACCESSES:          0 HITS:          0 MISSES:          0
L1I WRITEBACK ACCESSES:          0 HITS:          0 MISSES:          0
L1I RQ ACCESS:  500000000
L1I RQ TO_CACHE:  121862630
L1I RQ MERGED:  378137370
L1I RQ FORWARD:          0
L1I WQ ACCESS:          0
L1I WQ TO_CACHE:          0
L1I WQ MERGED:          0
L1I WQ FORWARD:          0
L2C TOTAL     ACCESS:   22487119  HIT:    9078605  MISS:   13408514
L2C LOAD      ACCESS:    3054873  HIT:     372704  MISS:    2682169
L2C RFO       ACCESS:      14409  HIT:      13992  MISS:        417
L2C PREFETCH  ACCESS:   12787909  HIT:    2063783  MISS:   10724126
L2C WRITEBACK ACCESS:    6629928  HIT:    6628126  MISS:       1802
L2C PREFETCH  REQUESTED:     574104  ISSUED:     574104  USEFUL:     152423  USELESS:   10572506
L2C TOTAL MSHR MERGED:      50674
L2C LOAD MSHR MERGED:      17555
L2C RFO MSHR MERGED:          0
L2C PREFETCH MSHR MERGED:      33119
L2C WRITEBACK MSHR MERGED:          0
L2C TOTAL ACCESSES:   22662163 HITS:    9078651 MISSES:   13583512
L2C LOAD ACCESSES:    3054904 HITS:     372735 MISSES:    2682169
L2C RFO ACCESSES:      14409 HITS:      13992 MISSES:        417
L2C PREFETCH ACCESSES:   12962922 HITS:    2063798 MISSES:   10899124
L2C WRITEBACK ACCESSES:    6629928 HITS:    6628126 MISSES:       1802
L2C RQ ACCESS:    3069313
L2C RQ TO_CACHE:    3069282
L2C RQ MERGED:          0
L2C RQ FORWARD:          0
L2C WQ ACCESS:    6629928
L2C WQ TO_CACHE:    6629928
L2C WQ MERGED:          0
L2C WQ FORWARD:         46
LLC TOTAL     ACCESS:   20104723  HIT:     859071  MISS:   19245652
LLC LOAD      ACCESS:    2664614  HIT:      61223  MISS:    2603391
LLC RFO       ACCESS:        417  HIT:          7  MISS:        410
LLC PREFETCH  ACCESS:   10848415  HIT:     142016  MISS:   10706399
LLC WRITEBACK ACCESS:    6591277  HIT:     655825  MISS:    5935452
LLC PREFETCH  REQUESTED:          0  ISSUED:          0  USEFUL:      50391  USELESS:   10664914
LLC TOTAL MSHR MERGED:      16466
LLC LOAD MSHR MERGED:       8625
LLC RFO MSHR MERGED:          0
LLC PREFETCH MSHR MERGED:       7841
LLC WRITEBACK MSHR MERGED:          0
LLC TOTAL ACCESSES:   20121192 HITS:     859073 MISSES:   19262119
LLC LOAD ACCESSES:    2664614 HITS:      61223 MISSES:    2603391
LLC RFO ACCESSES:        417 HITS:          7 MISSES:        410
LLC PREFETCH ACCESSES:   10864884 HITS:     142018 MISSES:   10722866
LLC WRITEBACK ACCESSES:    6591277 HITS:     655825 MISSES:    5935452
LLC 0 RQ ACCESS:    2665031
LLC 0 RQ TO_CACHE:    2665031
LLC 0 RQ MERGED:          0
LLC 0 RQ FORWARD:          0
LLC WQ ACCESS:    6591278
LLC WQ TO_CACHE:    6591278
LLC WQ MERGED:          0
LLC WQ FORWARD:          2
Major fault: 0 Minor fault: 183991
CPU 0 L1D next line prefetcher final stats
CPU 0 L2C PC-based stride prefetcher final stats
All Misses: 22139503
All Hits: 896262
SD Algo Stats - Switches: 15 SRR-Repls: 1311443 BRR-Repls: 1349359

DRAM Statistics
 CHANNEL 0
 RQ ROW_BUFFER_HIT:    7456585  ROW_BUFFER_MISS:    5853612
 DBUS_CONGESTED:   11920906
 WQ ROW_BUFFER_HIT:    2056355  ROW_BUFFER_MISS:    4532326  FULL:          0

 AVG_CONGESTED_CYCLE: 13
LOADS RETIRED: 204440772
INSTR RETIRED: 500000000
