
*** ChampSim Multicore Out-of-Order Simulator ***

Warmup Instructions: 100000000
Simulation Instructions: 500000000
Number of CPUs: 1
LLC sets: 2048
LLC ways: 16
Clean RRIP Policies: 1213230112132301 Dirty RRIP Policies: 2213031122130311 PSEL Width: 10 Track Set: 4294967295 PSEL Mask: 1 Demote Mask: 3340011033400110DS Algo: 0Window size: 0
Off-chip DRAM Size: 4096 MB Channels: 1 Width: 64-bit Data Rate: 1600 MT/s

CPU 0 runs /mnt/beegfs/iconst01/spec2017/cactuBSSN.trace.gz
NOT SORTED
TRACE STRING: /mnt/beegfs/iconst01/spec2017/cactuBSSN.trace.gz
SORTED
TRACE STRING: /mnt/beegfs/iconst01/spec2017/cactuBSSN.trace.gz
INITIAL
TRACE STRING: /mnt/beegfs/iconst01/spec2017/cactuBSSN.trace.gz

champsim_seed used: 838

CPU 0 L1D next line prefetcher
CPU 0 L2C IP-based stride prefetcher
Initialize DRRIP state
Assign rand_sets[0]: 454  LLC: 2048
rand_sets[0]: 454
Assign rand_sets[1]: 1662  LLC: 2048
rand_sets[1]: 1662
Assign rand_sets[2]: 1921  LLC: 2048
rand_sets[2]: 1921
Assign rand_sets[3]: 1131  LLC: 2048
rand_sets[3]: 1131
Assign rand_sets[4]: 331  LLC: 2048
rand_sets[4]: 331
Assign rand_sets[5]: 1531  LLC: 2048
rand_sets[5]: 1531
Assign rand_sets[6]: 482  LLC: 2048
rand_sets[6]: 482
Assign rand_sets[7]: 1275  LLC: 2048
rand_sets[7]: 1275
Assign rand_sets[8]: 1876  LLC: 2048
rand_sets[8]: 1876
Assign rand_sets[9]: 2038  LLC: 2048
rand_sets[9]: 2038
Assign rand_sets[10]: 701  LLC: 2048
rand_sets[10]: 701
Assign rand_sets[11]: 479  LLC: 2048
rand_sets[11]: 479
Assign rand_sets[12]: 892  LLC: 2048
rand_sets[12]: 892
Assign rand_sets[13]: 1820  LLC: 2048
rand_sets[13]: 1820
Assign rand_sets[14]: 1505  LLC: 2048
rand_sets[14]: 1505
Assign rand_sets[15]: 1159  LLC: 2048
rand_sets[15]: 1159
Assign rand_sets[16]: 513  LLC: 2048
rand_sets[16]: 513
Assign rand_sets[17]: 703  LLC: 2048
rand_sets[17]: 703
Assign rand_sets[18]: 561  LLC: 2048
rand_sets[18]: 561
Assign rand_sets[19]: 990  LLC: 2048
rand_sets[19]: 990
Assign rand_sets[20]: 342  LLC: 2048
rand_sets[20]: 342
Assign rand_sets[21]: 882  LLC: 2048
rand_sets[21]: 882
Assign rand_sets[22]: 15  LLC: 2048
rand_sets[22]: 15
Assign rand_sets[23]: 71  LLC: 2048
rand_sets[23]: 71
Assign rand_sets[24]: 1127  LLC: 2048
rand_sets[24]: 1127
Assign rand_sets[25]: 1382  LLC: 2048
rand_sets[25]: 1382
Assign rand_sets[26]: 647  LLC: 2048
rand_sets[26]: 647
Assign rand_sets[27]: 857  LLC: 2048
rand_sets[27]: 857
Assign rand_sets[28]: 1450  LLC: 2048
rand_sets[28]: 1450
Assign rand_sets[29]: 1160  LLC: 2048
rand_sets[29]: 1160
Assign rand_sets[30]: 1852  LLC: 2048
rand_sets[30]: 1852
Assign rand_sets[31]: 1881  LLC: 2048
rand_sets[31]: 1881
Assign rand_sets[32]: 1770  LLC: 2048
rand_sets[32]: 1770
Assign rand_sets[33]: 1622  LLC: 2048
rand_sets[33]: 1622
Assign rand_sets[34]: 275  LLC: 2048
rand_sets[34]: 275
Assign rand_sets[35]: 635  LLC: 2048
rand_sets[35]: 635
Assign rand_sets[36]: 466  LLC: 2048
rand_sets[36]: 466
Assign rand_sets[37]: 1413  LLC: 2048
rand_sets[37]: 1413
Assign rand_sets[38]: 417  LLC: 2048
rand_sets[38]: 417
Assign rand_sets[39]: 472  LLC: 2048
rand_sets[39]: 472
Assign rand_sets[40]: 1340  LLC: 2048
rand_sets[40]: 1340
Assign rand_sets[41]: 852  LLC: 2048
rand_sets[41]: 852
Assign rand_sets[42]: 1365  LLC: 2048
rand_sets[42]: 1365
Assign rand_sets[43]: 47  LLC: 2048
rand_sets[43]: 47
Assign rand_sets[44]: 823  LLC: 2048
rand_sets[44]: 823
Assign rand_sets[45]: 686  LLC: 2048
rand_sets[45]: 686
Assign rand_sets[46]: 1637  LLC: 2048
rand_sets[46]: 1637
Assign rand_sets[47]: 1115  LLC: 2048
rand_sets[47]: 1115
Assign rand_sets[48]: 986  LLC: 2048
rand_sets[48]: 986
Assign rand_sets[49]: 258  LLC: 2048
rand_sets[49]: 258
Assign rand_sets[50]: 633  LLC: 2048
rand_sets[50]: 633
Assign rand_sets[51]: 920  LLC: 2048
rand_sets[51]: 920
Assign rand_sets[52]: 204  LLC: 2048
rand_sets[52]: 204
Assign rand_sets[53]: 227  LLC: 2048
rand_sets[53]: 227
Assign rand_sets[54]: 1818  LLC: 2048
rand_sets[54]: 1818
Assign rand_sets[55]: 886  LLC: 2048
rand_sets[55]: 886
Assign rand_sets[56]: 1422  LLC: 2048
rand_sets[56]: 1422
Assign rand_sets[57]: 607  LLC: 2048
rand_sets[57]: 607
Assign rand_sets[58]: 217  LLC: 2048
rand_sets[58]: 217
Assign rand_sets[59]: 1945  LLC: 2048
rand_sets[59]: 1945
Assign rand_sets[60]: 143  LLC: 2048
rand_sets[60]: 143
Assign rand_sets[61]: 1311  LLC: 2048
rand_sets[61]: 1311
Assign rand_sets[62]: 319  LLC: 2048
rand_sets[62]: 319
Assign rand_sets[63]: 1846  LLC: 2048
rand_sets[63]: 1846
 CLEAN-RRIP-POLICY-1: 1-2-1-3-2-3-0-1- CLEAN-RRIP-POLICY-2: 1-2-1-3-2-3-0-1-
 DIRTY-RRIP-POLICY-1: 2-2-1-3-0-3-1-1- DIRTY-RRIP-POLICY-2: 2-2-1-3-0-3-1-1-
 PSEL width: 10
Heartbeat CPU 0 instructions: 10000000 cycles: 6588002 heartbeat IPC: 1.51791 cumulative IPC: 1.51791 (Simulation time: 0 hr 0 min 24 sec) 
Heartbeat CPU 0 instructions: 20000000 cycles: 13179595 heartbeat IPC: 1.51708 cumulative IPC: 1.5175 (Simulation time: 0 hr 0 min 48 sec) 
Heartbeat CPU 0 instructions: 30000003 cycles: 19772914 heartbeat IPC: 1.51669 cumulative IPC: 1.51723 (Simulation time: 0 hr 1 min 13 sec) 
Heartbeat CPU 0 instructions: 40000000 cycles: 26364658 heartbeat IPC: 1.51705 cumulative IPC: 1.51718 (Simulation time: 0 hr 1 min 37 sec) 
Heartbeat CPU 0 instructions: 50000001 cycles: 32957329 heartbeat IPC: 1.51684 cumulative IPC: 1.51711 (Simulation time: 0 hr 2 min 1 sec) 
Heartbeat CPU 0 instructions: 60000000 cycles: 39556117 heartbeat IPC: 1.51543 cumulative IPC: 1.51683 (Simulation time: 0 hr 2 min 26 sec) 
Heartbeat CPU 0 instructions: 70000003 cycles: 46154486 heartbeat IPC: 1.51553 cumulative IPC: 1.51665 (Simulation time: 0 hr 2 min 50 sec) 
Heartbeat CPU 0 instructions: 80000000 cycles: 52752533 heartbeat IPC: 1.5156 cumulative IPC: 1.51651 (Simulation time: 0 hr 3 min 14 sec) 
Heartbeat CPU 0 instructions: 90000002 cycles: 59348179 heartbeat IPC: 1.51615 cumulative IPC: 1.51647 (Simulation time: 0 hr 3 min 38 sec) 
Heartbeat CPU 0 instructions: 100000000 cycles: 65943225 heartbeat IPC: 1.51629 cumulative IPC: 1.51646 (Simulation time: 0 hr 4 min 3 sec) 

Warmup complete CPU 0 instructions: 100000002 cycles: 65943226 (Simulation time: 0 hr 4 min 3 sec) 

Heartbeat CPU 0 instructions: 110000000 cycles: 79180392 heartbeat IPC: 0.755449 cumulative IPC: 0.755449 (Simulation time: 0 hr 4 min 32 sec) 
Heartbeat CPU 0 instructions: 120000000 cycles: 92376858 heartbeat IPC: 0.757779 cumulative IPC: 0.756612 (Simulation time: 0 hr 5 min 2 sec) 
Heartbeat CPU 0 instructions: 130000001 cycles: 105641342 heartbeat IPC: 0.753893 cumulative IPC: 0.755703 (Simulation time: 0 hr 5 min 32 sec) 
Heartbeat CPU 0 instructions: 140000000 cycles: 118807905 heartbeat IPC: 0.7595 cumulative IPC: 0.756649 (Simulation time: 0 hr 6 min 1 sec) 
Heartbeat CPU 0 instructions: 150000001 cycles: 131993908 heartbeat IPC: 0.75838 cumulative IPC: 0.756994 (Simulation time: 0 hr 6 min 31 sec) 
Heartbeat CPU 0 instructions: 160000000 cycles: 145220533 heartbeat IPC: 0.756051 cumulative IPC: 0.756837 (Simulation time: 0 hr 7 min 1 sec) 
Heartbeat CPU 0 instructions: 170000000 cycles: 158429628 heartbeat IPC: 0.757054 cumulative IPC: 0.756868 (Simulation time: 0 hr 7 min 31 sec) 
Heartbeat CPU 0 instructions: 180000000 cycles: 171625710 heartbeat IPC: 0.757801 cumulative IPC: 0.756984 (Simulation time: 0 hr 8 min 0 sec) 
Heartbeat CPU 0 instructions: 190000000 cycles: 184784843 heartbeat IPC: 0.759928 cumulative IPC: 0.75731 (Simulation time: 0 hr 8 min 30 sec) 
Heartbeat CPU 0 instructions: 200000000 cycles: 198029613 heartbeat IPC: 0.755015 cumulative IPC: 0.75708 (Simulation time: 0 hr 9 min 0 sec) 
Heartbeat CPU 0 instructions: 210000002 cycles: 211233059 heartbeat IPC: 0.757378 cumulative IPC: 0.757107 (Simulation time: 0 hr 9 min 29 sec) 
Heartbeat CPU 0 instructions: 220000000 cycles: 224403815 heartbeat IPC: 0.759258 cumulative IPC: 0.757286 (Simulation time: 0 hr 9 min 59 sec) 
Heartbeat CPU 0 instructions: 230000003 cycles: 237640594 heartbeat IPC: 0.755471 cumulative IPC: 0.757146 (Simulation time: 0 hr 10 min 29 sec) 
Heartbeat CPU 0 instructions: 240000000 cycles: 250825552 heartbeat IPC: 0.75844 cumulative IPC: 0.757238 (Simulation time: 0 hr 10 min 58 sec) 
Heartbeat CPU 0 instructions: 250000001 cycles: 264041914 heartbeat IPC: 0.756638 cumulative IPC: 0.757198 (Simulation time: 0 hr 11 min 28 sec) 
Heartbeat CPU 0 instructions: 260000000 cycles: 277248783 heartbeat IPC: 0.757182 cumulative IPC: 0.757197 (Simulation time: 0 hr 11 min 58 sec) 
Heartbeat CPU 0 instructions: 270000003 cycles: 290484738 heartbeat IPC: 0.755518 cumulative IPC: 0.757098 (Simulation time: 0 hr 12 min 27 sec) 
Heartbeat CPU 0 instructions: 280000000 cycles: 303681226 heartbeat IPC: 0.757777 cumulative IPC: 0.757136 (Simulation time: 0 hr 12 min 57 sec) 
Heartbeat CPU 0 instructions: 290000000 cycles: 316844495 heartbeat IPC: 0.75969 cumulative IPC: 0.75727 (Simulation time: 0 hr 13 min 27 sec) 
Heartbeat CPU 0 instructions: 300000000 cycles: 330084536 heartbeat IPC: 0.755285 cumulative IPC: 0.75717 (Simulation time: 0 hr 13 min 56 sec) 
Heartbeat CPU 0 instructions: 310000001 cycles: 343249533 heartbeat IPC: 0.75959 cumulative IPC: 0.757285 (Simulation time: 0 hr 14 min 26 sec) 
Heartbeat CPU 0 instructions: 320000000 cycles: 356437966 heartbeat IPC: 0.75824 cumulative IPC: 0.757329 (Simulation time: 0 hr 14 min 56 sec) 
Heartbeat CPU 0 instructions: 330000002 cycles: 369628354 heartbeat IPC: 0.758128 cumulative IPC: 0.757363 (Simulation time: 0 hr 15 min 25 sec) 
Heartbeat CPU 0 instructions: 340000000 cycles: 382854519 heartbeat IPC: 0.756077 cumulative IPC: 0.75731 (Simulation time: 0 hr 15 min 55 sec) 
Heartbeat CPU 0 instructions: 350000000 cycles: 396101689 heartbeat IPC: 0.754878 cumulative IPC: 0.757212 (Simulation time: 0 hr 16 min 25 sec) 
Heartbeat CPU 0 instructions: 360000000 cycles: 409317345 heartbeat IPC: 0.756678 cumulative IPC: 0.757192 (Simulation time: 0 hr 16 min 54 sec) 
Heartbeat CPU 0 instructions: 370000002 cycles: 422582094 heartbeat IPC: 0.753878 cumulative IPC: 0.757068 (Simulation time: 0 hr 17 min 24 sec) 
Heartbeat CPU 0 instructions: 380000000 cycles: 435782776 heartbeat IPC: 0.757536 cumulative IPC: 0.757085 (Simulation time: 0 hr 17 min 54 sec) 
Heartbeat CPU 0 instructions: 390000000 cycles: 448952204 heartbeat IPC: 0.759334 cumulative IPC: 0.757162 (Simulation time: 0 hr 18 min 23 sec) 
Heartbeat CPU 0 instructions: 400000000 cycles: 462146720 heartbeat IPC: 0.757891 cumulative IPC: 0.757187 (Simulation time: 0 hr 18 min 53 sec) 
Heartbeat CPU 0 instructions: 410000001 cycles: 475390659 heartbeat IPC: 0.755062 cumulative IPC: 0.757118 (Simulation time: 0 hr 19 min 23 sec) 
Heartbeat CPU 0 instructions: 420000000 cycles: 488567508 heartbeat IPC: 0.758907 cumulative IPC: 0.757174 (Simulation time: 0 hr 19 min 52 sec) 
Heartbeat CPU 0 instructions: 430000001 cycles: 501750742 heartbeat IPC: 0.758539 cumulative IPC: 0.757215 (Simulation time: 0 hr 20 min 22 sec) 
Heartbeat CPU 0 instructions: 440000000 cycles: 514921220 heartbeat IPC: 0.759274 cumulative IPC: 0.757275 (Simulation time: 0 hr 20 min 51 sec) 
Heartbeat CPU 0 instructions: 450000002 cycles: 528217334 heartbeat IPC: 0.7521 cumulative IPC: 0.757127 (Simulation time: 0 hr 21 min 21 sec) 
Heartbeat CPU 0 instructions: 460000000 cycles: 541436296 heartbeat IPC: 0.756489 cumulative IPC: 0.757109 (Simulation time: 0 hr 21 min 51 sec) 
Heartbeat CPU 0 instructions: 470000003 cycles: 554626438 heartbeat IPC: 0.758142 cumulative IPC: 0.757137 (Simulation time: 0 hr 22 min 20 sec) 
Heartbeat CPU 0 instructions: 480000000 cycles: 567854435 heartbeat IPC: 0.755972 cumulative IPC: 0.757106 (Simulation time: 0 hr 22 min 50 sec) 
Heartbeat CPU 0 instructions: 490000000 cycles: 581056381 heartbeat IPC: 0.757464 cumulative IPC: 0.757115 (Simulation time: 0 hr 23 min 20 sec) 
Heartbeat CPU 0 instructions: 500000000 cycles: 594247330 heartbeat IPC: 0.758096 cumulative IPC: 0.75714 (Simulation time: 0 hr 23 min 49 sec) 
Heartbeat CPU 0 instructions: 510000001 cycles: 607419421 heartbeat IPC: 0.759181 cumulative IPC: 0.757189 (Simulation time: 0 hr 24 min 19 sec) 
Heartbeat CPU 0 instructions: 520000000 cycles: 620693101 heartbeat IPC: 0.753371 cumulative IPC: 0.757098 (Simulation time: 0 hr 24 min 48 sec) 
Heartbeat CPU 0 instructions: 530000000 cycles: 633928284 heartbeat IPC: 0.755562 cumulative IPC: 0.757062 (Simulation time: 0 hr 25 min 18 sec) 
Heartbeat CPU 0 instructions: 540000000 cycles: 647149361 heartbeat IPC: 0.756368 cumulative IPC: 0.757046 (Simulation time: 0 hr 25 min 48 sec) 
Heartbeat CPU 0 instructions: 550000002 cycles: 660401388 heartbeat IPC: 0.754602 cumulative IPC: 0.756992 (Simulation time: 0 hr 26 min 17 sec) 
Heartbeat CPU 0 instructions: 560000000 cycles: 673584871 heartbeat IPC: 0.758525 cumulative IPC: 0.757025 (Simulation time: 0 hr 26 min 47 sec) 
Heartbeat CPU 0 instructions: 570000001 cycles: 686786407 heartbeat IPC: 0.757488 cumulative IPC: 0.757035 (Simulation time: 0 hr 27 min 17 sec) 
Heartbeat CPU 0 instructions: 580000000 cycles: 699986612 heartbeat IPC: 0.757564 cumulative IPC: 0.757046 (Simulation time: 0 hr 27 min 46 sec) 
Heartbeat CPU 0 instructions: 590000003 cycles: 713214674 heartbeat IPC: 0.755969 cumulative IPC: 0.757024 (Simulation time: 0 hr 28 min 16 sec) 
Heartbeat CPU 0 instructions: 600000000 cycles: 726462170 heartbeat IPC: 0.754859 cumulative IPC: 0.756981 (Simulation time: 0 hr 28 min 45 sec) 
Finished CPU 0 instructions: 500000000 cycles: 660518954 cumulative IPC: 0.756981 (Simulation time: 0 hr 28 min 45 sec) 

CPU 0 Branch Prediction Accuracy: 99.968% MPKI: 0.002246
Number of Branches: 3513331 Number of Mispredictions: 1123
Number of LOAD Instructions: 287251172
Number of LOAD Instructions (ROI): 287251172
Number of STORE Instructions: 51060820
Number of STORE Instructions (ROI): 51060820
Total Destination Memory Operands: 51166221
Total Destination Memory Operands (ROI): 51166221
Total Source Memory Operands: 287251172
Total Source Memory Operands (ROI): 287251172
Number of DEPENDED LOADS: 9555473
Number of DEPENDED LOADS (ROI): 9555473
Number of SQ_ADDED: 51166208
Number of SQ_ADDED (ROI): 51166208
Number of LQ_ADDED: 290420128
Number of LQ_ADDED (ROI): 290420128
Number of Instructions read from trace: 600000257

ChampSim completed all CPUs

Region of Interest Statistics

CPU 0 cumulative IPC: 0.756981 instructions: 500000000 cycles: 660518954
ITLB TOTAL     ACCESS:  108949337  HIT:  108949337  MISS:          0
ITLB LOAD      ACCESS:  108949337  HIT:  108949337  MISS:          0
ITLB RFO       ACCESS:          0  HIT:          0  MISS:          0
ITLB PREFETCH  ACCESS:          0  HIT:          0  MISS:          0
ITLB WRITEBACK ACCESS:          0  HIT:          0  MISS:          0
ITLB PREFETCH  REQUESTED:          0  ISSUED:          0  USEFUL:          0  USELESS:          0
ITLB TOTAL MSHR MERGED:          0
ITLB LOAD MSHR MERGED:          0
ITLB RFO MSHR MERGED:          0
ITLB PREFETCH MSHR MERGED:          0
ITLB WRITEBACK MSHR MERGED:          0
ITLB TOTAL ACCESSES:  108949337 HITS:  108949337 MISSES:          0
ITLB LOAD ACCESSES:  108949337 HITS:  108949337 MISSES:          0
ITLB RFO ACCESSES:          0 HITS:          0 MISSES:          0
ITLB PREFETCH ACCESSES:          0 HITS:          0 MISSES:          0
ITLB WRITEBACK ACCESSES:          0 HITS:          0 MISSES:          0
ITLB RQ ACCESS:  500000001
ITLB RQ TO_CACHE:  108949337
ITLB RQ MERGED:  391050664
ITLB RQ FORWARD:          0
ITLB WQ ACCESS:          0
ITLB WQ TO_CACHE:          0
ITLB WQ MERGED:          0
ITLB WQ FORWARD:          0
DTLB TOTAL     ACCESS:  171131146  HIT:  161114837  MISS:   10016309
DTLB LOAD      ACCESS:  143472034  HIT:  135595975  MISS:    7876059
DTLB RFO       ACCESS:   27659112  HIT:   25518862  MISS:    2140250
DTLB PREFETCH  ACCESS:          0  HIT:          0  MISS:          0
DTLB WRITEBACK ACCESS:          0  HIT:          0  MISS:          0
DTLB PREFETCH  REQUESTED:          0  ISSUED:          0  USEFUL:          0  USELESS:          0
DTLB TOTAL MSHR MERGED:     360450
DTLB LOAD MSHR MERGED:     360450
DTLB RFO MSHR MERGED:          0
DTLB PREFETCH MSHR MERGED:          0
DTLB WRITEBACK MSHR MERGED:          0
DTLB TOTAL ACCESSES:  171491596 HITS:  161114837 MISSES:   10376759
DTLB LOAD ACCESSES:  143832484 HITS:  135595975 MISSES:    8236509
DTLB RFO ACCESSES:   27659112 HITS:   25518862 MISSES:    2140250
DTLB PREFETCH ACCESSES:          0 HITS:          0 MISSES:          0
DTLB WRITEBACK ACCESSES:          0 HITS:          0 MISSES:          0
DTLB RQ ACCESS:  274072345
DTLB RQ TO_CACHE:  171491596
DTLB RQ MERGED:  102580749
DTLB RQ FORWARD:          0
DTLB WQ ACCESS:          0
DTLB WQ TO_CACHE:          0
DTLB WQ MERGED:          0
DTLB WQ FORWARD:          0
L1D TOTAL     ACCESS:  350956905  HIT:  283757592  MISS:   67199313
L1D LOAD      ACCESS:  175627242  HIT:  142588095  MISS:   33039147
L1D RFO       ACCESS:   42020228  HIT:   39214721  MISS:    2805507
L1D PREFETCH  ACCESS:  133309435  HIT:  101954776  MISS:   31354659
L1D WRITEBACK ACCESS:          0  HIT:          0  MISS:          0
L1D PREFETCH  REQUESTED:  176231214  ISSUED:  175292947  USEFUL:    2180673  USELESS:   29173988
L1D TOTAL MSHR MERGED:    1482547
L1D LOAD MSHR MERGED:     703912
L1D RFO MSHR MERGED:     348881
L1D PREFETCH MSHR MERGED:     429754
L1D WRITEBACK MSHR MERGED:          0
L1D TOTAL ACCESSES:  352551685 HITS:  283869825 MISSES:   68681860
L1D LOAD ACCESSES:  176237523 HITS:  142594404 MISSES:   33643119
L1D RFO ACCESSES:   42368438 HITS:   39214721 MISSES:    3153717
L1D PREFETCH ACCESSES:  133945724 HITS:  102060700 MISSES:   31885024
L1D WRITEBACK ACCESSES:          0 HITS:          0 MISSES:          0
L1D RQ ACCESS:  231433872
L1D RQ TO_CACHE:  176231214
L1D RQ MERGED:   55196349
L1D RQ FORWARD:          0
L1D WQ ACCESS:   42638475
L1D WQ TO_CACHE:   42368438
L1D WQ MERGED:     270037
L1D WQ FORWARD:     112233
L1I TOTAL     ACCESS:  109342844  HIT:   77827140  MISS:   31515704
L1I LOAD      ACCESS:  109342844  HIT:   77827140  MISS:   31515704
L1I RFO       ACCESS:          0  HIT:          0  MISS:          0
L1I PREFETCH  ACCESS:          0  HIT:          0  MISS:          0
L1I WRITEBACK ACCESS:          0  HIT:          0  MISS:          0
L1I PREFETCH  REQUESTED:          0  ISSUED:          0  USEFUL:          0  USELESS:          0
L1I TOTAL MSHR MERGED:   30750805
L1I LOAD MSHR MERGED:   30750805
L1I RFO MSHR MERGED:          0
L1I PREFETCH MSHR MERGED:          0
L1I WRITEBACK MSHR MERGED:          0
L1I TOTAL ACCESSES:  140093651 HITS:   77827140 MISSES:   62266511
L1I LOAD ACCESSES:  140093651 HITS:   77827140 MISSES:   62266511
L1I RFO ACCESSES:          0 HITS:          0 MISSES:          0
L1I PREFETCH ACCESSES:          0 HITS:          0 MISSES:          0
L1I WRITEBACK ACCESSES:          0 HITS:          0 MISSES:          0
L1I RQ ACCESS:  500000003
L1I RQ TO_CACHE:  140093651
L1I RQ MERGED:  359906352
L1I RQ FORWARD:          0
L1I WQ ACCESS:          0
L1I WQ TO_CACHE:          0
L1I WQ MERGED:          0
L1I WQ FORWARD:          0
L2C TOTAL     ACCESS:  113701866  HIT:  110699567  MISS:    3002299
L2C LOAD      ACCESS:   64453041  HIT:   63892383  MISS:     560658
L2C RFO       ACCESS:    2802932  HIT:    2193624  MISS:     609308
L2C PREFETCH  ACCESS:   43284938  HIT:   41458879  MISS:    1826059
L2C WRITEBACK ACCESS:    3160955  HIT:    3154681  MISS:       6274
L2C PREFETCH  REQUESTED:   15134529  ISSUED:   14619869  USEFUL:    1701048  USELESS:     125015
L2C TOTAL MSHR MERGED:      12697
L2C LOAD MSHR MERGED:          0
L2C RFO MSHR MERGED:          0
L2C PREFETCH MSHR MERGED:      12697
L2C WRITEBACK MSHR MERGED:          0
L2C TOTAL ACCESSES:  113902455 HITS:  110705451 MISSES:    3197004
L2C LOAD ACCESSES:   64454912 HITS:   63894253 MISSES:     560659
L2C RFO ACCESSES:    2804836 HITS:    2195528 MISSES:     609308
L2C PREFETCH ACCESSES:   43481752 HITS:   41460989 MISSES:    2020763
L2C WRITEBACK ACCESSES:    3160955 HITS:    3154681 MISSES:       6274
L2C RQ ACCESS:   67259749
L2C RQ TO_CACHE:   67255975
L2C RQ MERGED:          0
L2C RQ FORWARD:          0
L2C WQ ACCESS:    3160955
L2C WQ TO_CACHE:    3160955
L2C WQ MERGED:          0
L2C WQ FORWARD:       5884
LLC TOTAL     ACCESS:    3709423  HIT:    1867848  MISS:    1841575
LLC LOAD      ACCESS:     560628  HIT:     498801  MISS:      61827
LLC RFO       ACCESS:     527396  HIT:     238406  MISS:     288990
LLC PREFETCH  ACCESS:    2003074  HIT:     667198  MISS:    1335876
LLC WRITEBACK ACCESS:     618325  HIT:     463443  MISS:     154882
LLC PREFETCH  REQUESTED:          0  ISSUED:          0  USEFUL:      44110  USELESS:    1283616
LLC TOTAL MSHR MERGED:       4329
LLC LOAD MSHR MERGED:          0
LLC RFO MSHR MERGED:          0
LLC PREFETCH MSHR MERGED:       4329
LLC WRITEBACK MSHR MERGED:          0
LLC TOTAL ACCESSES:    3795778 HITS:    1949874 MISSES:    1845904
LLC LOAD ACCESSES:     560658 HITS:     498831 MISSES:      61827
LLC RFO ACCESSES:     609308 HITS:     320318 MISSES:     288990
LLC PREFETCH ACCESSES:    2007487 HITS:     667282 MISSES:    1340205
LLC WRITEBACK ACCESSES:     618325 HITS:     463443 MISSES:     154882
LLC 0 RQ ACCESS:    1169967
LLC 0 RQ TO_CACHE:    1088025
LLC 0 RQ MERGED:          0
LLC 0 RQ FORWARD:          0
LLC WQ ACCESS:     618325
LLC WQ TO_CACHE:     618325
LLC WQ MERGED:          0
LLC WQ FORWARD:      82026
Major fault: 0 Minor fault: 12800
CPU 0 L1D next line prefetcher final stats
CPU 0 L2C PC-based stride prefetcher final stats
All Misses: 2236323
All Hits: 2324047
SD Algo Stats - Switches: 0 SRR-Repls: 79041 BRR-Repls: 0

DRAM Statistics
 CHANNEL 0
 RQ ROW_BUFFER_HIT:     834131  ROW_BUFFER_MISS:     851699
 DBUS_CONGESTED:     900453
 WQ ROW_BUFFER_HIT:      42622  ROW_BUFFER_MISS:     258883  FULL:          0

 AVG_CONGESTED_CYCLE: 13
LOADS RETIRED: 239375970
INSTR RETIRED: 500000000
