
*** ChampSim Multicore Out-of-Order Simulator ***

Warmup Instructions: 100000000
Simulation Instructions: 500000000
Number of CPUs: 1
LLC sets: 2048
LLC ways: 16
Clean RRIP Policies: 1013232010132320 Dirty RRIP Policies: 2013030020130300 PSEL Width: 10 Track Set: 4294967295 PSEL Mask: 1 Demote Mask: 4340424143404241DS Algo: 0Window size: 0
Off-chip DRAM Size: 4096 MB Channels: 1 Width: 64-bit Data Rate: 1600 MT/s

CPU 0 runs /mnt/beegfs/iconst01/spec2017/Omnetpp.trace.gz
NOT SORTED
TRACE STRING: /mnt/beegfs/iconst01/spec2017/Omnetpp.trace.gz
SORTED
TRACE STRING: /mnt/beegfs/iconst01/spec2017/Omnetpp.trace.gz
INITIAL
TRACE STRING: /mnt/beegfs/iconst01/spec2017/Omnetpp.trace.gz

champsim_seed used: 739

CPU 0 L1D next line prefetcher
CPU 0 L2C IP-based stride prefetcher
Initialize DRRIP state
Assign rand_sets[0]: 454  LLC: 2048
rand_sets[0]: 454
Assign rand_sets[1]: 1662  LLC: 2048
rand_sets[1]: 1662
Assign rand_sets[2]: 1921  LLC: 2048
rand_sets[2]: 1921
Assign rand_sets[3]: 1131  LLC: 2048
rand_sets[3]: 1131
Assign rand_sets[4]: 331  LLC: 2048
rand_sets[4]: 331
Assign rand_sets[5]: 1531  LLC: 2048
rand_sets[5]: 1531
Assign rand_sets[6]: 482  LLC: 2048
rand_sets[6]: 482
Assign rand_sets[7]: 1275  LLC: 2048
rand_sets[7]: 1275
Assign rand_sets[8]: 1876  LLC: 2048
rand_sets[8]: 1876
Assign rand_sets[9]: 2038  LLC: 2048
rand_sets[9]: 2038
Assign rand_sets[10]: 701  LLC: 2048
rand_sets[10]: 701
Assign rand_sets[11]: 479  LLC: 2048
rand_sets[11]: 479
Assign rand_sets[12]: 892  LLC: 2048
rand_sets[12]: 892
Assign rand_sets[13]: 1820  LLC: 2048
rand_sets[13]: 1820
Assign rand_sets[14]: 1505  LLC: 2048
rand_sets[14]: 1505
Assign rand_sets[15]: 1159  LLC: 2048
rand_sets[15]: 1159
Assign rand_sets[16]: 513  LLC: 2048
rand_sets[16]: 513
Assign rand_sets[17]: 703  LLC: 2048
rand_sets[17]: 703
Assign rand_sets[18]: 561  LLC: 2048
rand_sets[18]: 561
Assign rand_sets[19]: 990  LLC: 2048
rand_sets[19]: 990
Assign rand_sets[20]: 342  LLC: 2048
rand_sets[20]: 342
Assign rand_sets[21]: 882  LLC: 2048
rand_sets[21]: 882
Assign rand_sets[22]: 15  LLC: 2048
rand_sets[22]: 15
Assign rand_sets[23]: 71  LLC: 2048
rand_sets[23]: 71
Assign rand_sets[24]: 1127  LLC: 2048
rand_sets[24]: 1127
Assign rand_sets[25]: 1382  LLC: 2048
rand_sets[25]: 1382
Assign rand_sets[26]: 647  LLC: 2048
rand_sets[26]: 647
Assign rand_sets[27]: 857  LLC: 2048
rand_sets[27]: 857
Assign rand_sets[28]: 1450  LLC: 2048
rand_sets[28]: 1450
Assign rand_sets[29]: 1160  LLC: 2048
rand_sets[29]: 1160
Assign rand_sets[30]: 1852  LLC: 2048
rand_sets[30]: 1852
Assign rand_sets[31]: 1881  LLC: 2048
rand_sets[31]: 1881
Assign rand_sets[32]: 1770  LLC: 2048
rand_sets[32]: 1770
Assign rand_sets[33]: 1622  LLC: 2048
rand_sets[33]: 1622
Assign rand_sets[34]: 275  LLC: 2048
rand_sets[34]: 275
Assign rand_sets[35]: 635  LLC: 2048
rand_sets[35]: 635
Assign rand_sets[36]: 466  LLC: 2048
rand_sets[36]: 466
Assign rand_sets[37]: 1413  LLC: 2048
rand_sets[37]: 1413
Assign rand_sets[38]: 417  LLC: 2048
rand_sets[38]: 417
Assign rand_sets[39]: 472  LLC: 2048
rand_sets[39]: 472
Assign rand_sets[40]: 1340  LLC: 2048
rand_sets[40]: 1340
Assign rand_sets[41]: 852  LLC: 2048
rand_sets[41]: 852
Assign rand_sets[42]: 1365  LLC: 2048
rand_sets[42]: 1365
Assign rand_sets[43]: 47  LLC: 2048
rand_sets[43]: 47
Assign rand_sets[44]: 823  LLC: 2048
rand_sets[44]: 823
Assign rand_sets[45]: 686  LLC: 2048
rand_sets[45]: 686
Assign rand_sets[46]: 1637  LLC: 2048
rand_sets[46]: 1637
Assign rand_sets[47]: 1115  LLC: 2048
rand_sets[47]: 1115
Assign rand_sets[48]: 986  LLC: 2048
rand_sets[48]: 986
Assign rand_sets[49]: 258  LLC: 2048
rand_sets[49]: 258
Assign rand_sets[50]: 633  LLC: 2048
rand_sets[50]: 633
Assign rand_sets[51]: 920  LLC: 2048
rand_sets[51]: 920
Assign rand_sets[52]: 204  LLC: 2048
rand_sets[52]: 204
Assign rand_sets[53]: 227  LLC: 2048
rand_sets[53]: 227
Assign rand_sets[54]: 1818  LLC: 2048
rand_sets[54]: 1818
Assign rand_sets[55]: 886  LLC: 2048
rand_sets[55]: 886
Assign rand_sets[56]: 1422  LLC: 2048
rand_sets[56]: 1422
Assign rand_sets[57]: 607  LLC: 2048
rand_sets[57]: 607
Assign rand_sets[58]: 217  LLC: 2048
rand_sets[58]: 217
Assign rand_sets[59]: 1945  LLC: 2048
rand_sets[59]: 1945
Assign rand_sets[60]: 143  LLC: 2048
rand_sets[60]: 143
Assign rand_sets[61]: 1311  LLC: 2048
rand_sets[61]: 1311
Assign rand_sets[62]: 319  LLC: 2048
rand_sets[62]: 319
Assign rand_sets[63]: 1846  LLC: 2048
rand_sets[63]: 1846
 CLEAN-RRIP-POLICY-1: 1-0-1-3-2-3-2-0- CLEAN-RRIP-POLICY-2: 1-0-1-3-2-3-2-0-
 DIRTY-RRIP-POLICY-1: 2-0-1-3-0-3-0-0- DIRTY-RRIP-POLICY-2: 2-0-1-3-0-3-0-0-
 PSEL width: 10
Heartbeat CPU 0 instructions: 10000000 cycles: 7320923 heartbeat IPC: 1.36595 cumulative IPC: 1.36595 (Simulation time: 0 hr 0 min 20 sec) 
Heartbeat CPU 0 instructions: 20000000 cycles: 14627190 heartbeat IPC: 1.36869 cumulative IPC: 1.36732 (Simulation time: 0 hr 0 min 39 sec) 
Heartbeat CPU 0 instructions: 30000003 cycles: 21931564 heartbeat IPC: 1.36904 cumulative IPC: 1.36789 (Simulation time: 0 hr 0 min 59 sec) 
Heartbeat CPU 0 instructions: 40000000 cycles: 29223071 heartbeat IPC: 1.37146 cumulative IPC: 1.36878 (Simulation time: 0 hr 1 min 19 sec) 
Heartbeat CPU 0 instructions: 50000000 cycles: 36502986 heartbeat IPC: 1.37364 cumulative IPC: 1.36975 (Simulation time: 0 hr 1 min 39 sec) 
Heartbeat CPU 0 instructions: 60000000 cycles: 43786685 heartbeat IPC: 1.37293 cumulative IPC: 1.37028 (Simulation time: 0 hr 1 min 59 sec) 
Heartbeat CPU 0 instructions: 70000001 cycles: 51075666 heartbeat IPC: 1.37193 cumulative IPC: 1.37052 (Simulation time: 0 hr 2 min 19 sec) 
Heartbeat CPU 0 instructions: 80000000 cycles: 58354378 heartbeat IPC: 1.37387 cumulative IPC: 1.37093 (Simulation time: 0 hr 2 min 39 sec) 
Heartbeat CPU 0 instructions: 90000000 cycles: 65663675 heartbeat IPC: 1.36812 cumulative IPC: 1.37062 (Simulation time: 0 hr 2 min 59 sec) 
Heartbeat CPU 0 instructions: 100000000 cycles: 72959134 heartbeat IPC: 1.37072 cumulative IPC: 1.37063 (Simulation time: 0 hr 3 min 19 sec) 

Warmup complete CPU 0 instructions: 100000002 cycles: 72959135 (Simulation time: 0 hr 3 min 19 sec) 

Heartbeat CPU 0 instructions: 110000002 cycles: 114609100 heartbeat IPC: 0.240096 cumulative IPC: 0.240096 (Simulation time: 0 hr 4 min 0 sec) 
Heartbeat CPU 0 instructions: 120000000 cycles: 156033298 heartbeat IPC: 0.241405 cumulative IPC: 0.240749 (Simulation time: 0 hr 4 min 41 sec) 
Heartbeat CPU 0 instructions: 130000002 cycles: 197574117 heartbeat IPC: 0.240727 cumulative IPC: 0.240742 (Simulation time: 0 hr 5 min 21 sec) 
Heartbeat CPU 0 instructions: 140000000 cycles: 239350140 heartbeat IPC: 0.239372 cumulative IPC: 0.240398 (Simulation time: 0 hr 6 min 2 sec) 
Heartbeat CPU 0 instructions: 150000002 cycles: 280691452 heartbeat IPC: 0.241889 cumulative IPC: 0.240694 (Simulation time: 0 hr 6 min 43 sec) 
Heartbeat CPU 0 instructions: 160000000 cycles: 321956251 heartbeat IPC: 0.242337 cumulative IPC: 0.240967 (Simulation time: 0 hr 7 min 24 sec) 
Heartbeat CPU 0 instructions: 170000001 cycles: 362340383 heartbeat IPC: 0.247622 cumulative IPC: 0.241895 (Simulation time: 0 hr 8 min 4 sec) 
Heartbeat CPU 0 instructions: 180000000 cycles: 403595503 heartbeat IPC: 0.242394 cumulative IPC: 0.241958 (Simulation time: 0 hr 8 min 45 sec) 
Heartbeat CPU 0 instructions: 190000002 cycles: 444845745 heartbeat IPC: 0.242423 cumulative IPC: 0.242009 (Simulation time: 0 hr 9 min 25 sec) 
Heartbeat CPU 0 instructions: 200000000 cycles: 487430357 heartbeat IPC: 0.234827 cumulative IPC: 0.241271 (Simulation time: 0 hr 10 min 6 sec) 
Heartbeat CPU 0 instructions: 210000003 cycles: 528706487 heartbeat IPC: 0.242271 cumulative IPC: 0.241362 (Simulation time: 0 hr 10 min 47 sec) 
Heartbeat CPU 0 instructions: 220000000 cycles: 570342873 heartbeat IPC: 0.240174 cumulative IPC: 0.241262 (Simulation time: 0 hr 11 min 28 sec) 
Heartbeat CPU 0 instructions: 230000000 cycles: 611825047 heartbeat IPC: 0.241067 cumulative IPC: 0.241247 (Simulation time: 0 hr 12 min 9 sec) 
Heartbeat CPU 0 instructions: 240000000 cycles: 652989721 heartbeat IPC: 0.242927 cumulative IPC: 0.241367 (Simulation time: 0 hr 12 min 48 sec) 
Heartbeat CPU 0 instructions: 250000000 cycles: 694260258 heartbeat IPC: 0.242304 cumulative IPC: 0.241429 (Simulation time: 0 hr 13 min 28 sec) 
Heartbeat CPU 0 instructions: 260000000 cycles: 735708478 heartbeat IPC: 0.241265 cumulative IPC: 0.241419 (Simulation time: 0 hr 14 min 8 sec) 
Heartbeat CPU 0 instructions: 270000000 cycles: 777238988 heartbeat IPC: 0.240787 cumulative IPC: 0.241381 (Simulation time: 0 hr 14 min 49 sec) 
Heartbeat CPU 0 instructions: 280000000 cycles: 819130867 heartbeat IPC: 0.23871 cumulative IPC: 0.241231 (Simulation time: 0 hr 15 min 29 sec) 
Heartbeat CPU 0 instructions: 290000001 cycles: 860087133 heartbeat IPC: 0.244163 cumulative IPC: 0.241384 (Simulation time: 0 hr 16 min 8 sec) 
Heartbeat CPU 0 instructions: 300000000 cycles: 901847323 heartbeat IPC: 0.239462 cumulative IPC: 0.241287 (Simulation time: 0 hr 16 min 48 sec) 
Heartbeat CPU 0 instructions: 310000000 cycles: 943646535 heartbeat IPC: 0.239239 cumulative IPC: 0.241189 (Simulation time: 0 hr 17 min 28 sec) 
Heartbeat CPU 0 instructions: 320000000 cycles: 985154973 heartbeat IPC: 0.240915 cumulative IPC: 0.241176 (Simulation time: 0 hr 18 min 8 sec) 
Heartbeat CPU 0 instructions: 330000000 cycles: 1026679263 heartbeat IPC: 0.240823 cumulative IPC: 0.241161 (Simulation time: 0 hr 18 min 48 sec) 
Heartbeat CPU 0 instructions: 340000000 cycles: 1068937330 heartbeat IPC: 0.236641 cumulative IPC: 0.240969 (Simulation time: 0 hr 19 min 28 sec) 
Heartbeat CPU 0 instructions: 350000001 cycles: 1110495812 heartbeat IPC: 0.240625 cumulative IPC: 0.240955 (Simulation time: 0 hr 20 min 7 sec) 
Heartbeat CPU 0 instructions: 360000000 cycles: 1152173731 heartbeat IPC: 0.239935 cumulative IPC: 0.240916 (Simulation time: 0 hr 20 min 47 sec) 
Heartbeat CPU 0 instructions: 370000000 cycles: 1192878318 heartbeat IPC: 0.245673 cumulative IPC: 0.241089 (Simulation time: 0 hr 21 min 26 sec) 
Heartbeat CPU 0 instructions: 380000000 cycles: 1234692534 heartbeat IPC: 0.239153 cumulative IPC: 0.241019 (Simulation time: 0 hr 22 min 5 sec) 
Heartbeat CPU 0 instructions: 390000001 cycles: 1275950637 heartbeat IPC: 0.242377 cumulative IPC: 0.241066 (Simulation time: 0 hr 22 min 45 sec) 
Heartbeat CPU 0 instructions: 400000000 cycles: 1317265811 heartbeat IPC: 0.242042 cumulative IPC: 0.241098 (Simulation time: 0 hr 23 min 24 sec) 
Heartbeat CPU 0 instructions: 410000000 cycles: 1358356036 heartbeat IPC: 0.243367 cumulative IPC: 0.241171 (Simulation time: 0 hr 24 min 3 sec) 
Heartbeat CPU 0 instructions: 420000000 cycles: 1399504154 heartbeat IPC: 0.243024 cumulative IPC: 0.241228 (Simulation time: 0 hr 24 min 42 sec) 
Heartbeat CPU 0 instructions: 430000000 cycles: 1440816433 heartbeat IPC: 0.242059 cumulative IPC: 0.241253 (Simulation time: 0 hr 25 min 22 sec) 
Heartbeat CPU 0 instructions: 440000000 cycles: 1482082109 heartbeat IPC: 0.242332 cumulative IPC: 0.241285 (Simulation time: 0 hr 26 min 1 sec) 
Heartbeat CPU 0 instructions: 450000002 cycles: 1523233501 heartbeat IPC: 0.243005 cumulative IPC: 0.241334 (Simulation time: 0 hr 26 min 40 sec) 
Heartbeat CPU 0 instructions: 460000000 cycles: 1563812983 heartbeat IPC: 0.24643 cumulative IPC: 0.241472 (Simulation time: 0 hr 27 min 19 sec) 
Heartbeat CPU 0 instructions: 470000000 cycles: 1605373746 heartbeat IPC: 0.240612 cumulative IPC: 0.241449 (Simulation time: 0 hr 27 min 59 sec) 
Heartbeat CPU 0 instructions: 480000000 cycles: 1646607075 heartbeat IPC: 0.242522 cumulative IPC: 0.241477 (Simulation time: 0 hr 28 min 38 sec) 
Heartbeat CPU 0 instructions: 490000001 cycles: 1687907307 heartbeat IPC: 0.242129 cumulative IPC: 0.241494 (Simulation time: 0 hr 29 min 17 sec) 
Heartbeat CPU 0 instructions: 500000000 cycles: 1729375050 heartbeat IPC: 0.241151 cumulative IPC: 0.241485 (Simulation time: 0 hr 29 min 56 sec) 
Heartbeat CPU 0 instructions: 510000000 cycles: 1770300889 heartbeat IPC: 0.244344 cumulative IPC: 0.241554 (Simulation time: 0 hr 30 min 34 sec) 
Heartbeat CPU 0 instructions: 520000000 cycles: 1812158530 heartbeat IPC: 0.238905 cumulative IPC: 0.24149 (Simulation time: 0 hr 31 min 11 sec) 
Heartbeat CPU 0 instructions: 530000000 cycles: 1853364992 heartbeat IPC: 0.24268 cumulative IPC: 0.241518 (Simulation time: 0 hr 31 min 48 sec) 
Heartbeat CPU 0 instructions: 540000000 cycles: 1894370286 heartbeat IPC: 0.243871 cumulative IPC: 0.241571 (Simulation time: 0 hr 32 min 25 sec) 
Heartbeat CPU 0 instructions: 550000001 cycles: 1936109942 heartbeat IPC: 0.23958 cumulative IPC: 0.241526 (Simulation time: 0 hr 33 min 2 sec) 
Heartbeat CPU 0 instructions: 560000000 cycles: 1978005538 heartbeat IPC: 0.238689 cumulative IPC: 0.241464 (Simulation time: 0 hr 33 min 39 sec) 
Heartbeat CPU 0 instructions: 570000003 cycles: 2019700749 heartbeat IPC: 0.239836 cumulative IPC: 0.241429 (Simulation time: 0 hr 34 min 16 sec) 
Heartbeat CPU 0 instructions: 580000000 cycles: 2061310462 heartbeat IPC: 0.240328 cumulative IPC: 0.241406 (Simulation time: 0 hr 34 min 53 sec) 
Heartbeat CPU 0 instructions: 590000001 cycles: 2103529066 heartbeat IPC: 0.236862 cumulative IPC: 0.241312 (Simulation time: 0 hr 35 min 30 sec) 
Heartbeat CPU 0 instructions: 600000000 cycles: 2145411286 heartbeat IPC: 0.238765 cumulative IPC: 0.24126 (Simulation time: 0 hr 36 min 8 sec) 
Finished CPU 0 instructions: 500000000 cycles: 2072452159 cumulative IPC: 0.24126 (Simulation time: 0 hr 36 min 8 sec) 

CPU 0 Branch Prediction Accuracy: 96.2429% MPKI: 5.85335
Number of Branches: 77897976 Number of Mispredictions: 2926674
Number of LOAD Instructions: 193081861
Number of LOAD Instructions (ROI): 193081861
Number of STORE Instructions: 97310749
Number of STORE Instructions (ROI): 97310749
Total Destination Memory Operands: 106368027
Total Destination Memory Operands (ROI): 106368027
Total Source Memory Operands: 193081861
Total Source Memory Operands (ROI): 193081861
Number of DEPENDED LOADS: 6542474
Number of DEPENDED LOADS (ROI): 6542474
Number of SQ_ADDED: 106367982
Number of SQ_ADDED (ROI): 106367982
Number of LQ_ADDED: 430836289
Number of LQ_ADDED (ROI): 430836289
Number of Instructions read from trace: 600000256

ChampSim completed all CPUs

Region of Interest Statistics

CPU 0 cumulative IPC: 0.24126 instructions: 500000000 cycles: 2072452159
ITLB TOTAL     ACCESS:  150732248  HIT:  150716417  MISS:      15831
ITLB LOAD      ACCESS:  150732248  HIT:  150716417  MISS:      15831
ITLB RFO       ACCESS:          0  HIT:          0  MISS:          0
ITLB PREFETCH  ACCESS:          0  HIT:          0  MISS:          0
ITLB WRITEBACK ACCESS:          0  HIT:          0  MISS:          0
ITLB PREFETCH  REQUESTED:          0  ISSUED:          0  USEFUL:          0  USELESS:          0
ITLB TOTAL MSHR MERGED:      18686
ITLB LOAD MSHR MERGED:      18686
ITLB RFO MSHR MERGED:          0
ITLB PREFETCH MSHR MERGED:          0
ITLB WRITEBACK MSHR MERGED:          0
ITLB TOTAL ACCESSES:  150750934 HITS:  150716417 MISSES:      34517
ITLB LOAD ACCESSES:  150750934 HITS:  150716417 MISSES:      34517
ITLB RFO ACCESSES:          0 HITS:          0 MISSES:          0
ITLB PREFETCH ACCESSES:          0 HITS:          0 MISSES:          0
ITLB WRITEBACK ACCESSES:          0 HITS:          0 MISSES:          0
ITLB RQ ACCESS:  500000242
ITLB RQ TO_CACHE:  150750934
ITLB RQ MERGED:  349249308
ITLB RQ FORWARD:          0
ITLB WQ ACCESS:          0
ITLB WQ TO_CACHE:          0
ITLB WQ MERGED:          0
ITLB WQ FORWARD:          0
DTLB TOTAL     ACCESS:  199477887  HIT:  194098887  MISS:    5379000
DTLB LOAD      ACCESS:  123057432  HIT:  118038904  MISS:    5018528
DTLB RFO       ACCESS:   76420455  HIT:   76059983  MISS:     360472
DTLB PREFETCH  ACCESS:          0  HIT:          0  MISS:          0
DTLB WRITEBACK ACCESS:          0  HIT:          0  MISS:          0
DTLB PREFETCH  REQUESTED:          0  ISSUED:          0  USEFUL:          0  USELESS:          0
DTLB TOTAL MSHR MERGED:     912604
DTLB LOAD MSHR MERGED:     805004
DTLB RFO MSHR MERGED:     107600
DTLB PREFETCH MSHR MERGED:          0
DTLB WRITEBACK MSHR MERGED:          0
DTLB TOTAL ACCESSES:  200390491 HITS:  194098887 MISSES:    6291604
DTLB LOAD ACCESSES:  123862436 HITS:  118038904 MISSES:    5823532
DTLB RFO ACCESSES:   76528055 HITS:   76059983 MISSES:     468072
DTLB PREFETCH ACCESSES:          0 HITS:          0 MISSES:          0
DTLB WRITEBACK ACCESSES:          0 HITS:          0 MISSES:          0
DTLB RQ ACCESS:  243783373
DTLB RQ TO_CACHE:  200390491
DTLB RQ MERGED:   43392882
DTLB RQ FORWARD:          0
DTLB WQ ACCESS:          0
DTLB WQ TO_CACHE:          0
DTLB WQ MERGED:          0
DTLB WQ FORWARD:          0
L1D TOTAL     ACCESS:  335183370  HIT:  317087942  MISS:   18095428
L1D LOAD      ACCESS:  127551516  HIT:  118598068  MISS:    8953448
L1D RFO       ACCESS:   86937585  HIT:   86125103  MISS:     812482
L1D PREFETCH  ACCESS:  120694269  HIT:  112364771  MISS:    8329498
L1D WRITEBACK ACCESS:          0  HIT:          0  MISS:          0
L1D PREFETCH  REQUESTED:  128400279  ISSUED:  126802001  USEFUL:    1727363  USELESS:    6602147
L1D TOTAL MSHR MERGED:    4092560
L1D LOAD MSHR MERGED:    1023062
L1D RFO MSHR MERGED:    1209574
L1D PREFETCH MSHR MERGED:    1859924
L1D WRITEBACK MSHR MERGED:          0
L1D TOTAL ACCESSES:  339366635 HITS:  317178647 MISSES:   22187988
L1D LOAD ACCESSES:  128400796 HITS:  118598585 MISSES:    9802211
L1D RFO ACCESSES:   88054904 HITS:   86125103 MISSES:    1929801
L1D PREFETCH ACCESSES:  122910935 HITS:  112454959 MISSES:   10455976
L1D WRITEBACK ACCESSES:          0 HITS:          0 MISSES:          0
L1D RQ ACCESS:  155151988
L1D RQ TO_CACHE:  128400279
L1D RQ MERGED:   26751192
L1D RQ FORWARD:          0
L1D WQ ACCESS:   88631385
L1D WQ TO_CACHE:   88054903
L1D WQ MERGED:     576482
L1D WQ FORWARD:      90705
L1I TOTAL     ACCESS:  175061030  HIT:  174794678  MISS:     266352
L1I LOAD      ACCESS:  175061030  HIT:  174794678  MISS:     266352
L1I RFO       ACCESS:          0  HIT:          0  MISS:          0
L1I PREFETCH  ACCESS:          0  HIT:          0  MISS:          0
L1I WRITEBACK ACCESS:          0  HIT:          0  MISS:          0
L1I PREFETCH  REQUESTED:          0  ISSUED:          0  USEFUL:          0  USELESS:          0
L1I TOTAL MSHR MERGED:     217115
L1I LOAD MSHR MERGED:     217115
L1I RFO MSHR MERGED:          0
L1I PREFETCH MSHR MERGED:          0
L1I WRITEBACK MSHR MERGED:          0
L1I TOTAL ACCESSES:  175278145 HITS:  174794678 MISSES:     483467
L1I LOAD ACCESSES:  175278145 HITS:  174794678 MISSES:     483467
L1I RFO ACCESSES:          0 HITS:          0 MISSES:          0
L1I PREFETCH ACCESSES:          0 HITS:          0 MISSES:          0
L1I WRITEBACK ACCESSES:          0 HITS:          0 MISSES:          0
L1I RQ ACCESS:  500000242
L1I RQ TO_CACHE:  175278145
L1I RQ MERGED:  324722097
L1I RQ FORWARD:          0
L1I WQ ACCESS:          0
L1I WQ TO_CACHE:          0
L1I WQ MERGED:          0
L1I WQ FORWARD:          0
L2C TOTAL     ACCESS:   23737669  HIT:   12111998  MISS:   11625671
L2C LOAD      ACCESS:    9044336  HIT:    3564810  MISS:    5479526
L2C RFO       ACCESS:     720166  HIT:     130166  MISS:     590000
L2C PREFETCH  ACCESS:    8613044  HIT:    3085610  MISS:    5527434
L2C WRITEBACK ACCESS:    5360123  HIT:    5331412  MISS:      28711
L2C PREFETCH  REQUESTED:      18031  ISSUED:      18031  USEFUL:     323204  USELESS:    5204404
L2C TOTAL MSHR MERGED:         25
L2C LOAD MSHR MERGED:          3
L2C RFO MSHR MERGED:          0
L2C PREFETCH MSHR MERGED:         22
L2C WRITEBACK MSHR MERGED:          0
L2C TOTAL ACCESSES:   23739475 HITS:   12113773 MISSES:   11625702
L2C LOAD ACCESSES:    9045501 HITS:    3565975 MISSES:    5479526
L2C RFO ACCESSES:     720227 HITS:     130227 MISSES:     590000
L2C PREFETCH ACCESSES:    8613624 HITS:    3086159 MISSES:    5527465
L2C WRITEBACK ACCESSES:    5360123 HITS:    5331412 MISSES:      28711
L2C RQ ACCESS:    9765728
L2C RQ TO_CACHE:    9764502
L2C RQ MERGED:          0
L2C RQ FORWARD:          0
L2C WQ ACCESS:    5360123
L2C WQ TO_CACHE:    5360123
L2C WQ MERGED:          0
L2C WQ FORWARD:       1775
LLC TOTAL     ACCESS:   15448568  HIT:    4966574  MISS:   10481994
LLC LOAD      ACCESS:    5479494  HIT:    1530069  MISS:    3949425
LLC RFO       ACCESS:     589998  HIT:     158949  MISS:     431049
LLC PREFETCH  ACCESS:    5527427  HIT:     604690  MISS:    4922737
LLC WRITEBACK ACCESS:    3851649  HIT:    2672866  MISS:    1178783
LLC PREFETCH  REQUESTED:          0  ISSUED:          0  USEFUL:      14889  USELESS:    4908078
LLC TOTAL MSHR MERGED:          0
LLC LOAD MSHR MERGED:          0
LLC RFO MSHR MERGED:          0
LLC PREFETCH MSHR MERGED:          0
LLC WRITEBACK MSHR MERGED:          0
LLC TOTAL ACCESSES:   15448615 HITS:    4966621 MISSES:   10481994
LLC LOAD ACCESSES:    5479523 HITS:    1530098 MISSES:    3949425
LLC RFO ACCESSES:     590000 HITS:     158951 MISSES:     431049
LLC PREFETCH ACCESSES:    5527443 HITS:     604706 MISSES:    4922737
LLC WRITEBACK ACCESSES:    3851649 HITS:    2672866 MISSES:    1178783
LLC 0 RQ ACCESS:    6069523
LLC 0 RQ TO_CACHE:    6069492
LLC 0 RQ MERGED:          0
LLC 0 RQ FORWARD:          0
LLC WQ ACCESS:    3851649
LLC WQ TO_CACHE:    3851649
LLC WQ MERGED:          0
LLC WQ FORWARD:         47
Major fault: 0 Minor fault: 44814
CPU 0 L1D next line prefetcher final stats
CPU 0 L2C PC-based stride prefetcher final stats
All Misses: 12666436
All Hits: 5954634
SD Algo Stats - Switches: 0 SRR-Repls: 4512160 BRR-Repls: 0

DRAM Statistics
 CHANNEL 0
 RQ ROW_BUFFER_HIT:    1478292  ROW_BUFFER_MISS:    7819926
 DBUS_CONGESTED:    6781750
 WQ ROW_BUFFER_HIT:     282031  ROW_BUFFER_MISS:    2773988  FULL:          0

 AVG_CONGESTED_CYCLE: 13
LOADS RETIRED: 160808997
INSTR RETIRED: 500000000
