
*** ChampSim Multicore Out-of-Order Simulator ***

Warmup Instructions: 100000000
Simulation Instructions: 500000000
Number of CPUs: 1
LLC sets: 2048
LLC ways: 16
Clean RRIP Policies: 1120002311200023 Dirty RRIP Policies: 2110001321100013 PSEL Width: 10 Track Set: 4294967295 PSEL Mask: 1 Demote Mask: 3330144233301442DS Algo: 0Window size: 0
Off-chip DRAM Size: 4096 MB Channels: 1 Width: 64-bit Data Rate: 1600 MT/s

CPU 0 runs /mnt/beegfs/iconst01/spec2017/Gcc.trace.gz
NOT SORTED
TRACE STRING: /mnt/beegfs/iconst01/spec2017/Gcc.trace.gz
SORTED
TRACE STRING: /mnt/beegfs/iconst01/spec2017/Gcc.trace.gz
INITIAL
TRACE STRING: /mnt/beegfs/iconst01/spec2017/Gcc.trace.gz

champsim_seed used: 269

CPU 0 L1D next line prefetcher
CPU 0 L2C IP-based stride prefetcher
Initialize DRRIP state
Assign rand_sets[0]: 454  LLC: 2048
rand_sets[0]: 454
Assign rand_sets[1]: 1662  LLC: 2048
rand_sets[1]: 1662
Assign rand_sets[2]: 1921  LLC: 2048
rand_sets[2]: 1921
Assign rand_sets[3]: 1131  LLC: 2048
rand_sets[3]: 1131
Assign rand_sets[4]: 331  LLC: 2048
rand_sets[4]: 331
Assign rand_sets[5]: 1531  LLC: 2048
rand_sets[5]: 1531
Assign rand_sets[6]: 482  LLC: 2048
rand_sets[6]: 482
Assign rand_sets[7]: 1275  LLC: 2048
rand_sets[7]: 1275
Assign rand_sets[8]: 1876  LLC: 2048
rand_sets[8]: 1876
Assign rand_sets[9]: 2038  LLC: 2048
rand_sets[9]: 2038
Assign rand_sets[10]: 701  LLC: 2048
rand_sets[10]: 701
Assign rand_sets[11]: 479  LLC: 2048
rand_sets[11]: 479
Assign rand_sets[12]: 892  LLC: 2048
rand_sets[12]: 892
Assign rand_sets[13]: 1820  LLC: 2048
rand_sets[13]: 1820
Assign rand_sets[14]: 1505  LLC: 2048
rand_sets[14]: 1505
Assign rand_sets[15]: 1159  LLC: 2048
rand_sets[15]: 1159
Assign rand_sets[16]: 513  LLC: 2048
rand_sets[16]: 513
Assign rand_sets[17]: 703  LLC: 2048
rand_sets[17]: 703
Assign rand_sets[18]: 561  LLC: 2048
rand_sets[18]: 561
Assign rand_sets[19]: 990  LLC: 2048
rand_sets[19]: 990
Assign rand_sets[20]: 342  LLC: 2048
rand_sets[20]: 342
Assign rand_sets[21]: 882  LLC: 2048
rand_sets[21]: 882
Assign rand_sets[22]: 15  LLC: 2048
rand_sets[22]: 15
Assign rand_sets[23]: 71  LLC: 2048
rand_sets[23]: 71
Assign rand_sets[24]: 1127  LLC: 2048
rand_sets[24]: 1127
Assign rand_sets[25]: 1382  LLC: 2048
rand_sets[25]: 1382
Assign rand_sets[26]: 647  LLC: 2048
rand_sets[26]: 647
Assign rand_sets[27]: 857  LLC: 2048
rand_sets[27]: 857
Assign rand_sets[28]: 1450  LLC: 2048
rand_sets[28]: 1450
Assign rand_sets[29]: 1160  LLC: 2048
rand_sets[29]: 1160
Assign rand_sets[30]: 1852  LLC: 2048
rand_sets[30]: 1852
Assign rand_sets[31]: 1881  LLC: 2048
rand_sets[31]: 1881
Assign rand_sets[32]: 1770  LLC: 2048
rand_sets[32]: 1770
Assign rand_sets[33]: 1622  LLC: 2048
rand_sets[33]: 1622
Assign rand_sets[34]: 275  LLC: 2048
rand_sets[34]: 275
Assign rand_sets[35]: 635  LLC: 2048
rand_sets[35]: 635
Assign rand_sets[36]: 466  LLC: 2048
rand_sets[36]: 466
Assign rand_sets[37]: 1413  LLC: 2048
rand_sets[37]: 1413
Assign rand_sets[38]: 417  LLC: 2048
rand_sets[38]: 417
Assign rand_sets[39]: 472  LLC: 2048
rand_sets[39]: 472
Assign rand_sets[40]: 1340  LLC: 2048
rand_sets[40]: 1340
Assign rand_sets[41]: 852  LLC: 2048
rand_sets[41]: 852
Assign rand_sets[42]: 1365  LLC: 2048
rand_sets[42]: 1365
Assign rand_sets[43]: 47  LLC: 2048
rand_sets[43]: 47
Assign rand_sets[44]: 823  LLC: 2048
rand_sets[44]: 823
Assign rand_sets[45]: 686  LLC: 2048
rand_sets[45]: 686
Assign rand_sets[46]: 1637  LLC: 2048
rand_sets[46]: 1637
Assign rand_sets[47]: 1115  LLC: 2048
rand_sets[47]: 1115
Assign rand_sets[48]: 986  LLC: 2048
rand_sets[48]: 986
Assign rand_sets[49]: 258  LLC: 2048
rand_sets[49]: 258
Assign rand_sets[50]: 633  LLC: 2048
rand_sets[50]: 633
Assign rand_sets[51]: 920  LLC: 2048
rand_sets[51]: 920
Assign rand_sets[52]: 204  LLC: 2048
rand_sets[52]: 204
Assign rand_sets[53]: 227  LLC: 2048
rand_sets[53]: 227
Assign rand_sets[54]: 1818  LLC: 2048
rand_sets[54]: 1818
Assign rand_sets[55]: 886  LLC: 2048
rand_sets[55]: 886
Assign rand_sets[56]: 1422  LLC: 2048
rand_sets[56]: 1422
Assign rand_sets[57]: 607  LLC: 2048
rand_sets[57]: 607
Assign rand_sets[58]: 217  LLC: 2048
rand_sets[58]: 217
Assign rand_sets[59]: 1945  LLC: 2048
rand_sets[59]: 1945
Assign rand_sets[60]: 143  LLC: 2048
rand_sets[60]: 143
Assign rand_sets[61]: 1311  LLC: 2048
rand_sets[61]: 1311
Assign rand_sets[62]: 319  LLC: 2048
rand_sets[62]: 319
Assign rand_sets[63]: 1846  LLC: 2048
rand_sets[63]: 1846
 CLEAN-RRIP-POLICY-1: 1-1-2-0-0-0-2-3- CLEAN-RRIP-POLICY-2: 1-1-2-0-0-0-2-3-
 DIRTY-RRIP-POLICY-1: 2-1-1-0-0-0-1-3- DIRTY-RRIP-POLICY-2: 2-1-1-0-0-0-1-3-
 PSEL width: 10
Heartbeat CPU 0 instructions: 10000001 cycles: 7320815 heartbeat IPC: 1.36597 cumulative IPC: 1.36597 (Simulation time: 0 hr 0 min 15 sec) 
Heartbeat CPU 0 instructions: 20000000 cycles: 14325321 heartbeat IPC: 1.42765 cumulative IPC: 1.39613 (Simulation time: 0 hr 0 min 30 sec) 
Heartbeat CPU 0 instructions: 30000001 cycles: 21041712 heartbeat IPC: 1.4889 cumulative IPC: 1.42574 (Simulation time: 0 hr 0 min 46 sec) 
Heartbeat CPU 0 instructions: 40000000 cycles: 27503555 heartbeat IPC: 1.54755 cumulative IPC: 1.45436 (Simulation time: 0 hr 1 min 2 sec) 
Heartbeat CPU 0 instructions: 50000001 cycles: 33606376 heartbeat IPC: 1.63859 cumulative IPC: 1.48781 (Simulation time: 0 hr 1 min 18 sec) 
Heartbeat CPU 0 instructions: 60000000 cycles: 40088604 heartbeat IPC: 1.54268 cumulative IPC: 1.49668 (Simulation time: 0 hr 1 min 34 sec) 
Heartbeat CPU 0 instructions: 70000000 cycles: 47131612 heartbeat IPC: 1.41985 cumulative IPC: 1.4852 (Simulation time: 0 hr 1 min 49 sec) 
Heartbeat CPU 0 instructions: 80000000 cycles: 54226725 heartbeat IPC: 1.40942 cumulative IPC: 1.47529 (Simulation time: 0 hr 2 min 3 sec) 
Heartbeat CPU 0 instructions: 90000003 cycles: 61236741 heartbeat IPC: 1.42653 cumulative IPC: 1.46971 (Simulation time: 0 hr 2 min 18 sec) 
Heartbeat CPU 0 instructions: 100000000 cycles: 68409465 heartbeat IPC: 1.39417 cumulative IPC: 1.46179 (Simulation time: 0 hr 2 min 33 sec) 

Warmup complete CPU 0 instructions: 100000004 cycles: 68409466 (Simulation time: 0 hr 2 min 33 sec) 

Heartbeat CPU 0 instructions: 110000003 cycles: 96866781 heartbeat IPC: 0.351404 cumulative IPC: 0.351403 (Simulation time: 0 hr 3 min 2 sec) 
Heartbeat CPU 0 instructions: 120000000 cycles: 124601551 heartbeat IPC: 0.360558 cumulative IPC: 0.355922 (Simulation time: 0 hr 3 min 31 sec) 
Heartbeat CPU 0 instructions: 130000000 cycles: 149883548 heartbeat IPC: 0.395538 cumulative IPC: 0.368215 (Simulation time: 0 hr 4 min 0 sec) 
Heartbeat CPU 0 instructions: 140000000 cycles: 180962655 heartbeat IPC: 0.32176 cumulative IPC: 0.355388 (Simulation time: 0 hr 4 min 28 sec) 
Heartbeat CPU 0 instructions: 150000000 cycles: 211812431 heartbeat IPC: 0.324151 cumulative IPC: 0.348668 (Simulation time: 0 hr 4 min 58 sec) 
Heartbeat CPU 0 instructions: 160000000 cycles: 239569100 heartbeat IPC: 0.360274 cumulative IPC: 0.35055 (Simulation time: 0 hr 5 min 26 sec) 
Heartbeat CPU 0 instructions: 170000001 cycles: 268033968 heartbeat IPC: 0.35131 cumulative IPC: 0.350658 (Simulation time: 0 hr 5 min 56 sec) 
Heartbeat CPU 0 instructions: 180000000 cycles: 296949297 heartbeat IPC: 0.345837 cumulative IPC: 0.350048 (Simulation time: 0 hr 6 min 25 sec) 
Heartbeat CPU 0 instructions: 190000002 cycles: 325574696 heartbeat IPC: 0.34934 cumulative IPC: 0.34997 (Simulation time: 0 hr 6 min 54 sec) 
Heartbeat CPU 0 instructions: 200000000 cycles: 354467235 heartbeat IPC: 0.34611 cumulative IPC: 0.34958 (Simulation time: 0 hr 7 min 24 sec) 
Heartbeat CPU 0 instructions: 210000002 cycles: 382900538 heartbeat IPC: 0.3517 cumulative IPC: 0.349771 (Simulation time: 0 hr 7 min 53 sec) 
Heartbeat CPU 0 instructions: 220000000 cycles: 413446733 heartbeat IPC: 0.327373 cumulative IPC: 0.347789 (Simulation time: 0 hr 8 min 21 sec) 
Heartbeat CPU 0 instructions: 230000000 cycles: 441650722 heartbeat IPC: 0.35456 cumulative IPC: 0.3483 (Simulation time: 0 hr 8 min 49 sec) 
Heartbeat CPU 0 instructions: 240000000 cycles: 468155568 heartbeat IPC: 0.37729 cumulative IPC: 0.350222 (Simulation time: 0 hr 9 min 17 sec) 
Heartbeat CPU 0 instructions: 250000000 cycles: 498566400 heartbeat IPC: 0.32883 cumulative IPC: 0.34871 (Simulation time: 0 hr 9 min 47 sec) 
Heartbeat CPU 0 instructions: 260000000 cycles: 525933188 heartbeat IPC: 0.365406 cumulative IPC: 0.349709 (Simulation time: 0 hr 10 min 15 sec) 
Heartbeat CPU 0 instructions: 270000003 cycles: 554746537 heartbeat IPC: 0.347061 cumulative IPC: 0.349552 (Simulation time: 0 hr 10 min 45 sec) 
Heartbeat CPU 0 instructions: 280000000 cycles: 583328955 heartbeat IPC: 0.349865 cumulative IPC: 0.349569 (Simulation time: 0 hr 11 min 15 sec) 
Heartbeat CPU 0 instructions: 290000000 cycles: 612602827 heartbeat IPC: 0.341602 cumulative IPC: 0.349141 (Simulation time: 0 hr 11 min 45 sec) 
Heartbeat CPU 0 instructions: 300000000 cycles: 643628608 heartbeat IPC: 0.322313 cumulative IPC: 0.347694 (Simulation time: 0 hr 12 min 13 sec) 
Heartbeat CPU 0 instructions: 310000001 cycles: 673787921 heartbeat IPC: 0.331573 cumulative IPC: 0.34689 (Simulation time: 0 hr 12 min 42 sec) 
Heartbeat CPU 0 instructions: 320000000 cycles: 702921498 heartbeat IPC: 0.343247 cumulative IPC: 0.346723 (Simulation time: 0 hr 13 min 11 sec) 
Heartbeat CPU 0 instructions: 330000000 cycles: 732219964 heartbeat IPC: 0.341315 cumulative IPC: 0.346484 (Simulation time: 0 hr 13 min 40 sec) 
Heartbeat CPU 0 instructions: 340000000 cycles: 762255196 heartbeat IPC: 0.332942 cumulative IPC: 0.345898 (Simulation time: 0 hr 14 min 9 sec) 
Heartbeat CPU 0 instructions: 350000003 cycles: 789796267 heartbeat IPC: 0.363094 cumulative IPC: 0.346555 (Simulation time: 0 hr 14 min 37 sec) 
Heartbeat CPU 0 instructions: 360000000 cycles: 820393647 heartbeat IPC: 0.326825 cumulative IPC: 0.345752 (Simulation time: 0 hr 15 min 5 sec) 
Heartbeat CPU 0 instructions: 370000000 cycles: 851097441 heartbeat IPC: 0.325693 cumulative IPC: 0.344965 (Simulation time: 0 hr 15 min 34 sec) 
Heartbeat CPU 0 instructions: 380000000 cycles: 882204049 heartbeat IPC: 0.321475 cumulative IPC: 0.344067 (Simulation time: 0 hr 16 min 2 sec) 
Heartbeat CPU 0 instructions: 390000001 cycles: 912413420 heartbeat IPC: 0.331023 cumulative IPC: 0.3436 (Simulation time: 0 hr 16 min 31 sec) 
Heartbeat CPU 0 instructions: 400000000 cycles: 943528091 heartbeat IPC: 0.321392 cumulative IPC: 0.342811 (Simulation time: 0 hr 16 min 59 sec) 
Heartbeat CPU 0 instructions: 410000001 cycles: 973502854 heartbeat IPC: 0.333614 cumulative IPC: 0.342506 (Simulation time: 0 hr 17 min 27 sec) 
Heartbeat CPU 0 instructions: 420000000 cycles: 1003501841 heartbeat IPC: 0.333345 cumulative IPC: 0.342212 (Simulation time: 0 hr 17 min 56 sec) 
Heartbeat CPU 0 instructions: 430000002 cycles: 1033900178 heartbeat IPC: 0.328965 cumulative IPC: 0.341795 (Simulation time: 0 hr 18 min 24 sec) 
Heartbeat CPU 0 instructions: 440000000 cycles: 1065470676 heartbeat IPC: 0.316751 cumulative IPC: 0.341002 (Simulation time: 0 hr 18 min 53 sec) 
Heartbeat CPU 0 instructions: 450000002 cycles: 1096884770 heartbeat IPC: 0.318329 cumulative IPC: 0.34031 (Simulation time: 0 hr 19 min 21 sec) 
Heartbeat CPU 0 instructions: 460000000 cycles: 1127202218 heartbeat IPC: 0.329843 cumulative IPC: 0.34001 (Simulation time: 0 hr 19 min 50 sec) 
Heartbeat CPU 0 instructions: 470000000 cycles: 1157176127 heartbeat IPC: 0.333623 cumulative IPC: 0.339834 (Simulation time: 0 hr 20 min 18 sec) 
Heartbeat CPU 0 instructions: 480000000 cycles: 1187391043 heartbeat IPC: 0.330962 cumulative IPC: 0.339595 (Simulation time: 0 hr 20 min 46 sec) 
Heartbeat CPU 0 instructions: 490000000 cycles: 1217318910 heartbeat IPC: 0.334137 cumulative IPC: 0.339452 (Simulation time: 0 hr 21 min 14 sec) 
Heartbeat CPU 0 instructions: 500000000 cycles: 1247652071 heartbeat IPC: 0.329672 cumulative IPC: 0.339201 (Simulation time: 0 hr 21 min 42 sec) 
Heartbeat CPU 0 instructions: 510000000 cycles: 1283390971 heartbeat IPC: 0.279807 cumulative IPC: 0.337454 (Simulation time: 0 hr 22 min 13 sec) 
Heartbeat CPU 0 instructions: 520000000 cycles: 1312113295 heartbeat IPC: 0.348161 cumulative IPC: 0.337701 (Simulation time: 0 hr 22 min 42 sec) 
Heartbeat CPU 0 instructions: 530000001 cycles: 1343471250 heartbeat IPC: 0.318898 cumulative IPC: 0.337239 (Simulation time: 0 hr 23 min 11 sec) 
Heartbeat CPU 0 instructions: 540000000 cycles: 1373065049 heartbeat IPC: 0.337909 cumulative IPC: 0.337254 (Simulation time: 0 hr 23 min 40 sec) 
Heartbeat CPU 0 instructions: 550000001 cycles: 1402909041 heartbeat IPC: 0.335076 cumulative IPC: 0.337205 (Simulation time: 0 hr 24 min 10 sec) 
Heartbeat CPU 0 instructions: 560000000 cycles: 1428878966 heartbeat IPC: 0.385061 cumulative IPC: 0.338119 (Simulation time: 0 hr 24 min 38 sec) 
Heartbeat CPU 0 instructions: 570000000 cycles: 1459983885 heartbeat IPC: 0.321493 cumulative IPC: 0.337747 (Simulation time: 0 hr 25 min 7 sec) 
Heartbeat CPU 0 instructions: 580000000 cycles: 1489153750 heartbeat IPC: 0.34282 cumulative IPC: 0.337851 (Simulation time: 0 hr 25 min 36 sec) 
Heartbeat CPU 0 instructions: 590000001 cycles: 1514750464 heartbeat IPC: 0.390675 cumulative IPC: 0.338786 (Simulation time: 0 hr 26 min 3 sec) 
Heartbeat CPU 0 instructions: 600000000 cycles: 1542456653 heartbeat IPC: 0.36093 cumulative IPC: 0.339202 (Simulation time: 0 hr 26 min 31 sec) 
Finished CPU 0 instructions: 500000000 cycles: 1474047209 cumulative IPC: 0.339202 (Simulation time: 0 hr 26 min 31 sec) 

CPU 0 Branch Prediction Accuracy: 86.4311% MPKI: 26.2662
Number of Branches: 96788573 Number of Mispredictions: 13133102
Number of LOAD Instructions: 164682285
Number of LOAD Instructions (ROI): 164682285
Number of STORE Instructions: 78194750
Number of STORE Instructions (ROI): 78194750
Total Destination Memory Operands: 83268534
Total Destination Memory Operands (ROI): 83268534
Total Source Memory Operands: 164712438
Total Source Memory Operands (ROI): 164712438
Number of DEPENDED LOADS: 7063030
Number of DEPENDED LOADS (ROI): 7063030
Number of SQ_ADDED: 83268522
Number of SQ_ADDED (ROI): 83268522
Number of LQ_ADDED: 236312640
Number of LQ_ADDED (ROI): 236312640
Number of Instructions read from trace: 600000066

ChampSim completed all CPUs

Region of Interest Statistics

CPU 0 cumulative IPC: 0.339202 instructions: 500000000 cycles: 1474047209
ITLB TOTAL     ACCESS:  100508814  HIT:  100304368  MISS:     204446
ITLB LOAD      ACCESS:  100508814  HIT:  100304368  MISS:     204446
ITLB RFO       ACCESS:          0  HIT:          0  MISS:          0
ITLB PREFETCH  ACCESS:          0  HIT:          0  MISS:          0
ITLB WRITEBACK ACCESS:          0  HIT:          0  MISS:          0
ITLB PREFETCH  REQUESTED:          0  ISSUED:          0  USEFUL:          0  USELESS:          0
ITLB TOTAL MSHR MERGED:     172423
ITLB LOAD MSHR MERGED:     172423
ITLB RFO MSHR MERGED:          0
ITLB PREFETCH MSHR MERGED:          0
ITLB WRITEBACK MSHR MERGED:          0
ITLB TOTAL ACCESSES:  100681237 HITS:  100304368 MISSES:     376869
ITLB LOAD ACCESSES:  100681237 HITS:  100304368 MISSES:     376869
ITLB RFO ACCESSES:          0 HITS:          0 MISSES:          0
ITLB PREFETCH ACCESSES:          0 HITS:          0 MISSES:          0
ITLB WRITEBACK ACCESSES:          0 HITS:          0 MISSES:          0
ITLB RQ ACCESS:  500000057
ITLB RQ TO_CACHE:  100681237
ITLB RQ MERGED:  399318820
ITLB RQ FORWARD:          0
ITLB WQ ACCESS:          0
ITLB WQ TO_CACHE:          0
ITLB WQ MERGED:          0
ITLB WQ FORWARD:          0
DTLB TOTAL     ACCESS:  165347741  HIT:  164713393  MISS:     634348
DTLB LOAD      ACCESS:  106298495  HIT:  105728493  MISS:     570002
DTLB RFO       ACCESS:   59049246  HIT:   58984900  MISS:      64346
DTLB PREFETCH  ACCESS:          0  HIT:          0  MISS:          0
DTLB WRITEBACK ACCESS:          0  HIT:          0  MISS:          0
DTLB PREFETCH  REQUESTED:          0  ISSUED:          0  USEFUL:          0  USELESS:          0
DTLB TOTAL MSHR MERGED:      99510
DTLB LOAD MSHR MERGED:      59271
DTLB RFO MSHR MERGED:      40239
DTLB PREFETCH MSHR MERGED:          0
DTLB WRITEBACK MSHR MERGED:          0
DTLB TOTAL ACCESSES:  165447251 HITS:  164713393 MISSES:     733858
DTLB LOAD ACCESSES:  106357766 HITS:  105728493 MISSES:     629273
DTLB RFO ACCESSES:   59089485 HITS:   58984900 MISSES:     104585
DTLB PREFETCH ACCESSES:          0 HITS:          0 MISSES:          0
DTLB WRITEBACK ACCESSES:          0 HITS:          0 MISSES:          0
DTLB RQ ACCESS:  200307886
DTLB RQ TO_CACHE:  165447251
DTLB RQ MERGED:   34860635
DTLB RQ FORWARD:          0
DTLB WQ ACCESS:          0
DTLB WQ TO_CACHE:          0
DTLB WQ MERGED:          0
DTLB WQ FORWARD:          0
L1D TOTAL     ACCESS:  281870977  HIT:  273961484  MISS:    7909493
L1D LOAD      ACCESS:  110437332  HIT:  107163485  MISS:    3273847
L1D RFO       ACCESS:   67099651  HIT:   66208197  MISS:     891454
L1D PREFETCH  ACCESS:  104333994  HIT:  100589802  MISS:    3744192
L1D WRITEBACK ACCESS:          0  HIT:          0  MISS:          0
L1D PREFETCH  REQUESTED:  110827013  ISSUED:  109127429  USEFUL:    1664913  USELESS:    2079243
L1D TOTAL MSHR MERGED:    2859471
L1D LOAD MSHR MERGED:     483378
L1D RFO MSHR MERGED:    1886957
L1D PREFETCH MSHR MERGED:     489136
L1D WRITEBACK MSHR MERGED:          0
L1D TOTAL ACCESSES:  284757948 HITS:  273988984 MISSES:   10768964
L1D LOAD ACCESSES:  110828524 HITS:  107164996 MISSES:    3663528
L1D RFO ACCESSES:   68973874 HITS:   66208197 MISSES:    2765677
L1D PREFETCH ACCESSES:  104955550 HITS:  100615791 MISSES:    4339759
L1D WRITEBACK ACCESSES:          0 HITS:          0 MISSES:          0
L1D RQ ACCESS:  130755283
L1D RQ TO_CACHE:  110827016
L1D RQ MERGED:   19926756
L1D RQ FORWARD:          0
L1D WQ ACCESS:   69552603
L1D WQ TO_CACHE:   68973875
L1D WQ MERGED:     578728
L1D WQ FORWARD:      27500
L1I TOTAL     ACCESS:  126552587  HIT:  122314038  MISS:    4238549
L1I LOAD      ACCESS:  126552587  HIT:  122314038  MISS:    4238549
L1I RFO       ACCESS:          0  HIT:          0  MISS:          0
L1I PREFETCH  ACCESS:          0  HIT:          0  MISS:          0
L1I WRITEBACK ACCESS:          0  HIT:          0  MISS:          0
L1I PREFETCH  REQUESTED:          0  ISSUED:          0  USEFUL:          0  USELESS:          0
L1I TOTAL MSHR MERGED:    1838780
L1I LOAD MSHR MERGED:    1838780
L1I RFO MSHR MERGED:          0
L1I PREFETCH MSHR MERGED:          0
L1I WRITEBACK MSHR MERGED:          0
L1I TOTAL ACCESSES:  128391370 HITS:  122314038 MISSES:    6077332
L1I LOAD ACCESSES:  128391370 HITS:  122314038 MISSES:    6077332
L1I RFO ACCESSES:          0 HITS:          0 MISSES:          0
L1I PREFETCH ACCESSES:          0 HITS:          0 MISSES:          0
L1I WRITEBACK ACCESSES:          0 HITS:          0 MISSES:          0
L1I RQ ACCESS:  500000057
L1I RQ TO_CACHE:  128391370
L1I RQ MERGED:  371608687
L1I RQ FORWARD:          0
L1I WQ ACCESS:          0
L1I WQ TO_CACHE:          0
L1I WQ MERGED:          0
L1I WQ FORWARD:          0
L2C TOTAL     ACCESS:   14904486  HIT:   11157991  MISS:    3746495
L2C LOAD      ACCESS:    7418496  HIT:    5098468  MISS:    2320028
L2C RFO       ACCESS:     878622  HIT:     409948  MISS:     468674
L2C PREFETCH  ACCESS:    4568092  HIT:    3627558  MISS:     940534
L2C WRITEBACK ACCESS:    2039276  HIT:    2022017  MISS:      17259
L2C PREFETCH  REQUESTED:     842703  ISSUED:     842703  USEFUL:     203204  USELESS:     737037
L2C TOTAL MSHR MERGED:       7874
L2C LOAD MSHR MERGED:       1035
L2C RFO MSHR MERGED:          0
L2C PREFETCH MSHR MERGED:       6839
L2C WRITEBACK MSHR MERGED:          0
L2C TOTAL ACCESSES:   14913310 HITS:   11158435 MISSES:    3754875
L2C LOAD ACCESSES:    7418699 HITS:    5098671 MISSES:    2320028
L2C RFO ACCESSES:     878720 HITS:     410046 MISSES:     468674
L2C PREFETCH ACCESSES:    4576615 HITS:    3627701 MISSES:     948914
L2C WRITEBACK ACCESSES:    2039276 HITS:    2022017 MISSES:      17259
L2C RQ ACCESS:    8297422
L2C RQ TO_CACHE:    8297121
L2C RQ MERGED:          0
L2C RQ FORWARD:          0
L2C WQ ACCESS:    2039276
L2C WQ TO_CACHE:    2039276
L2C WQ MERGED:          0
L2C WQ FORWARD:        444
LLC TOTAL     ACCESS:    4609884  HIT:    3338921  MISS:    1270963
LLC LOAD      ACCESS:    2318980  HIT:    1434149  MISS:     884831
LLC RFO       ACCESS:     468665  HIT:     359301  MISS:     109364
LLC PREFETCH  ACCESS:     941943  HIT:     712641  MISS:     229302
LLC WRITEBACK ACCESS:     880296  HIT:     832830  MISS:      47466
LLC PREFETCH  REQUESTED:          0  ISSUED:          0  USEFUL:      44678  USELESS:     180019
LLC TOTAL MSHR MERGED:        113
LLC LOAD MSHR MERGED:         33
LLC RFO MSHR MERGED:          0
LLC PREFETCH MSHR MERGED:         80
LLC WRITEBACK MSHR MERGED:          0
LLC TOTAL ACCESSES:    4610030 HITS:    3338954 MISSES:    1271076
LLC LOAD ACCESSES:    2318993 HITS:    1434162 MISSES:     884831
LLC RFO ACCESSES:     468674 HITS:     359310 MISSES:     109364
LLC PREFETCH ACCESSES:     942067 HITS:     712652 MISSES:     229415
LLC WRITEBACK ACCESSES:     880296 HITS:     832830 MISSES:      47466
LLC 0 RQ ACCESS:    2787667
LLC 0 RQ TO_CACHE:    2787645
LLC 0 RQ MERGED:          0
LLC 0 RQ FORWARD:          0
LLC WQ ACCESS:     880296
LLC WQ TO_CACHE:     880296
LLC WQ MERGED:          0
LLC WQ FORWARD:         33
Major fault: 0 Minor fault: 12862
CPU 0 L1D next line prefetcher final stats
CPU 0 L2C PC-based stride prefetcher final stats
All Misses: 1474266
All Hits: 3952620
SD Algo Stats - Switches: 0 SRR-Repls: 1010853 BRR-Repls: 0

DRAM Statistics
 CHANNEL 0
 RQ ROW_BUFFER_HIT:     378910  ROW_BUFFER_MISS:     841933
 DBUS_CONGESTED:     539039
 WQ ROW_BUFFER_HIT:      21067  ROW_BUFFER_MISS:     254854  FULL:          0

 AVG_CONGESTED_CYCLE: 13
LOADS RETIRED: 136549171
INSTR RETIRED: 500000000
