
*** ChampSim Multicore Out-of-Order Simulator ***

Warmup Instructions: 100000000
Simulation Instructions: 500000000
Number of CPUs: 1
LLC sets: 2048
LLC ways: 16
Clean RRIP Policies: 1012220110122201 Dirty RRIP Policies: 22222100222221 PSEL Width: 10 Track Set: 4294967295 PSEL Mask: 1 Demote Mask: 4013014240130142DS Algo: 0Window size: 0
Off-chip DRAM Size: 4096 MB Channels: 1 Width: 64-bit Data Rate: 1600 MT/s

CPU 0 runs /mnt/beegfs/iconst01/spec2017/Omnetpp.trace.gz
NOT SORTED
TRACE STRING: /mnt/beegfs/iconst01/spec2017/Omnetpp.trace.gz
SORTED
TRACE STRING: /mnt/beegfs/iconst01/spec2017/Omnetpp.trace.gz
INITIAL
TRACE STRING: /mnt/beegfs/iconst01/spec2017/Omnetpp.trace.gz

champsim_seed used: 739

CPU 0 L1D next line prefetcher
CPU 0 L2C IP-based stride prefetcher
Initialize DRRIP state
Assign rand_sets[0]: 454  LLC: 2048
rand_sets[0]: 454
Assign rand_sets[1]: 1662  LLC: 2048
rand_sets[1]: 1662
Assign rand_sets[2]: 1921  LLC: 2048
rand_sets[2]: 1921
Assign rand_sets[3]: 1131  LLC: 2048
rand_sets[3]: 1131
Assign rand_sets[4]: 331  LLC: 2048
rand_sets[4]: 331
Assign rand_sets[5]: 1531  LLC: 2048
rand_sets[5]: 1531
Assign rand_sets[6]: 482  LLC: 2048
rand_sets[6]: 482
Assign rand_sets[7]: 1275  LLC: 2048
rand_sets[7]: 1275
Assign rand_sets[8]: 1876  LLC: 2048
rand_sets[8]: 1876
Assign rand_sets[9]: 2038  LLC: 2048
rand_sets[9]: 2038
Assign rand_sets[10]: 701  LLC: 2048
rand_sets[10]: 701
Assign rand_sets[11]: 479  LLC: 2048
rand_sets[11]: 479
Assign rand_sets[12]: 892  LLC: 2048
rand_sets[12]: 892
Assign rand_sets[13]: 1820  LLC: 2048
rand_sets[13]: 1820
Assign rand_sets[14]: 1505  LLC: 2048
rand_sets[14]: 1505
Assign rand_sets[15]: 1159  LLC: 2048
rand_sets[15]: 1159
Assign rand_sets[16]: 513  LLC: 2048
rand_sets[16]: 513
Assign rand_sets[17]: 703  LLC: 2048
rand_sets[17]: 703
Assign rand_sets[18]: 561  LLC: 2048
rand_sets[18]: 561
Assign rand_sets[19]: 990  LLC: 2048
rand_sets[19]: 990
Assign rand_sets[20]: 342  LLC: 2048
rand_sets[20]: 342
Assign rand_sets[21]: 882  LLC: 2048
rand_sets[21]: 882
Assign rand_sets[22]: 15  LLC: 2048
rand_sets[22]: 15
Assign rand_sets[23]: 71  LLC: 2048
rand_sets[23]: 71
Assign rand_sets[24]: 1127  LLC: 2048
rand_sets[24]: 1127
Assign rand_sets[25]: 1382  LLC: 2048
rand_sets[25]: 1382
Assign rand_sets[26]: 647  LLC: 2048
rand_sets[26]: 647
Assign rand_sets[27]: 857  LLC: 2048
rand_sets[27]: 857
Assign rand_sets[28]: 1450  LLC: 2048
rand_sets[28]: 1450
Assign rand_sets[29]: 1160  LLC: 2048
rand_sets[29]: 1160
Assign rand_sets[30]: 1852  LLC: 2048
rand_sets[30]: 1852
Assign rand_sets[31]: 1881  LLC: 2048
rand_sets[31]: 1881
Assign rand_sets[32]: 1770  LLC: 2048
rand_sets[32]: 1770
Assign rand_sets[33]: 1622  LLC: 2048
rand_sets[33]: 1622
Assign rand_sets[34]: 275  LLC: 2048
rand_sets[34]: 275
Assign rand_sets[35]: 635  LLC: 2048
rand_sets[35]: 635
Assign rand_sets[36]: 466  LLC: 2048
rand_sets[36]: 466
Assign rand_sets[37]: 1413  LLC: 2048
rand_sets[37]: 1413
Assign rand_sets[38]: 417  LLC: 2048
rand_sets[38]: 417
Assign rand_sets[39]: 472  LLC: 2048
rand_sets[39]: 472
Assign rand_sets[40]: 1340  LLC: 2048
rand_sets[40]: 1340
Assign rand_sets[41]: 852  LLC: 2048
rand_sets[41]: 852
Assign rand_sets[42]: 1365  LLC: 2048
rand_sets[42]: 1365
Assign rand_sets[43]: 47  LLC: 2048
rand_sets[43]: 47
Assign rand_sets[44]: 823  LLC: 2048
rand_sets[44]: 823
Assign rand_sets[45]: 686  LLC: 2048
rand_sets[45]: 686
Assign rand_sets[46]: 1637  LLC: 2048
rand_sets[46]: 1637
Assign rand_sets[47]: 1115  LLC: 2048
rand_sets[47]: 1115
Assign rand_sets[48]: 986  LLC: 2048
rand_sets[48]: 986
Assign rand_sets[49]: 258  LLC: 2048
rand_sets[49]: 258
Assign rand_sets[50]: 633  LLC: 2048
rand_sets[50]: 633
Assign rand_sets[51]: 920  LLC: 2048
rand_sets[51]: 920
Assign rand_sets[52]: 204  LLC: 2048
rand_sets[52]: 204
Assign rand_sets[53]: 227  LLC: 2048
rand_sets[53]: 227
Assign rand_sets[54]: 1818  LLC: 2048
rand_sets[54]: 1818
Assign rand_sets[55]: 886  LLC: 2048
rand_sets[55]: 886
Assign rand_sets[56]: 1422  LLC: 2048
rand_sets[56]: 1422
Assign rand_sets[57]: 607  LLC: 2048
rand_sets[57]: 607
Assign rand_sets[58]: 217  LLC: 2048
rand_sets[58]: 217
Assign rand_sets[59]: 1945  LLC: 2048
rand_sets[59]: 1945
Assign rand_sets[60]: 143  LLC: 2048
rand_sets[60]: 143
Assign rand_sets[61]: 1311  LLC: 2048
rand_sets[61]: 1311
Assign rand_sets[62]: 319  LLC: 2048
rand_sets[62]: 319
Assign rand_sets[63]: 1846  LLC: 2048
rand_sets[63]: 1846
 CLEAN-RRIP-POLICY-1: 1-0-1-2-2-2-0-1- CLEAN-RRIP-POLICY-2: 1-0-1-2-2-2-0-1-
 DIRTY-RRIP-POLICY-1: 0-0-2-2-2-2-2-1- DIRTY-RRIP-POLICY-2: 0-0-2-2-2-2-2-1-
 PSEL width: 10
Heartbeat CPU 0 instructions: 10000000 cycles: 7322048 heartbeat IPC: 1.36574 cumulative IPC: 1.36574 (Simulation time: 0 hr 0 min 19 sec) 
Heartbeat CPU 0 instructions: 20000000 cycles: 14628669 heartbeat IPC: 1.36862 cumulative IPC: 1.36718 (Simulation time: 0 hr 0 min 38 sec) 
Heartbeat CPU 0 instructions: 30000003 cycles: 21932885 heartbeat IPC: 1.36907 cumulative IPC: 1.36781 (Simulation time: 0 hr 0 min 57 sec) 
Heartbeat CPU 0 instructions: 40000000 cycles: 29223914 heartbeat IPC: 1.37155 cumulative IPC: 1.36874 (Simulation time: 0 hr 1 min 17 sec) 
Heartbeat CPU 0 instructions: 50000000 cycles: 36503351 heartbeat IPC: 1.37373 cumulative IPC: 1.36974 (Simulation time: 0 hr 1 min 36 sec) 
Heartbeat CPU 0 instructions: 60000000 cycles: 43786215 heartbeat IPC: 1.37309 cumulative IPC: 1.37029 (Simulation time: 0 hr 1 min 56 sec) 
Heartbeat CPU 0 instructions: 70000001 cycles: 51074513 heartbeat IPC: 1.37206 cumulative IPC: 1.37055 (Simulation time: 0 hr 2 min 16 sec) 
Heartbeat CPU 0 instructions: 80000000 cycles: 58352502 heartbeat IPC: 1.37401 cumulative IPC: 1.37098 (Simulation time: 0 hr 2 min 35 sec) 
Heartbeat CPU 0 instructions: 90000000 cycles: 65661457 heartbeat IPC: 1.36818 cumulative IPC: 1.37067 (Simulation time: 0 hr 2 min 55 sec) 
Heartbeat CPU 0 instructions: 100000000 cycles: 72956233 heartbeat IPC: 1.37084 cumulative IPC: 1.37068 (Simulation time: 0 hr 3 min 15 sec) 

Warmup complete CPU 0 instructions: 100000002 cycles: 72956234 (Simulation time: 0 hr 3 min 15 sec) 

Heartbeat CPU 0 instructions: 110000002 cycles: 114439756 heartbeat IPC: 0.24106 cumulative IPC: 0.24106 (Simulation time: 0 hr 3 min 54 sec) 
Heartbeat CPU 0 instructions: 120000000 cycles: 155698740 heartbeat IPC: 0.242371 cumulative IPC: 0.241714 (Simulation time: 0 hr 4 min 33 sec) 
Heartbeat CPU 0 instructions: 130000002 cycles: 197118759 heartbeat IPC: 0.241429 cumulative IPC: 0.241619 (Simulation time: 0 hr 5 min 12 sec) 
Heartbeat CPU 0 instructions: 140000000 cycles: 238757451 heartbeat IPC: 0.240161 cumulative IPC: 0.241253 (Simulation time: 0 hr 5 min 51 sec) 
Heartbeat CPU 0 instructions: 150000002 cycles: 279881729 heartbeat IPC: 0.243165 cumulative IPC: 0.241633 (Simulation time: 0 hr 6 min 30 sec) 
Heartbeat CPU 0 instructions: 160000000 cycles: 321027063 heartbeat IPC: 0.243041 cumulative IPC: 0.241866 (Simulation time: 0 hr 7 min 9 sec) 
Heartbeat CPU 0 instructions: 170000001 cycles: 361321220 heartbeat IPC: 0.248175 cumulative IPC: 0.242748 (Simulation time: 0 hr 7 min 48 sec) 
Heartbeat CPU 0 instructions: 180000000 cycles: 402404524 heartbeat IPC: 0.243408 cumulative IPC: 0.24283 (Simulation time: 0 hr 8 min 27 sec) 
Heartbeat CPU 0 instructions: 190000002 cycles: 443485770 heartbeat IPC: 0.24342 cumulative IPC: 0.242896 (Simulation time: 0 hr 9 min 5 sec) 
Heartbeat CPU 0 instructions: 200000000 cycles: 485931037 heartbeat IPC: 0.235597 cumulative IPC: 0.242146 (Simulation time: 0 hr 9 min 45 sec) 
Heartbeat CPU 0 instructions: 210000003 cycles: 527035540 heartbeat IPC: 0.243282 cumulative IPC: 0.242248 (Simulation time: 0 hr 10 min 24 sec) 
Heartbeat CPU 0 instructions: 220000000 cycles: 568470199 heartbeat IPC: 0.241344 cumulative IPC: 0.242173 (Simulation time: 0 hr 11 min 3 sec) 
Heartbeat CPU 0 instructions: 230000000 cycles: 609819980 heartbeat IPC: 0.241839 cumulative IPC: 0.242147 (Simulation time: 0 hr 11 min 42 sec) 
Heartbeat CPU 0 instructions: 240000000 cycles: 650866067 heartbeat IPC: 0.243629 cumulative IPC: 0.242252 (Simulation time: 0 hr 12 min 20 sec) 
Heartbeat CPU 0 instructions: 250000000 cycles: 691966117 heartbeat IPC: 0.243309 cumulative IPC: 0.242322 (Simulation time: 0 hr 12 min 59 sec) 
Heartbeat CPU 0 instructions: 260000000 cycles: 733235770 heartbeat IPC: 0.242309 cumulative IPC: 0.242322 (Simulation time: 0 hr 13 min 37 sec) 
Heartbeat CPU 0 instructions: 270000000 cycles: 774594874 heartbeat IPC: 0.241785 cumulative IPC: 0.24229 (Simulation time: 0 hr 14 min 15 sec) 
Heartbeat CPU 0 instructions: 280000000 cycles: 816269118 heartbeat IPC: 0.239956 cumulative IPC: 0.242159 (Simulation time: 0 hr 14 min 54 sec) 
Heartbeat CPU 0 instructions: 290000001 cycles: 857083718 heartbeat IPC: 0.24501 cumulative IPC: 0.242308 (Simulation time: 0 hr 15 min 32 sec) 
Heartbeat CPU 0 instructions: 300000000 cycles: 898632318 heartbeat IPC: 0.240682 cumulative IPC: 0.242226 (Simulation time: 0 hr 16 min 10 sec) 
Heartbeat CPU 0 instructions: 310000000 cycles: 940189788 heartbeat IPC: 0.240631 cumulative IPC: 0.242149 (Simulation time: 0 hr 16 min 48 sec) 
Heartbeat CPU 0 instructions: 320000000 cycles: 981499621 heartbeat IPC: 0.242073 cumulative IPC: 0.242146 (Simulation time: 0 hr 17 min 25 sec) 
Heartbeat CPU 0 instructions: 330000000 cycles: 1022805946 heartbeat IPC: 0.242094 cumulative IPC: 0.242144 (Simulation time: 0 hr 18 min 3 sec) 
Heartbeat CPU 0 instructions: 340000000 cycles: 1064797293 heartbeat IPC: 0.238144 cumulative IPC: 0.241974 (Simulation time: 0 hr 18 min 41 sec) 
Heartbeat CPU 0 instructions: 350000001 cycles: 1106161482 heartbeat IPC: 0.241755 cumulative IPC: 0.241965 (Simulation time: 0 hr 19 min 19 sec) 
Heartbeat CPU 0 instructions: 360000000 cycles: 1147712771 heartbeat IPC: 0.240666 cumulative IPC: 0.241915 (Simulation time: 0 hr 19 min 56 sec) 
Heartbeat CPU 0 instructions: 370000000 cycles: 1188274040 heartbeat IPC: 0.246541 cumulative IPC: 0.242083 (Simulation time: 0 hr 20 min 33 sec) 
Heartbeat CPU 0 instructions: 380000000 cycles: 1229871849 heartbeat IPC: 0.240397 cumulative IPC: 0.242023 (Simulation time: 0 hr 21 min 11 sec) 
Heartbeat CPU 0 instructions: 390000001 cycles: 1270949303 heartbeat IPC: 0.243443 cumulative IPC: 0.242072 (Simulation time: 0 hr 21 min 48 sec) 
Heartbeat CPU 0 instructions: 400000000 cycles: 1312101796 heartbeat IPC: 0.242999 cumulative IPC: 0.242102 (Simulation time: 0 hr 22 min 25 sec) 
Heartbeat CPU 0 instructions: 410000000 cycles: 1353074753 heartbeat IPC: 0.244063 cumulative IPC: 0.242165 (Simulation time: 0 hr 23 min 3 sec) 
Heartbeat CPU 0 instructions: 420000000 cycles: 1394030860 heartbeat IPC: 0.244164 cumulative IPC: 0.242227 (Simulation time: 0 hr 23 min 40 sec) 
Heartbeat CPU 0 instructions: 430000000 cycles: 1435107390 heartbeat IPC: 0.243448 cumulative IPC: 0.242264 (Simulation time: 0 hr 24 min 17 sec) 
Heartbeat CPU 0 instructions: 440000000 cycles: 1476187585 heartbeat IPC: 0.243426 cumulative IPC: 0.242298 (Simulation time: 0 hr 24 min 54 sec) 
Heartbeat CPU 0 instructions: 450000002 cycles: 1517166118 heartbeat IPC: 0.24403 cumulative IPC: 0.242347 (Simulation time: 0 hr 25 min 32 sec) 
Heartbeat CPU 0 instructions: 460000000 cycles: 1557566548 heartbeat IPC: 0.247522 cumulative IPC: 0.242488 (Simulation time: 0 hr 26 min 9 sec) 
Heartbeat CPU 0 instructions: 470000000 cycles: 1598901236 heartbeat IPC: 0.241928 cumulative IPC: 0.242473 (Simulation time: 0 hr 26 min 46 sec) 
Heartbeat CPU 0 instructions: 480000000 cycles: 1639938361 heartbeat IPC: 0.243682 cumulative IPC: 0.242504 (Simulation time: 0 hr 27 min 24 sec) 
Heartbeat CPU 0 instructions: 490000001 cycles: 1681057398 heartbeat IPC: 0.243196 cumulative IPC: 0.242522 (Simulation time: 0 hr 28 min 1 sec) 
Heartbeat CPU 0 instructions: 500000000 cycles: 1722402364 heartbeat IPC: 0.241867 cumulative IPC: 0.242506 (Simulation time: 0 hr 28 min 38 sec) 
Heartbeat CPU 0 instructions: 510000000 cycles: 1763110783 heartbeat IPC: 0.245649 cumulative IPC: 0.242581 (Simulation time: 0 hr 29 min 14 sec) 
Heartbeat CPU 0 instructions: 520000000 cycles: 1804738631 heartbeat IPC: 0.240224 cumulative IPC: 0.242525 (Simulation time: 0 hr 29 min 49 sec) 
Heartbeat CPU 0 instructions: 530000000 cycles: 1845751449 heartbeat IPC: 0.243826 cumulative IPC: 0.242555 (Simulation time: 0 hr 30 min 24 sec) 
Heartbeat CPU 0 instructions: 540000000 cycles: 1886538848 heartbeat IPC: 0.245174 cumulative IPC: 0.242614 (Simulation time: 0 hr 30 min 59 sec) 
Heartbeat CPU 0 instructions: 550000001 cycles: 1928087562 heartbeat IPC: 0.240681 cumulative IPC: 0.24257 (Simulation time: 0 hr 31 min 34 sec) 
Heartbeat CPU 0 instructions: 560000000 cycles: 1969737252 heartbeat IPC: 0.240098 cumulative IPC: 0.242516 (Simulation time: 0 hr 32 min 9 sec) 
Heartbeat CPU 0 instructions: 570000003 cycles: 2011244691 heartbeat IPC: 0.240921 cumulative IPC: 0.242482 (Simulation time: 0 hr 32 min 45 sec) 
Heartbeat CPU 0 instructions: 580000000 cycles: 2052648399 heartbeat IPC: 0.241524 cumulative IPC: 0.242462 (Simulation time: 0 hr 33 min 20 sec) 
Heartbeat CPU 0 instructions: 590000001 cycles: 2094623930 heartbeat IPC: 0.238234 cumulative IPC: 0.242374 (Simulation time: 0 hr 33 min 55 sec) 
Heartbeat CPU 0 instructions: 600000000 cycles: 2136286925 heartbeat IPC: 0.240021 cumulative IPC: 0.242327 (Simulation time: 0 hr 34 min 31 sec) 
Finished CPU 0 instructions: 500000000 cycles: 2063330699 cumulative IPC: 0.242327 (Simulation time: 0 hr 34 min 31 sec) 

CPU 0 Branch Prediction Accuracy: 96.2429% MPKI: 5.85335
Number of Branches: 77897976 Number of Mispredictions: 2926674
Number of LOAD Instructions: 193081861
Number of LOAD Instructions (ROI): 193081861
Number of STORE Instructions: 97310749
Number of STORE Instructions (ROI): 97310749
Total Destination Memory Operands: 106368027
Total Destination Memory Operands (ROI): 106368027
Total Source Memory Operands: 193081861
Total Source Memory Operands (ROI): 193081861
Number of DEPENDED LOADS: 6513532
Number of DEPENDED LOADS (ROI): 6513532
Number of SQ_ADDED: 106367982
Number of SQ_ADDED (ROI): 106367982
Number of LQ_ADDED: 430793242
Number of LQ_ADDED (ROI): 430793242
Number of Instructions read from trace: 600000256

ChampSim completed all CPUs

Region of Interest Statistics

CPU 0 cumulative IPC: 0.242327 instructions: 500000000 cycles: 2063330699
ITLB TOTAL     ACCESS:  150961257  HIT:  150945426  MISS:      15831
ITLB LOAD      ACCESS:  150961257  HIT:  150945426  MISS:      15831
ITLB RFO       ACCESS:          0  HIT:          0  MISS:          0
ITLB PREFETCH  ACCESS:          0  HIT:          0  MISS:          0
ITLB WRITEBACK ACCESS:          0  HIT:          0  MISS:          0
ITLB PREFETCH  REQUESTED:          0  ISSUED:          0  USEFUL:          0  USELESS:          0
ITLB TOTAL MSHR MERGED:      18159
ITLB LOAD MSHR MERGED:      18159
ITLB RFO MSHR MERGED:          0
ITLB PREFETCH MSHR MERGED:          0
ITLB WRITEBACK MSHR MERGED:          0
ITLB TOTAL ACCESSES:  150979416 HITS:  150945426 MISSES:      33990
ITLB LOAD ACCESSES:  150979416 HITS:  150945426 MISSES:      33990
ITLB RFO ACCESSES:          0 HITS:          0 MISSES:          0
ITLB PREFETCH ACCESSES:          0 HITS:          0 MISSES:          0
ITLB WRITEBACK ACCESSES:          0 HITS:          0 MISSES:          0
ITLB RQ ACCESS:  500000242
ITLB RQ TO_CACHE:  150979416
ITLB RQ MERGED:  349020826
ITLB RQ FORWARD:          0
ITLB WQ ACCESS:          0
ITLB WQ TO_CACHE:          0
ITLB WQ MERGED:          0
ITLB WQ FORWARD:          0
DTLB TOTAL     ACCESS:  199505314  HIT:  194126294  MISS:    5379020
DTLB LOAD      ACCESS:  123082119  HIT:  118063575  MISS:    5018544
DTLB RFO       ACCESS:   76423195  HIT:   76062719  MISS:     360476
DTLB PREFETCH  ACCESS:          0  HIT:          0  MISS:          0
DTLB WRITEBACK ACCESS:          0  HIT:          0  MISS:          0
DTLB PREFETCH  REQUESTED:          0  ISSUED:          0  USEFUL:          0  USELESS:          0
DTLB TOTAL MSHR MERGED:     915261
DTLB LOAD MSHR MERGED:     806748
DTLB RFO MSHR MERGED:     108513
DTLB PREFETCH MSHR MERGED:          0
DTLB WRITEBACK MSHR MERGED:          0
DTLB TOTAL ACCESSES:  200420575 HITS:  194126294 MISSES:    6294281
DTLB LOAD ACCESSES:  123888867 HITS:  118063575 MISSES:    5825292
DTLB RFO ACCESSES:   76531708 HITS:   76062719 MISSES:     468989
DTLB PREFETCH ACCESSES:          0 HITS:          0 MISSES:          0
DTLB WRITEBACK ACCESSES:          0 HITS:          0 MISSES:          0
DTLB RQ ACCESS:  243812559
DTLB RQ TO_CACHE:  200420575
DTLB RQ MERGED:   43391984
DTLB RQ FORWARD:          0
DTLB WQ ACCESS:          0
DTLB WQ TO_CACHE:          0
DTLB WQ MERGED:          0
DTLB WQ FORWARD:          0
L1D TOTAL     ACCESS:  335566011  HIT:  317469359  MISS:   18096652
L1D LOAD      ACCESS:  127599853  HIT:  118656521  MISS:    8943332
L1D RFO       ACCESS:   87084728  HIT:   86292707  MISS:     792021
L1D PREFETCH  ACCESS:  120881430  HIT:  112520131  MISS:    8361299
L1D WRITEBACK ACCESS:          0  HIT:          0  MISS:          0
L1D PREFETCH  REQUESTED:  128422837  ISSUED:  126824694  USEFUL:    1740920  USELESS:    6620391
L1D TOTAL MSHR MERGED:    3759049
L1D LOAD MSHR MERGED:     985966
L1D RFO MSHR MERGED:    1047961
L1D PREFETCH MSHR MERGED:    1725122
L1D WRITEBACK MSHR MERGED:          0
L1D TOTAL ACCESSES:  339416480 HITS:  317560779 MISSES:   21855701
L1D LOAD ACCESSES:  128423348 HITS:  118657032 MISSES:    9766316
L1D RFO ACCESSES:   88059925 HITS:   86292707 MISSES:    1767218
L1D PREFETCH ACCESSES:  122933207 HITS:  112611040 MISSES:   10322167
L1D WRITEBACK ACCESSES:          0 HITS:          0 MISSES:          0
L1D RQ ACCESS:  155181174
L1D RQ TO_CACHE:  128422837
L1D RQ MERGED:   26757826
L1D RQ FORWARD:          0
L1D WQ ACCESS:   88631385
L1D WQ TO_CACHE:   88059924
L1D WQ MERGED:     571461
L1D WQ FORWARD:      91420
L1I TOTAL     ACCESS:  175283690  HIT:  175017244  MISS:     266446
L1I LOAD      ACCESS:  175283690  HIT:  175017244  MISS:     266446
L1I RFO       ACCESS:          0  HIT:          0  MISS:          0
L1I PREFETCH  ACCESS:          0  HIT:          0  MISS:          0
L1I WRITEBACK ACCESS:          0  HIT:          0  MISS:          0
L1I PREFETCH  REQUESTED:          0  ISSUED:          0  USEFUL:          0  USELESS:          0
L1I TOTAL MSHR MERGED:     214546
L1I LOAD MSHR MERGED:     214546
L1I RFO MSHR MERGED:          0
L1I PREFETCH MSHR MERGED:          0
L1I WRITEBACK MSHR MERGED:          0
L1I TOTAL ACCESSES:  175498236 HITS:  175017244 MISSES:     480992
L1I LOAD ACCESSES:  175498236 HITS:  175017244 MISSES:     480992
L1I RFO ACCESSES:          0 HITS:          0 MISSES:          0
L1I PREFETCH ACCESSES:          0 HITS:          0 MISSES:          0
L1I WRITEBACK ACCESSES:          0 HITS:          0 MISSES:          0
L1I RQ ACCESS:  500000242
L1I RQ TO_CACHE:  175498236
L1I RQ MERGED:  324502006
L1I RQ FORWARD:          0
L1I WQ ACCESS:          0
L1I WQ TO_CACHE:          0
L1I WQ MERGED:          0
L1I WQ FORWARD:          0
L2C TOTAL     ACCESS:   23739196  HIT:   12113265  MISS:   11625931
L2C LOAD      ACCESS:    9045621  HIT:    3565599  MISS:    5480022
L2C RFO       ACCESS:     719196  HIT:     129357  MISS:     589839
L2C PREFETCH  ACCESS:    8614085  HIT:    3086707  MISS:    5527378
L2C WRITEBACK ACCESS:    5360294  HIT:    5331602  MISS:      28692
L2C PREFETCH  REQUESTED:      18068  ISSUED:      18068  USEFUL:     322832  USELESS:    5204723
L2C TOTAL MSHR MERGED:         17
L2C LOAD MSHR MERGED:          2
L2C RFO MSHR MERGED:          0
L2C PREFETCH MSHR MERGED:         15
L2C WRITEBACK MSHR MERGED:          0
L2C TOTAL ACCESSES:   23740998 HITS:   12115046 MISSES:   11625952
L2C LOAD ACCESSES:    9046796 HITS:    3566774 MISSES:    5480022
L2C RFO ACCESSES:     719257 HITS:     129418 MISSES:     589839
L2C PREFETCH ACCESSES:    8614651 HITS:    3087252 MISSES:    5527399
L2C WRITEBACK ACCESSES:    5360294 HITS:    5331602 MISSES:      28692
L2C RQ ACCESS:    9766053
L2C RQ TO_CACHE:    9764817
L2C RQ MERGED:          0
L2C RQ FORWARD:          0
L2C WQ ACCESS:    5360294
L2C WQ TO_CACHE:    5360294
L2C WQ MERGED:          0
L2C WQ FORWARD:       1781
LLC TOTAL     ACCESS:   15448934  HIT:    6697844  MISS:    8751090
LLC LOAD      ACCESS:    5479991  HIT:    1605086  MISS:    3874905
LLC RFO       ACCESS:     589837  HIT:     233075  MISS:     356762
LLC PREFETCH  ACCESS:    5527374  HIT:    1565882  MISS:    3961492
LLC WRITEBACK ACCESS:    3851732  HIT:    3293801  MISS:     557931
LLC PREFETCH  REQUESTED:          0  ISSUED:          0  USEFUL:     176537  USELESS:    3786245
LLC TOTAL MSHR MERGED:          0
LLC LOAD MSHR MERGED:          0
LLC RFO MSHR MERGED:          0
LLC PREFETCH MSHR MERGED:          0
LLC WRITEBACK MSHR MERGED:          0
LLC TOTAL ACCESSES:   15448975 HITS:    6697885 MISSES:    8751090
LLC LOAD ACCESSES:    5480020 HITS:    1605115 MISSES:    3874905
LLC RFO ACCESSES:     589839 HITS:     233077 MISSES:     356762
LLC PREFETCH ACCESSES:    5527384 HITS:    1565892 MISSES:    3961492
LLC WRITEBACK ACCESSES:    3851732 HITS:    3293801 MISSES:     557931
LLC 0 RQ ACCESS:    6069859
LLC 0 RQ TO_CACHE:    6069828
LLC 0 RQ MERGED:          0
LLC 0 RQ FORWARD:          0
LLC WQ ACCESS:    3851732
LLC WQ TO_CACHE:    3851732
LLC WQ MERGED:          0
LLC WQ FORWARD:         41
Major fault: 0 Minor fault: 44814
CPU 0 L1D next line prefetcher final stats
CPU 0 L2C PC-based stride prefetcher final stats
All Misses: 10565059
All Hits: 8056379
SD Algo Stats - Switches: 0 SRR-Repls: 4438328 BRR-Repls: 0

DRAM Statistics
 CHANNEL 0
 RQ ROW_BUFFER_HIT:    1446650  ROW_BUFFER_MISS:    6742775
 DBUS_CONGESTED:    6227286
 WQ ROW_BUFFER_HIT:     274651  ROW_BUFFER_MISS:    2648040  FULL:          0

 AVG_CONGESTED_CYCLE: 13
LOADS RETIRED: 160808997
INSTR RETIRED: 500000000
