
*** ChampSim Multicore Out-of-Order Simulator ***

Warmup Instructions: 100000000
Simulation Instructions: 500000000
Number of CPUs: 1
LLC sets: 2048
LLC ways: 16
Clean RRIP Policies: 2003230120032301 Dirty RRIP Policies: 1003130110031301 PSEL Width: 10 Track Set: 4294967295 PSEL Mask: 1 Demote Mask: 2102201021022010DS Algo: 0Window size: 0
Off-chip DRAM Size: 4096 MB Channels: 1 Width: 64-bit Data Rate: 1600 MT/s

CPU 0 runs /mnt/beegfs/iconst01/spec2017/Lbm.trace.gz
NOT SORTED
TRACE STRING: /mnt/beegfs/iconst01/spec2017/Lbm.trace.gz
SORTED
TRACE STRING: /mnt/beegfs/iconst01/spec2017/Lbm.trace.gz
INITIAL
TRACE STRING: /mnt/beegfs/iconst01/spec2017/Lbm.trace.gz

champsim_seed used: 283

CPU 0 L1D next line prefetcher
CPU 0 L2C IP-based stride prefetcher
Initialize DRRIP state
Assign rand_sets[0]: 454  LLC: 2048
rand_sets[0]: 454
Assign rand_sets[1]: 1662  LLC: 2048
rand_sets[1]: 1662
Assign rand_sets[2]: 1921  LLC: 2048
rand_sets[2]: 1921
Assign rand_sets[3]: 1131  LLC: 2048
rand_sets[3]: 1131
Assign rand_sets[4]: 331  LLC: 2048
rand_sets[4]: 331
Assign rand_sets[5]: 1531  LLC: 2048
rand_sets[5]: 1531
Assign rand_sets[6]: 482  LLC: 2048
rand_sets[6]: 482
Assign rand_sets[7]: 1275  LLC: 2048
rand_sets[7]: 1275
Assign rand_sets[8]: 1876  LLC: 2048
rand_sets[8]: 1876
Assign rand_sets[9]: 2038  LLC: 2048
rand_sets[9]: 2038
Assign rand_sets[10]: 701  LLC: 2048
rand_sets[10]: 701
Assign rand_sets[11]: 479  LLC: 2048
rand_sets[11]: 479
Assign rand_sets[12]: 892  LLC: 2048
rand_sets[12]: 892
Assign rand_sets[13]: 1820  LLC: 2048
rand_sets[13]: 1820
Assign rand_sets[14]: 1505  LLC: 2048
rand_sets[14]: 1505
Assign rand_sets[15]: 1159  LLC: 2048
rand_sets[15]: 1159
Assign rand_sets[16]: 513  LLC: 2048
rand_sets[16]: 513
Assign rand_sets[17]: 703  LLC: 2048
rand_sets[17]: 703
Assign rand_sets[18]: 561  LLC: 2048
rand_sets[18]: 561
Assign rand_sets[19]: 990  LLC: 2048
rand_sets[19]: 990
Assign rand_sets[20]: 342  LLC: 2048
rand_sets[20]: 342
Assign rand_sets[21]: 882  LLC: 2048
rand_sets[21]: 882
Assign rand_sets[22]: 15  LLC: 2048
rand_sets[22]: 15
Assign rand_sets[23]: 71  LLC: 2048
rand_sets[23]: 71
Assign rand_sets[24]: 1127  LLC: 2048
rand_sets[24]: 1127
Assign rand_sets[25]: 1382  LLC: 2048
rand_sets[25]: 1382
Assign rand_sets[26]: 647  LLC: 2048
rand_sets[26]: 647
Assign rand_sets[27]: 857  LLC: 2048
rand_sets[27]: 857
Assign rand_sets[28]: 1450  LLC: 2048
rand_sets[28]: 1450
Assign rand_sets[29]: 1160  LLC: 2048
rand_sets[29]: 1160
Assign rand_sets[30]: 1852  LLC: 2048
rand_sets[30]: 1852
Assign rand_sets[31]: 1881  LLC: 2048
rand_sets[31]: 1881
Assign rand_sets[32]: 1770  LLC: 2048
rand_sets[32]: 1770
Assign rand_sets[33]: 1622  LLC: 2048
rand_sets[33]: 1622
Assign rand_sets[34]: 275  LLC: 2048
rand_sets[34]: 275
Assign rand_sets[35]: 635  LLC: 2048
rand_sets[35]: 635
Assign rand_sets[36]: 466  LLC: 2048
rand_sets[36]: 466
Assign rand_sets[37]: 1413  LLC: 2048
rand_sets[37]: 1413
Assign rand_sets[38]: 417  LLC: 2048
rand_sets[38]: 417
Assign rand_sets[39]: 472  LLC: 2048
rand_sets[39]: 472
Assign rand_sets[40]: 1340  LLC: 2048
rand_sets[40]: 1340
Assign rand_sets[41]: 852  LLC: 2048
rand_sets[41]: 852
Assign rand_sets[42]: 1365  LLC: 2048
rand_sets[42]: 1365
Assign rand_sets[43]: 47  LLC: 2048
rand_sets[43]: 47
Assign rand_sets[44]: 823  LLC: 2048
rand_sets[44]: 823
Assign rand_sets[45]: 686  LLC: 2048
rand_sets[45]: 686
Assign rand_sets[46]: 1637  LLC: 2048
rand_sets[46]: 1637
Assign rand_sets[47]: 1115  LLC: 2048
rand_sets[47]: 1115
Assign rand_sets[48]: 986  LLC: 2048
rand_sets[48]: 986
Assign rand_sets[49]: 258  LLC: 2048
rand_sets[49]: 258
Assign rand_sets[50]: 633  LLC: 2048
rand_sets[50]: 633
Assign rand_sets[51]: 920  LLC: 2048
rand_sets[51]: 920
Assign rand_sets[52]: 204  LLC: 2048
rand_sets[52]: 204
Assign rand_sets[53]: 227  LLC: 2048
rand_sets[53]: 227
Assign rand_sets[54]: 1818  LLC: 2048
rand_sets[54]: 1818
Assign rand_sets[55]: 886  LLC: 2048
rand_sets[55]: 886
Assign rand_sets[56]: 1422  LLC: 2048
rand_sets[56]: 1422
Assign rand_sets[57]: 607  LLC: 2048
rand_sets[57]: 607
Assign rand_sets[58]: 217  LLC: 2048
rand_sets[58]: 217
Assign rand_sets[59]: 1945  LLC: 2048
rand_sets[59]: 1945
Assign rand_sets[60]: 143  LLC: 2048
rand_sets[60]: 143
Assign rand_sets[61]: 1311  LLC: 2048
rand_sets[61]: 1311
Assign rand_sets[62]: 319  LLC: 2048
rand_sets[62]: 319
Assign rand_sets[63]: 1846  LLC: 2048
rand_sets[63]: 1846
 CLEAN-RRIP-POLICY-1: 2-0-0-3-2-3-0-1- CLEAN-RRIP-POLICY-2: 2-0-0-3-2-3-0-1-
 DIRTY-RRIP-POLICY-1: 1-0-0-3-1-3-0-1- DIRTY-RRIP-POLICY-2: 1-0-0-3-1-3-0-1-
 PSEL width: 10
Heartbeat CPU 0 instructions: 10000000 cycles: 4321562 heartbeat IPC: 2.31398 cumulative IPC: 2.31398 (Simulation time: 0 hr 0 min 18 sec) 
Heartbeat CPU 0 instructions: 20000000 cycles: 8643662 heartbeat IPC: 2.31369 cumulative IPC: 2.31383 (Simulation time: 0 hr 0 min 36 sec) 
Heartbeat CPU 0 instructions: 30000000 cycles: 12965507 heartbeat IPC: 2.31383 cumulative IPC: 2.31383 (Simulation time: 0 hr 0 min 54 sec) 
Heartbeat CPU 0 instructions: 40000000 cycles: 17291325 heartbeat IPC: 2.3117 cumulative IPC: 2.3133 (Simulation time: 0 hr 1 min 11 sec) 
Heartbeat CPU 0 instructions: 50000000 cycles: 21613252 heartbeat IPC: 2.31378 cumulative IPC: 2.3134 (Simulation time: 0 hr 1 min 29 sec) 
Heartbeat CPU 0 instructions: 60000000 cycles: 25935212 heartbeat IPC: 2.31377 cumulative IPC: 2.31346 (Simulation time: 0 hr 1 min 47 sec) 
Heartbeat CPU 0 instructions: 70000000 cycles: 30256811 heartbeat IPC: 2.31396 cumulative IPC: 2.31353 (Simulation time: 0 hr 2 min 5 sec) 
Heartbeat CPU 0 instructions: 80000000 cycles: 34583084 heartbeat IPC: 2.31146 cumulative IPC: 2.31327 (Simulation time: 0 hr 2 min 23 sec) 
Heartbeat CPU 0 instructions: 90000003 cycles: 38905204 heartbeat IPC: 2.31368 cumulative IPC: 2.31332 (Simulation time: 0 hr 2 min 40 sec) 
Heartbeat CPU 0 instructions: 100000000 cycles: 43226785 heartbeat IPC: 2.31397 cumulative IPC: 2.31338 (Simulation time: 0 hr 2 min 58 sec) 

Warmup complete CPU 0 instructions: 100000001 cycles: 43226786 (Simulation time: 0 hr 2 min 58 sec) 

Heartbeat CPU 0 instructions: 110000000 cycles: 57955610 heartbeat IPC: 0.678941 cumulative IPC: 0.678941 (Simulation time: 0 hr 3 min 24 sec) 
Heartbeat CPU 0 instructions: 120000000 cycles: 72792592 heartbeat IPC: 0.673992 cumulative IPC: 0.676457 (Simulation time: 0 hr 3 min 50 sec) 
Heartbeat CPU 0 instructions: 130000000 cycles: 87510203 heartbeat IPC: 0.679458 cumulative IPC: 0.677454 (Simulation time: 0 hr 4 min 16 sec) 
Heartbeat CPU 0 instructions: 140000000 cycles: 102177776 heartbeat IPC: 0.681776 cumulative IPC: 0.67853 (Simulation time: 0 hr 4 min 41 sec) 
Heartbeat CPU 0 instructions: 150000003 cycles: 116082632 heartbeat IPC: 0.719173 cumulative IPC: 0.686287 (Simulation time: 0 hr 5 min 6 sec) 
Heartbeat CPU 0 instructions: 160000000 cycles: 130062421 heartbeat IPC: 0.715318 cumulative IPC: 0.690961 (Simulation time: 0 hr 5 min 32 sec) 
Heartbeat CPU 0 instructions: 170000002 cycles: 144820845 heartbeat IPC: 0.677579 cumulative IPC: 0.689017 (Simulation time: 0 hr 5 min 57 sec) 
Heartbeat CPU 0 instructions: 180000000 cycles: 159249005 heartbeat IPC: 0.693089 cumulative IPC: 0.689523 (Simulation time: 0 hr 6 min 23 sec) 
Heartbeat CPU 0 instructions: 190000003 cycles: 176969968 heartbeat IPC: 0.564304 cumulative IPC: 0.672931 (Simulation time: 0 hr 6 min 52 sec) 
Heartbeat CPU 0 instructions: 200000000 cycles: 197902418 heartbeat IPC: 0.477727 cumulative IPC: 0.646514 (Simulation time: 0 hr 7 min 23 sec) 
Heartbeat CPU 0 instructions: 210000001 cycles: 212290271 heartbeat IPC: 0.695031 cumulative IPC: 0.650643 (Simulation time: 0 hr 7 min 49 sec) 
Heartbeat CPU 0 instructions: 220000000 cycles: 226719469 heartbeat IPC: 0.693039 cumulative IPC: 0.653977 (Simulation time: 0 hr 8 min 14 sec) 
Heartbeat CPU 0 instructions: 230000001 cycles: 241468069 heartbeat IPC: 0.678031 cumulative IPC: 0.655767 (Simulation time: 0 hr 8 min 40 sec) 
Heartbeat CPU 0 instructions: 240000000 cycles: 256041891 heartbeat IPC: 0.686162 cumulative IPC: 0.657848 (Simulation time: 0 hr 9 min 6 sec) 
Heartbeat CPU 0 instructions: 250000000 cycles: 271016688 heartbeat IPC: 0.667789 cumulative IPC: 0.658502 (Simulation time: 0 hr 9 min 32 sec) 
Heartbeat CPU 0 instructions: 260000000 cycles: 286129818 heartbeat IPC: 0.661676 cumulative IPC: 0.658699 (Simulation time: 0 hr 9 min 58 sec) 
Heartbeat CPU 0 instructions: 270000002 cycles: 301658947 heartbeat IPC: 0.643951 cumulative IPC: 0.657813 (Simulation time: 0 hr 10 min 25 sec) 
Heartbeat CPU 0 instructions: 280000000 cycles: 317061441 heartbeat IPC: 0.649245 cumulative IPC: 0.657331 (Simulation time: 0 hr 10 min 51 sec) 
Heartbeat CPU 0 instructions: 290000003 cycles: 333149307 heartbeat IPC: 0.621587 cumulative IPC: 0.655348 (Simulation time: 0 hr 11 min 18 sec) 
Heartbeat CPU 0 instructions: 300000000 cycles: 348527413 heartbeat IPC: 0.650275 cumulative IPC: 0.655092 (Simulation time: 0 hr 11 min 45 sec) 
Heartbeat CPU 0 instructions: 310000000 cycles: 365045565 heartbeat IPC: 0.605395 cumulative IPC: 0.652541 (Simulation time: 0 hr 12 min 12 sec) 
Heartbeat CPU 0 instructions: 320000000 cycles: 381288627 heartbeat IPC: 0.615647 cumulative IPC: 0.650769 (Simulation time: 0 hr 12 min 39 sec) 
Heartbeat CPU 0 instructions: 330000002 cycles: 396812164 heartbeat IPC: 0.644183 cumulative IPC: 0.650479 (Simulation time: 0 hr 13 min 6 sec) 
Heartbeat CPU 0 instructions: 340000000 cycles: 413171100 heartbeat IPC: 0.611287 cumulative IPC: 0.648746 (Simulation time: 0 hr 13 min 33 sec) 
Heartbeat CPU 0 instructions: 350000001 cycles: 428662288 heartbeat IPC: 0.645528 cumulative IPC: 0.648617 (Simulation time: 0 hr 13 min 59 sec) 
Heartbeat CPU 0 instructions: 360000000 cycles: 444557758 heartbeat IPC: 0.62911 cumulative IPC: 0.647844 (Simulation time: 0 hr 14 min 26 sec) 
Heartbeat CPU 0 instructions: 370000000 cycles: 459842082 heartbeat IPC: 0.654265 cumulative IPC: 0.64808 (Simulation time: 0 hr 14 min 52 sec) 
Heartbeat CPU 0 instructions: 380000000 cycles: 475284660 heartbeat IPC: 0.64756 cumulative IPC: 0.648061 (Simulation time: 0 hr 15 min 19 sec) 
Heartbeat CPU 0 instructions: 390000000 cycles: 490071281 heartbeat IPC: 0.676287 cumulative IPC: 0.648995 (Simulation time: 0 hr 15 min 45 sec) 
Heartbeat CPU 0 instructions: 400000000 cycles: 504988017 heartbeat IPC: 0.670388 cumulative IPC: 0.649686 (Simulation time: 0 hr 16 min 11 sec) 
Heartbeat CPU 0 instructions: 410000000 cycles: 519708529 heartbeat IPC: 0.679324 cumulative IPC: 0.650602 (Simulation time: 0 hr 16 min 36 sec) 
Heartbeat CPU 0 instructions: 420000000 cycles: 534228596 heartbeat IPC: 0.688702 cumulative IPC: 0.651729 (Simulation time: 0 hr 17 min 2 sec) 
Heartbeat CPU 0 instructions: 430000002 cycles: 548491191 heartbeat IPC: 0.701135 cumulative IPC: 0.653123 (Simulation time: 0 hr 17 min 27 sec) 
Heartbeat CPU 0 instructions: 440000000 cycles: 562666233 heartbeat IPC: 0.705465 cumulative IPC: 0.654552 (Simulation time: 0 hr 17 min 53 sec) 
Heartbeat CPU 0 instructions: 450000000 cycles: 577248517 heartbeat IPC: 0.685764 cumulative IPC: 0.655404 (Simulation time: 0 hr 18 min 18 sec) 
Heartbeat CPU 0 instructions: 460000000 cycles: 592324104 heartbeat IPC: 0.663324 cumulative IPC: 0.655621 (Simulation time: 0 hr 18 min 44 sec) 
Heartbeat CPU 0 instructions: 470000000 cycles: 606907246 heartbeat IPC: 0.685723 cumulative IPC: 0.6564 (Simulation time: 0 hr 19 min 10 sec) 
Heartbeat CPU 0 instructions: 480000000 cycles: 621268956 heartbeat IPC: 0.696296 cumulative IPC: 0.657391 (Simulation time: 0 hr 19 min 36 sec) 
Heartbeat CPU 0 instructions: 490000001 cycles: 636129425 heartbeat IPC: 0.672926 cumulative IPC: 0.657781 (Simulation time: 0 hr 20 min 1 sec) 
Heartbeat CPU 0 instructions: 500000000 cycles: 650617372 heartbeat IPC: 0.690229 cumulative IPC: 0.658555 (Simulation time: 0 hr 20 min 27 sec) 
Heartbeat CPU 0 instructions: 510000002 cycles: 664986291 heartbeat IPC: 0.695947 cumulative IPC: 0.659419 (Simulation time: 0 hr 20 min 53 sec) 
Heartbeat CPU 0 instructions: 520000000 cycles: 679154357 heartbeat IPC: 0.705813 cumulative IPC: 0.660453 (Simulation time: 0 hr 21 min 18 sec) 
Heartbeat CPU 0 instructions: 530000001 cycles: 693686155 heartbeat IPC: 0.688146 cumulative IPC: 0.661071 (Simulation time: 0 hr 21 min 44 sec) 
Heartbeat CPU 0 instructions: 540000000 cycles: 708175857 heartbeat IPC: 0.690145 cumulative IPC: 0.661705 (Simulation time: 0 hr 22 min 9 sec) 
Heartbeat CPU 0 instructions: 550000003 cycles: 722511695 heartbeat IPC: 0.697553 cumulative IPC: 0.662461 (Simulation time: 0 hr 22 min 35 sec) 
Heartbeat CPU 0 instructions: 560000000 cycles: 737457036 heartbeat IPC: 0.669105 cumulative IPC: 0.662604 (Simulation time: 0 hr 23 min 1 sec) 
Heartbeat CPU 0 instructions: 570000001 cycles: 752064603 heartbeat IPC: 0.684577 cumulative IPC: 0.663057 (Simulation time: 0 hr 23 min 26 sec) 
Heartbeat CPU 0 instructions: 580000000 cycles: 765910293 heartbeat IPC: 0.722246 cumulative IPC: 0.664191 (Simulation time: 0 hr 23 min 51 sec) 
Heartbeat CPU 0 instructions: 590000003 cycles: 779079821 heartbeat IPC: 0.759329 cumulative IPC: 0.665894 (Simulation time: 0 hr 24 min 16 sec) 
Heartbeat CPU 0 instructions: 600000000 cycles: 793461611 heartbeat IPC: 0.695324 cumulative IPC: 0.666458 (Simulation time: 0 hr 24 min 42 sec) 
Finished CPU 0 instructions: 500000000 cycles: 750234833 cumulative IPC: 0.666458 (Simulation time: 0 hr 24 min 42 sec) 

CPU 0 Branch Prediction Accuracy: 99.5915% MPKI: 0.037126
Number of Branches: 4544106 Number of Mispredictions: 18563
Number of LOAD Instructions: 149787067
Number of LOAD Instructions (ROI): 149787067
Number of STORE Instructions: 77239062
Number of STORE Instructions (ROI): 77239062
Total Destination Memory Operands: 77239062
Total Destination Memory Operands (ROI): 77239062
Total Source Memory Operands: 149787067
Total Source Memory Operands (ROI): 149787067
Number of DEPENDED LOADS: 19251623
Number of DEPENDED LOADS (ROI): 19251623
Number of SQ_ADDED: 77239036
Number of SQ_ADDED (ROI): 77239036
Number of LQ_ADDED: 149787020
Number of LQ_ADDED (ROI): 149787020
Number of Instructions read from trace: 600000256

ChampSim completed all CPUs

Region of Interest Statistics

CPU 0 cumulative IPC: 0.666458 instructions: 500000000 cycles: 750234833
ITLB TOTAL     ACCESS:   86445607  HIT:   86445606  MISS:          1
ITLB LOAD      ACCESS:   86445607  HIT:   86445606  MISS:          1
ITLB RFO       ACCESS:          0  HIT:          0  MISS:          0
ITLB PREFETCH  ACCESS:          0  HIT:          0  MISS:          0
ITLB WRITEBACK ACCESS:          0  HIT:          0  MISS:          0
ITLB PREFETCH  REQUESTED:          0  ISSUED:          0  USEFUL:          0  USELESS:          0
ITLB TOTAL MSHR MERGED:          1
ITLB LOAD MSHR MERGED:          1
ITLB RFO MSHR MERGED:          0
ITLB PREFETCH MSHR MERGED:          0
ITLB WRITEBACK MSHR MERGED:          0
ITLB TOTAL ACCESSES:   86445608 HITS:   86445606 MISSES:          2
ITLB LOAD ACCESSES:   86445608 HITS:   86445606 MISSES:          2
ITLB RFO ACCESSES:          0 HITS:          0 MISSES:          0
ITLB PREFETCH ACCESSES:          0 HITS:          0 MISSES:          0
ITLB WRITEBACK ACCESSES:          0 HITS:          0 MISSES:          0
ITLB RQ ACCESS:  500000002
ITLB RQ TO_CACHE:   86445608
ITLB RQ MERGED:  413554394
ITLB RQ FORWARD:          0
ITLB WQ ACCESS:          0
ITLB WQ TO_CACHE:          0
ITLB WQ MERGED:          0
ITLB WQ FORWARD:          0
DTLB TOTAL     ACCESS:   98097009  HIT:   97911748  MISS:     185261
DTLB LOAD      ACCESS:   55037024  HIT:   54990713  MISS:      46311
DTLB RFO       ACCESS:   43059985  HIT:   42921035  MISS:     138950
DTLB PREFETCH  ACCESS:          0  HIT:          0  MISS:          0
DTLB WRITEBACK ACCESS:          0  HIT:          0  MISS:          0
DTLB PREFETCH  REQUESTED:          0  ISSUED:          0  USEFUL:          0  USELESS:          0
DTLB TOTAL MSHR MERGED:      83581
DTLB LOAD MSHR MERGED:      83574
DTLB RFO MSHR MERGED:          7
DTLB PREFETCH MSHR MERGED:          0
DTLB WRITEBACK MSHR MERGED:          0
DTLB TOTAL ACCESSES:   98180590 HITS:   97911748 MISSES:     268842
DTLB LOAD ACCESSES:   55120598 HITS:   54990713 MISSES:     129885
DTLB RFO ACCESSES:   43059992 HITS:   42921035 MISSES:     138957
DTLB PREFETCH ACCESSES:          0 HITS:          0 MISSES:          0
DTLB WRITEBACK ACCESSES:          0 HITS:          0 MISSES:          0
DTLB RQ ACCESS:  173630904
DTLB RQ TO_CACHE:   98180590
DTLB RQ MERGED:   75450314
DTLB RQ FORWARD:          0
DTLB WQ ACCESS:          0
DTLB WQ TO_CACHE:          0
DTLB WQ MERGED:          0
DTLB WQ FORWARD:          0
L1D TOTAL     ACCESS:  164476170  HIT:  144903620  MISS:   19572550
L1D LOAD      ACCESS:   60458419  HIT:   58606496  MISS:    1851923
L1D RFO       ACCESS:   64512935  HIT:   47910802  MISS:   16602133
L1D PREFETCH  ACCESS:   39504816  HIT:   38386322  MISS:    1118494
L1D WRITEBACK ACCESS:          0  HIT:          0  MISS:          0
L1D PREFETCH  REQUESTED:   61591736  ISSUED:   61300518  USEFUL:    1116579  USELESS:       1916
L1D TOTAL MSHR MERGED:    3459551
L1D LOAD MSHR MERGED:    1203026
L1D RFO MSHR MERGED:      11115
L1D PREFETCH MSHR MERGED:    2245410
L1D WRITEBACK MSHR MERGED:          0
L1D TOTAL ACCESSES:  168525600 HITS:  145493499 MISSES:   23032101
L1D LOAD ACCESSES:   61875366 HITS:   58890126 MISSES:    2985240
L1D RFO ACCESSES:   64524007 HITS:   47910802 MISSES:   16613205
L1D PREFETCH ACCESSES:   42126227 HITS:   38692571 MISSES:    3433656
L1D WRITEBACK ACCESSES:          0 HITS:          0 MISSES:          0
L1D RQ ACCESS:  109089589
L1D RQ TO_CACHE:   61591736
L1D RQ MERGED:   47214223
L1D RQ FORWARD:          0
L1D WQ ACCESS:   64541313
L1D WQ TO_CACHE:   64524008
L1D WQ MERGED:      17305
L1D WQ FORWARD:     589879
L1I TOTAL     ACCESS:  107755500  HIT:  107755492  MISS:          8
L1I LOAD      ACCESS:  107755500  HIT:  107755492  MISS:          8
L1I RFO       ACCESS:          0  HIT:          0  MISS:          0
L1I PREFETCH  ACCESS:          0  HIT:          0  MISS:          0
L1I WRITEBACK ACCESS:          0  HIT:          0  MISS:          0
L1I PREFETCH  REQUESTED:          0  ISSUED:          0  USEFUL:          0  USELESS:          0
L1I TOTAL MSHR MERGED:          3
L1I LOAD MSHR MERGED:          3
L1I RFO MSHR MERGED:          0
L1I PREFETCH MSHR MERGED:          0
L1I WRITEBACK MSHR MERGED:          0
L1I TOTAL ACCESSES:  107755503 HITS:  107755492 MISSES:         11
L1I LOAD ACCESSES:  107755503 HITS:  107755492 MISSES:         11
L1I RFO ACCESSES:          0 HITS:          0 MISSES:          0
L1I PREFETCH ACCESSES:          0 HITS:          0 MISSES:          0
L1I WRITEBACK ACCESSES:          0 HITS:          0 MISSES:          0
L1I RQ ACCESS:  500000007
L1I RQ TO_CACHE:  107755503
L1I RQ MERGED:  392244504
L1I RQ FORWARD:          0
L1I WQ ACCESS:          0
L1I WQ TO_CACHE:          0
L1I WQ MERGED:          0
L1I WQ FORWARD:          0
L2C TOTAL     ACCESS:   36781104  HIT:   24823518  MISS:   11957586
L2C LOAD      ACCESS:    1782222  HIT:     246032  MISS:    1536190
L2C RFO       ACCESS:   16602089  HIT:    7610706  MISS:    8991383
L2C PREFETCH  ACCESS:    1794610  HIT:     365823  MISS:    1428787
L2C WRITEBACK ACCESS:   16602183  HIT:   16600957  MISS:       1226
L2C PREFETCH  REQUESTED:     817176  ISSUED:     817176  USEFUL:     243684  USELESS:    1185384
L2C TOTAL MSHR MERGED:       2639
L2C LOAD MSHR MERGED:        620
L2C RFO MSHR MERGED:          0
L2C PREFETCH MSHR MERGED:       2019
L2C WRITEBACK MSHR MERGED:          0
L2C TOTAL ACCESSES:   36991853 HITS:   24823520 MISSES:   12168333
L2C LOAD ACCESSES:    1782222 HITS:     246032 MISSES:    1536190
L2C RFO ACCESSES:   16602090 HITS:    7610708 MISSES:    8991382
L2C PREFETCH ACCESSES:    2005358 HITS:     365823 MISSES:    1639535
L2C WRITEBACK ACCESSES:   16602183 HITS:   16600957 MISSES:       1226
L2C RQ ACCESS:   18384312
L2C RQ TO_CACHE:   18384310
L2C RQ MERGED:          0
L2C RQ FORWARD:          0
L2C WQ ACCESS:   16602183
L2C WQ TO_CACHE:   16602183
L2C WQ MERGED:          0
L2C WQ FORWARD:          2
LLC TOTAL     ACCESS:   21153244  HIT:     657339  MISS:   20495905
LLC LOAD      ACCESS:    1535570  HIT:      75270  MISS:    1460300
LLC RFO       ACCESS:    8991369  HIT:     162904  MISS:    8828465
LLC PREFETCH  ACCESS:    1634100  HIT:     129177  MISS:    1504923
LLC WRITEBACK ACCESS:    8992205  HIT:     289988  MISS:    8702217
LLC PREFETCH  REQUESTED:          0  ISSUED:          0  USEFUL:      74975  USELESS:    1429509
LLC TOTAL MSHR MERGED:       3007
LLC LOAD MSHR MERGED:        263
LLC RFO MSHR MERGED:          0
LLC PREFETCH MSHR MERGED:       2744
LLC WRITEBACK MSHR MERGED:          0
LLC TOTAL ACCESSES:   21156264 HITS:     657353 MISSES:   20498911
LLC LOAD ACCESSES:    1535570 HITS:      75270 MISSES:    1460300
LLC RFO ACCESSES:    8991382 HITS:     162918 MISSES:    8828464
LLC PREFETCH ACCESSES:    1637107 HITS:     129177 MISSES:    1507930
LLC WRITEBACK ACCESSES:    8992205 HITS:     289988 MISSES:    8702217
LLC 0 RQ ACCESS:   10526952
LLC 0 RQ TO_CACHE:   10526938
LLC 0 RQ MERGED:          0
LLC 0 RQ FORWARD:          0
LLC WQ ACCESS:    8992205
LLC WQ TO_CACHE:    8992205
LLC WQ MERGED:          0
LLC WQ FORWARD:         14
Major fault: 0 Minor fault: 102360
CPU 0 L1D next line prefetcher final stats
CPU 0 L2C PC-based stride prefetcher final stats
All Misses: 24337201
All Hits: 791554
SD Algo Stats - Switches: 0 SRR-Repls: 1638865 BRR-Repls: 0

DRAM Statistics
 CHANNEL 0
 RQ ROW_BUFFER_HIT:    3727267  ROW_BUFFER_MISS:    8066206
 DBUS_CONGESTED:   14253455
 WQ ROW_BUFFER_HIT:    1087879  ROW_BUFFER_MISS:    7745468  FULL:          0

 AVG_CONGESTED_CYCLE: 13
LOADS RETIRED: 124982196
INSTR RETIRED: 500000000
