
*** ChampSim Multicore Out-of-Order Simulator ***

Warmup Instructions: 100000000
Simulation Instructions: 500000000
Number of CPUs: 1
LLC sets: 2048
LLC ways: 16
Clean RRIP Policies: 1213030112130301 Dirty RRIP Policies: 2213130122131301 PSEL Width: 10 Track Set: 4294967295 PSEL Mask: 1 Demote Mask: 3340201233402012DS Algo: 0Window size: 0
Off-chip DRAM Size: 4096 MB Channels: 1 Width: 64-bit Data Rate: 1600 MT/s

CPU 0 runs /mnt/beegfs/iconst01/spec2017/Gcc.trace.gz
NOT SORTED
TRACE STRING: /mnt/beegfs/iconst01/spec2017/Gcc.trace.gz
SORTED
TRACE STRING: /mnt/beegfs/iconst01/spec2017/Gcc.trace.gz
INITIAL
TRACE STRING: /mnt/beegfs/iconst01/spec2017/Gcc.trace.gz

champsim_seed used: 269

CPU 0 L1D next line prefetcher
CPU 0 L2C IP-based stride prefetcher
Initialize DRRIP state
Assign rand_sets[0]: 454  LLC: 2048
rand_sets[0]: 454
Assign rand_sets[1]: 1662  LLC: 2048
rand_sets[1]: 1662
Assign rand_sets[2]: 1921  LLC: 2048
rand_sets[2]: 1921
Assign rand_sets[3]: 1131  LLC: 2048
rand_sets[3]: 1131
Assign rand_sets[4]: 331  LLC: 2048
rand_sets[4]: 331
Assign rand_sets[5]: 1531  LLC: 2048
rand_sets[5]: 1531
Assign rand_sets[6]: 482  LLC: 2048
rand_sets[6]: 482
Assign rand_sets[7]: 1275  LLC: 2048
rand_sets[7]: 1275
Assign rand_sets[8]: 1876  LLC: 2048
rand_sets[8]: 1876
Assign rand_sets[9]: 2038  LLC: 2048
rand_sets[9]: 2038
Assign rand_sets[10]: 701  LLC: 2048
rand_sets[10]: 701
Assign rand_sets[11]: 479  LLC: 2048
rand_sets[11]: 479
Assign rand_sets[12]: 892  LLC: 2048
rand_sets[12]: 892
Assign rand_sets[13]: 1820  LLC: 2048
rand_sets[13]: 1820
Assign rand_sets[14]: 1505  LLC: 2048
rand_sets[14]: 1505
Assign rand_sets[15]: 1159  LLC: 2048
rand_sets[15]: 1159
Assign rand_sets[16]: 513  LLC: 2048
rand_sets[16]: 513
Assign rand_sets[17]: 703  LLC: 2048
rand_sets[17]: 703
Assign rand_sets[18]: 561  LLC: 2048
rand_sets[18]: 561
Assign rand_sets[19]: 990  LLC: 2048
rand_sets[19]: 990
Assign rand_sets[20]: 342  LLC: 2048
rand_sets[20]: 342
Assign rand_sets[21]: 882  LLC: 2048
rand_sets[21]: 882
Assign rand_sets[22]: 15  LLC: 2048
rand_sets[22]: 15
Assign rand_sets[23]: 71  LLC: 2048
rand_sets[23]: 71
Assign rand_sets[24]: 1127  LLC: 2048
rand_sets[24]: 1127
Assign rand_sets[25]: 1382  LLC: 2048
rand_sets[25]: 1382
Assign rand_sets[26]: 647  LLC: 2048
rand_sets[26]: 647
Assign rand_sets[27]: 857  LLC: 2048
rand_sets[27]: 857
Assign rand_sets[28]: 1450  LLC: 2048
rand_sets[28]: 1450
Assign rand_sets[29]: 1160  LLC: 2048
rand_sets[29]: 1160
Assign rand_sets[30]: 1852  LLC: 2048
rand_sets[30]: 1852
Assign rand_sets[31]: 1881  LLC: 2048
rand_sets[31]: 1881
Assign rand_sets[32]: 1770  LLC: 2048
rand_sets[32]: 1770
Assign rand_sets[33]: 1622  LLC: 2048
rand_sets[33]: 1622
Assign rand_sets[34]: 275  LLC: 2048
rand_sets[34]: 275
Assign rand_sets[35]: 635  LLC: 2048
rand_sets[35]: 635
Assign rand_sets[36]: 466  LLC: 2048
rand_sets[36]: 466
Assign rand_sets[37]: 1413  LLC: 2048
rand_sets[37]: 1413
Assign rand_sets[38]: 417  LLC: 2048
rand_sets[38]: 417
Assign rand_sets[39]: 472  LLC: 2048
rand_sets[39]: 472
Assign rand_sets[40]: 1340  LLC: 2048
rand_sets[40]: 1340
Assign rand_sets[41]: 852  LLC: 2048
rand_sets[41]: 852
Assign rand_sets[42]: 1365  LLC: 2048
rand_sets[42]: 1365
Assign rand_sets[43]: 47  LLC: 2048
rand_sets[43]: 47
Assign rand_sets[44]: 823  LLC: 2048
rand_sets[44]: 823
Assign rand_sets[45]: 686  LLC: 2048
rand_sets[45]: 686
Assign rand_sets[46]: 1637  LLC: 2048
rand_sets[46]: 1637
Assign rand_sets[47]: 1115  LLC: 2048
rand_sets[47]: 1115
Assign rand_sets[48]: 986  LLC: 2048
rand_sets[48]: 986
Assign rand_sets[49]: 258  LLC: 2048
rand_sets[49]: 258
Assign rand_sets[50]: 633  LLC: 2048
rand_sets[50]: 633
Assign rand_sets[51]: 920  LLC: 2048
rand_sets[51]: 920
Assign rand_sets[52]: 204  LLC: 2048
rand_sets[52]: 204
Assign rand_sets[53]: 227  LLC: 2048
rand_sets[53]: 227
Assign rand_sets[54]: 1818  LLC: 2048
rand_sets[54]: 1818
Assign rand_sets[55]: 886  LLC: 2048
rand_sets[55]: 886
Assign rand_sets[56]: 1422  LLC: 2048
rand_sets[56]: 1422
Assign rand_sets[57]: 607  LLC: 2048
rand_sets[57]: 607
Assign rand_sets[58]: 217  LLC: 2048
rand_sets[58]: 217
Assign rand_sets[59]: 1945  LLC: 2048
rand_sets[59]: 1945
Assign rand_sets[60]: 143  LLC: 2048
rand_sets[60]: 143
Assign rand_sets[61]: 1311  LLC: 2048
rand_sets[61]: 1311
Assign rand_sets[62]: 319  LLC: 2048
rand_sets[62]: 319
Assign rand_sets[63]: 1846  LLC: 2048
rand_sets[63]: 1846
 CLEAN-RRIP-POLICY-1: 1-2-1-3-0-3-0-1- CLEAN-RRIP-POLICY-2: 1-2-1-3-0-3-0-1-
 DIRTY-RRIP-POLICY-1: 2-2-1-3-1-3-0-1- DIRTY-RRIP-POLICY-2: 2-2-1-3-1-3-0-1-
 PSEL width: 10
Heartbeat CPU 0 instructions: 10000001 cycles: 7315982 heartbeat IPC: 1.36687 cumulative IPC: 1.36687 (Simulation time: 0 hr 0 min 14 sec) 
Heartbeat CPU 0 instructions: 20000000 cycles: 14307494 heartbeat IPC: 1.43031 cumulative IPC: 1.39787 (Simulation time: 0 hr 0 min 28 sec) 
Heartbeat CPU 0 instructions: 30000001 cycles: 21020548 heartbeat IPC: 1.48964 cumulative IPC: 1.42718 (Simulation time: 0 hr 0 min 43 sec) 
Heartbeat CPU 0 instructions: 40000000 cycles: 27481413 heartbeat IPC: 1.54778 cumulative IPC: 1.45553 (Simulation time: 0 hr 0 min 59 sec) 
Heartbeat CPU 0 instructions: 50000001 cycles: 33583220 heartbeat IPC: 1.63886 cumulative IPC: 1.48884 (Simulation time: 0 hr 1 min 14 sec) 
Heartbeat CPU 0 instructions: 60000000 cycles: 40064433 heartbeat IPC: 1.54292 cumulative IPC: 1.49759 (Simulation time: 0 hr 1 min 29 sec) 
Heartbeat CPU 0 instructions: 70000000 cycles: 47103182 heartbeat IPC: 1.42071 cumulative IPC: 1.4861 (Simulation time: 0 hr 1 min 43 sec) 
Heartbeat CPU 0 instructions: 80000000 cycles: 54192787 heartbeat IPC: 1.41052 cumulative IPC: 1.47621 (Simulation time: 0 hr 1 min 57 sec) 
Heartbeat CPU 0 instructions: 90000003 cycles: 61197122 heartbeat IPC: 1.42769 cumulative IPC: 1.47066 (Simulation time: 0 hr 2 min 12 sec) 
Heartbeat CPU 0 instructions: 100000000 cycles: 68364490 heartbeat IPC: 1.39521 cumulative IPC: 1.46275 (Simulation time: 0 hr 2 min 26 sec) 

Warmup complete CPU 0 instructions: 100000004 cycles: 68364491 (Simulation time: 0 hr 2 min 26 sec) 

Heartbeat CPU 0 instructions: 110000003 cycles: 96033123 heartbeat IPC: 0.36142 cumulative IPC: 0.36142 (Simulation time: 0 hr 2 min 53 sec) 
Heartbeat CPU 0 instructions: 120000000 cycles: 123506330 heartbeat IPC: 0.363991 cumulative IPC: 0.362701 (Simulation time: 0 hr 3 min 20 sec) 
Heartbeat CPU 0 instructions: 130000000 cycles: 148501040 heartbeat IPC: 0.400085 cumulative IPC: 0.374361 (Simulation time: 0 hr 3 min 48 sec) 
Heartbeat CPU 0 instructions: 140000000 cycles: 178011334 heartbeat IPC: 0.338865 cumulative IPC: 0.364808 (Simulation time: 0 hr 4 min 14 sec) 
Heartbeat CPU 0 instructions: 150000000 cycles: 207881190 heartbeat IPC: 0.334786 cumulative IPC: 0.35838 (Simulation time: 0 hr 4 min 42 sec) 
Heartbeat CPU 0 instructions: 160000000 cycles: 235298565 heartbeat IPC: 0.364732 cumulative IPC: 0.359423 (Simulation time: 0 hr 5 min 8 sec) 
Heartbeat CPU 0 instructions: 170000001 cycles: 263346196 heartbeat IPC: 0.356536 cumulative IPC: 0.359008 (Simulation time: 0 hr 5 min 37 sec) 
Heartbeat CPU 0 instructions: 180000000 cycles: 291810344 heartbeat IPC: 0.351319 cumulative IPC: 0.358029 (Simulation time: 0 hr 6 min 4 sec) 
Heartbeat CPU 0 instructions: 190000002 cycles: 319846512 heartbeat IPC: 0.356682 cumulative IPC: 0.357878 (Simulation time: 0 hr 6 min 32 sec) 
Heartbeat CPU 0 instructions: 200000000 cycles: 348191614 heartbeat IPC: 0.352795 cumulative IPC: 0.357363 (Simulation time: 0 hr 7 min 0 sec) 
Heartbeat CPU 0 instructions: 210000002 cycles: 376049788 heartbeat IPC: 0.358961 cumulative IPC: 0.357508 (Simulation time: 0 hr 7 min 27 sec) 
Heartbeat CPU 0 instructions: 220000000 cycles: 405188237 heartbeat IPC: 0.343189 cumulative IPC: 0.356269 (Simulation time: 0 hr 7 min 53 sec) 
Heartbeat CPU 0 instructions: 230000000 cycles: 432758031 heartbeat IPC: 0.362716 cumulative IPC: 0.356757 (Simulation time: 0 hr 8 min 20 sec) 
Heartbeat CPU 0 instructions: 240000000 cycles: 458691491 heartbeat IPC: 0.385602 cumulative IPC: 0.358674 (Simulation time: 0 hr 8 min 46 sec) 
Heartbeat CPU 0 instructions: 250000000 cycles: 488836772 heartbeat IPC: 0.331727 cumulative IPC: 0.356742 (Simulation time: 0 hr 9 min 15 sec) 
Heartbeat CPU 0 instructions: 260000000 cycles: 515955557 heartbeat IPC: 0.368748 cumulative IPC: 0.357469 (Simulation time: 0 hr 9 min 41 sec) 
Heartbeat CPU 0 instructions: 270000003 cycles: 544426813 heartbeat IPC: 0.351232 cumulative IPC: 0.357096 (Simulation time: 0 hr 10 min 10 sec) 
Heartbeat CPU 0 instructions: 280000000 cycles: 572638842 heartbeat IPC: 0.354459 cumulative IPC: 0.356949 (Simulation time: 0 hr 10 min 38 sec) 
Heartbeat CPU 0 instructions: 290000000 cycles: 601538358 heartbeat IPC: 0.346027 cumulative IPC: 0.356357 (Simulation time: 0 hr 11 min 7 sec) 
Heartbeat CPU 0 instructions: 300000000 cycles: 631459746 heartbeat IPC: 0.334209 cumulative IPC: 0.35518 (Simulation time: 0 hr 11 min 34 sec) 
Heartbeat CPU 0 instructions: 310000001 cycles: 660829094 heartbeat IPC: 0.340491 cumulative IPC: 0.354452 (Simulation time: 0 hr 12 min 1 sec) 
Heartbeat CPU 0 instructions: 320000000 cycles: 689045633 heartbeat IPC: 0.354402 cumulative IPC: 0.354449 (Simulation time: 0 hr 12 min 27 sec) 
Heartbeat CPU 0 instructions: 330000000 cycles: 717681604 heartbeat IPC: 0.349211 cumulative IPC: 0.354218 (Simulation time: 0 hr 12 min 54 sec) 
Heartbeat CPU 0 instructions: 340000000 cycles: 746956959 heartbeat IPC: 0.341584 cumulative IPC: 0.353673 (Simulation time: 0 hr 13 min 21 sec) 
Heartbeat CPU 0 instructions: 350000003 cycles: 773992130 heartbeat IPC: 0.369889 cumulative IPC: 0.354295 (Simulation time: 0 hr 13 min 47 sec) 
Heartbeat CPU 0 instructions: 360000000 cycles: 802116297 heartbeat IPC: 0.355566 cumulative IPC: 0.354343 (Simulation time: 0 hr 14 min 12 sec) 
Heartbeat CPU 0 instructions: 370000000 cycles: 830291718 heartbeat IPC: 0.354919 cumulative IPC: 0.354365 (Simulation time: 0 hr 14 min 37 sec) 
Heartbeat CPU 0 instructions: 380000000 cycles: 858804596 heartbeat IPC: 0.350719 cumulative IPC: 0.354233 (Simulation time: 0 hr 15 min 3 sec) 
Heartbeat CPU 0 instructions: 390000001 cycles: 886418190 heartbeat IPC: 0.362141 cumulative IPC: 0.3545 (Simulation time: 0 hr 15 min 28 sec) 
Heartbeat CPU 0 instructions: 400000000 cycles: 915040802 heartbeat IPC: 0.349374 cumulative IPC: 0.354327 (Simulation time: 0 hr 15 min 54 sec) 
Heartbeat CPU 0 instructions: 410000001 cycles: 942321490 heartbeat IPC: 0.36656 cumulative IPC: 0.354709 (Simulation time: 0 hr 16 min 19 sec) 
Heartbeat CPU 0 instructions: 420000000 cycles: 969621271 heartbeat IPC: 0.366303 cumulative IPC: 0.35506 (Simulation time: 0 hr 16 min 44 sec) 
Heartbeat CPU 0 instructions: 430000002 cycles: 997324719 heartbeat IPC: 0.360966 cumulative IPC: 0.355236 (Simulation time: 0 hr 17 min 9 sec) 
Heartbeat CPU 0 instructions: 440000000 cycles: 1026912449 heartbeat IPC: 0.337978 cumulative IPC: 0.354703 (Simulation time: 0 hr 17 min 34 sec) 
Heartbeat CPU 0 instructions: 450000002 cycles: 1056147660 heartbeat IPC: 0.342053 cumulative IPC: 0.354329 (Simulation time: 0 hr 18 min 0 sec) 
Heartbeat CPU 0 instructions: 460000000 cycles: 1083844123 heartbeat IPC: 0.361057 cumulative IPC: 0.354512 (Simulation time: 0 hr 18 min 25 sec) 
Heartbeat CPU 0 instructions: 470000000 cycles: 1111476601 heartbeat IPC: 0.361893 cumulative IPC: 0.354708 (Simulation time: 0 hr 18 min 50 sec) 
Heartbeat CPU 0 instructions: 480000000 cycles: 1139350564 heartbeat IPC: 0.358758 cumulative IPC: 0.354813 (Simulation time: 0 hr 19 min 15 sec) 
Heartbeat CPU 0 instructions: 490000000 cycles: 1166937300 heartbeat IPC: 0.362493 cumulative IPC: 0.355006 (Simulation time: 0 hr 19 min 40 sec) 
Heartbeat CPU 0 instructions: 500000000 cycles: 1195263208 heartbeat IPC: 0.353034 cumulative IPC: 0.354956 (Simulation time: 0 hr 20 min 6 sec) 
Heartbeat CPU 0 instructions: 510000000 cycles: 1229769479 heartbeat IPC: 0.289802 cumulative IPC: 0.353021 (Simulation time: 0 hr 20 min 35 sec) 
Heartbeat CPU 0 instructions: 520000000 cycles: 1257834269 heartbeat IPC: 0.356318 cumulative IPC: 0.353099 (Simulation time: 0 hr 21 min 1 sec) 
Heartbeat CPU 0 instructions: 530000001 cycles: 1287222658 heartbeat IPC: 0.34027 cumulative IPC: 0.352789 (Simulation time: 0 hr 21 min 27 sec) 
Heartbeat CPU 0 instructions: 540000000 cycles: 1315278575 heartbeat IPC: 0.356431 cumulative IPC: 0.352871 (Simulation time: 0 hr 21 min 53 sec) 
Heartbeat CPU 0 instructions: 550000001 cycles: 1344480392 heartbeat IPC: 0.342444 cumulative IPC: 0.352633 (Simulation time: 0 hr 22 min 21 sec) 
Heartbeat CPU 0 instructions: 560000000 cycles: 1369877608 heartbeat IPC: 0.393744 cumulative IPC: 0.353435 (Simulation time: 0 hr 22 min 47 sec) 
Heartbeat CPU 0 instructions: 570000000 cycles: 1399423796 heartbeat IPC: 0.338453 cumulative IPC: 0.353102 (Simulation time: 0 hr 23 min 14 sec) 
Heartbeat CPU 0 instructions: 580000000 cycles: 1427400629 heartbeat IPC: 0.357439 cumulative IPC: 0.353191 (Simulation time: 0 hr 23 min 40 sec) 
Heartbeat CPU 0 instructions: 590000001 cycles: 1452156719 heartbeat IPC: 0.403941 cumulative IPC: 0.354099 (Simulation time: 0 hr 24 min 5 sec) 
Heartbeat CPU 0 instructions: 600000000 cycles: 1478250871 heartbeat IPC: 0.383228 cumulative IPC: 0.354639 (Simulation time: 0 hr 24 min 30 sec) 
Finished CPU 0 instructions: 500000000 cycles: 1409886402 cumulative IPC: 0.354638 (Simulation time: 0 hr 24 min 30 sec) 

CPU 0 Branch Prediction Accuracy: 86.4311% MPKI: 26.2662
Number of Branches: 96788573 Number of Mispredictions: 13133102
Number of LOAD Instructions: 164682285
Number of LOAD Instructions (ROI): 164682285
Number of STORE Instructions: 78194750
Number of STORE Instructions (ROI): 78194750
Total Destination Memory Operands: 83268534
Total Destination Memory Operands (ROI): 83268534
Total Source Memory Operands: 164712438
Total Source Memory Operands (ROI): 164712438
Number of DEPENDED LOADS: 7057509
Number of DEPENDED LOADS (ROI): 7057509
Number of SQ_ADDED: 83268522
Number of SQ_ADDED (ROI): 83268522
Number of LQ_ADDED: 236800904
Number of LQ_ADDED (ROI): 236800904
Number of Instructions read from trace: 600000066

ChampSim completed all CPUs

Region of Interest Statistics

CPU 0 cumulative IPC: 0.354638 instructions: 500000000 cycles: 1409886402
ITLB TOTAL     ACCESS:  100520827  HIT:  100316381  MISS:     204446
ITLB LOAD      ACCESS:  100520827  HIT:  100316381  MISS:     204446
ITLB RFO       ACCESS:          0  HIT:          0  MISS:          0
ITLB PREFETCH  ACCESS:          0  HIT:          0  MISS:          0
ITLB WRITEBACK ACCESS:          0  HIT:          0  MISS:          0
ITLB PREFETCH  REQUESTED:          0  ISSUED:          0  USEFUL:          0  USELESS:          0
ITLB TOTAL MSHR MERGED:     172424
ITLB LOAD MSHR MERGED:     172424
ITLB RFO MSHR MERGED:          0
ITLB PREFETCH MSHR MERGED:          0
ITLB WRITEBACK MSHR MERGED:          0
ITLB TOTAL ACCESSES:  100693251 HITS:  100316381 MISSES:     376870
ITLB LOAD ACCESSES:  100693251 HITS:  100316381 MISSES:     376870
ITLB RFO ACCESSES:          0 HITS:          0 MISSES:          0
ITLB PREFETCH ACCESSES:          0 HITS:          0 MISSES:          0
ITLB WRITEBACK ACCESSES:          0 HITS:          0 MISSES:          0
ITLB RQ ACCESS:  500000057
ITLB RQ TO_CACHE:  100693251
ITLB RQ MERGED:  399306806
ITLB RQ FORWARD:          0
ITLB WQ ACCESS:          0
ITLB WQ TO_CACHE:          0
ITLB WQ MERGED:          0
ITLB WQ FORWARD:          0
DTLB TOTAL     ACCESS:  165338480  HIT:  164704128  MISS:     634352
DTLB LOAD      ACCESS:  106293907  HIT:  105723957  MISS:     569950
DTLB RFO       ACCESS:   59044573  HIT:   58980171  MISS:      64402
DTLB PREFETCH  ACCESS:          0  HIT:          0  MISS:          0
DTLB WRITEBACK ACCESS:          0  HIT:          0  MISS:          0
DTLB PREFETCH  REQUESTED:          0  ISSUED:          0  USEFUL:          0  USELESS:          0
DTLB TOTAL MSHR MERGED:      99952
DTLB LOAD MSHR MERGED:      59430
DTLB RFO MSHR MERGED:      40522
DTLB PREFETCH MSHR MERGED:          0
DTLB WRITEBACK MSHR MERGED:          0
DTLB TOTAL ACCESSES:  165438432 HITS:  164704128 MISSES:     734304
DTLB LOAD ACCESSES:  106353337 HITS:  105723957 MISSES:     629380
DTLB RFO ACCESSES:   59085095 HITS:   58980171 MISSES:     104924
DTLB PREFETCH ACCESSES:          0 HITS:          0 MISSES:          0
DTLB WRITEBACK ACCESSES:          0 HITS:          0 MISSES:          0
DTLB RQ ACCESS:  200313382
DTLB RQ TO_CACHE:  165438432
DTLB RQ MERGED:   34874950
DTLB RQ FORWARD:          0
DTLB WQ ACCESS:          0
DTLB WQ TO_CACHE:          0
DTLB WQ MERGED:          0
DTLB WQ FORWARD:          0
L1D TOTAL     ACCESS:  281829738  HIT:  273920387  MISS:    7909351
L1D LOAD      ACCESS:  110418574  HIT:  107140158  MISS:    3278416
L1D RFO       ACCESS:   67114811  HIT:   66224029  MISS:     890782
L1D PREFETCH  ACCESS:  104296353  HIT:  100556200  MISS:    3740153
L1D WRITEBACK ACCESS:          0  HIT:          0  MISS:          0
L1D PREFETCH  REQUESTED:  110819049  ISSUED:  109119745  USEFUL:    1660867  USELESS:    2079250
L1D TOTAL MSHR MERGED:    2878181
L1D LOAD MSHR MERGED:     498351
L1D RFO MSHR MERGED:    1871241
L1D PREFETCH MSHR MERGED:     508589
L1D WRITEBACK MSHR MERGED:          0
L1D TOTAL ACCESSES:  284735420 HITS:  273947888 MISSES:   10787532
L1D LOAD ACCESSES:  110820525 HITS:  107141634 MISSES:    3678891
L1D RFO ACCESSES:   68974077 HITS:   66224029 MISSES:    2750048
L1D PREFETCH ACCESSES:  104940818 HITS:  100582225 MISSES:    4358593
L1D WRITEBACK ACCESSES:          0 HITS:          0 MISSES:          0
L1D RQ ACCESS:  130760779
L1D RQ TO_CACHE:  110819052
L1D RQ MERGED:   19940251
L1D RQ FORWARD:          0
L1D WQ ACCESS:   69552603
L1D WQ TO_CACHE:   68974078
L1D WQ MERGED:     578525
L1D WQ FORWARD:      27501
L1I TOTAL     ACCESS:  126568142  HIT:  122329590  MISS:    4238552
L1I LOAD      ACCESS:  126568142  HIT:  122329590  MISS:    4238552
L1I RFO       ACCESS:          0  HIT:          0  MISS:          0
L1I PREFETCH  ACCESS:          0  HIT:          0  MISS:          0
L1I WRITEBACK ACCESS:          0  HIT:          0  MISS:          0
L1I PREFETCH  REQUESTED:          0  ISSUED:          0  USEFUL:          0  USELESS:          0
L1I TOTAL MSHR MERGED:    1834662
L1I LOAD MSHR MERGED:    1834662
L1I RFO MSHR MERGED:          0
L1I PREFETCH MSHR MERGED:          0
L1I WRITEBACK MSHR MERGED:          0
L1I TOTAL ACCESSES:  128402807 HITS:  122329590 MISSES:    6073217
L1I LOAD ACCESSES:  128402807 HITS:  122329590 MISSES:    6073217
L1I RFO ACCESSES:          0 HITS:          0 MISSES:          0
L1I PREFETCH ACCESSES:          0 HITS:          0 MISSES:          0
L1I WRITEBACK ACCESSES:          0 HITS:          0 MISSES:          0
L1I RQ ACCESS:  500000057
L1I RQ TO_CACHE:  128402807
L1I RQ MERGED:  371597250
L1I RQ FORWARD:          0
L1I WQ ACCESS:          0
L1I WQ TO_CACHE:          0
L1I WQ MERGED:          0
L1I WQ FORWARD:          0
L2C TOTAL     ACCESS:   14904990  HIT:   11158517  MISS:    3746473
L2C LOAD      ACCESS:    7418882  HIT:    5098820  MISS:    2320062
L2C RFO       ACCESS:     878710  HIT:     409904  MISS:     468806
L2C PREFETCH  ACCESS:    4568151  HIT:    3627800  MISS:     940351
L2C WRITEBACK ACCESS:    2039247  HIT:    2021993  MISS:      17254
L2C PREFETCH  REQUESTED:     842775  ISSUED:     842775  USEFUL:     203313  USELESS:     736744
L2C TOTAL MSHR MERGED:       7353
L2C LOAD MSHR MERGED:        854
L2C RFO MSHR MERGED:          0
L2C PREFETCH MSHR MERGED:       6499
L2C WRITEBACK MSHR MERGED:          0
L2C TOTAL ACCESSES:   14913236 HITS:   11158967 MISSES:    3754269
L2C LOAD ACCESSES:    7419092 HITS:    5099030 MISSES:    2320062
L2C RFO ACCESSES:     878807 HITS:     410001 MISSES:     468806
L2C PREFETCH ACCESSES:    4576090 HITS:    3627943 MISSES:     948147
L2C WRITEBACK ACCESSES:    2039247 HITS:    2021993 MISSES:      17254
L2C RQ ACCESS:    8297902
L2C RQ TO_CACHE:    8297595
L2C RQ MERGED:          0
L2C RQ FORWARD:          0
L2C WQ ACCESS:    2039247
L2C WQ TO_CACHE:    2039247
L2C WQ MERGED:          0
L2C WQ FORWARD:        450
LLC TOTAL     ACCESS:    4609804  HIT:    3949228  MISS:     660576
LLC LOAD      ACCESS:    2319193  HIT:    2075363  MISS:     243830
LLC RFO       ACCESS:     468796  HIT:     396844  MISS:      71952
LLC PREFETCH  ACCESS:     941527  HIT:     655516  MISS:     286011
LLC WRITEBACK ACCESS:     880288  HIT:     821505  MISS:      58783
LLC PREFETCH  REQUESTED:          0  ISSUED:          0  USEFUL:      16062  USELESS:     270027
LLC TOTAL MSHR MERGED:        104
LLC LOAD MSHR MERGED:         31
LLC RFO MSHR MERGED:          0
LLC PREFETCH MSHR MERGED:         73
LLC WRITEBACK MSHR MERGED:          0
LLC TOTAL ACCESSES:    4609942 HITS:    3949262 MISSES:     660680
LLC LOAD ACCESSES:    2319208 HITS:    2075378 MISSES:     243830
LLC RFO ACCESSES:     468806 HITS:     396854 MISSES:      71952
LLC PREFETCH ACCESSES:     941640 HITS:     655525 MISSES:     286115
LLC WRITEBACK ACCESSES:     880288 HITS:     821505 MISSES:      58783
LLC 0 RQ ACCESS:    2788014
LLC 0 RQ TO_CACHE:    2787989
LLC 0 RQ MERGED:          0
LLC 0 RQ FORWARD:          0
LLC WQ ACCESS:     880288
LLC WQ TO_CACHE:     880288
LLC WQ MERGED:          0
LLC WQ FORWARD:         34
Major fault: 0 Minor fault: 12862
CPU 0 L1D next line prefetcher final stats
CPU 0 L2C PC-based stride prefetcher final stats
All Misses: 787799
All Hits: 4639011
SD Algo Stats - Switches: 0 SRR-Repls: 286899 BRR-Repls: 0

DRAM Statistics
 CHANNEL 0
 RQ ROW_BUFFER_HIT:     123104  ROW_BUFFER_MISS:     477141
 DBUS_CONGESTED:     343052
 WQ ROW_BUFFER_HIT:      13494  ROW_BUFFER_MISS:     172236  FULL:          0

 AVG_CONGESTED_CYCLE: 13
LOADS RETIRED: 136549171
INSTR RETIRED: 500000000
