
*** ChampSim Multicore Out-of-Order Simulator ***

Warmup Instructions: 100000000
Simulation Instructions: 500000000
Number of CPUs: 1
LLC sets: 2048
LLC ways: 16
Clean RRIP Policies: 1012232110122321 Dirty RRIP Policies: 22132100221321 PSEL Width: 10 Track Set: 4294967295 PSEL Mask: 1 Demote Mask: 4013204340132043DS Algo: 0Window size: 0
Off-chip DRAM Size: 4096 MB Channels: 1 Width: 64-bit Data Rate: 1600 MT/s

CPU 0 runs /mnt/beegfs/iconst01/spec2017/Fotonik3d.trace.gz
NOT SORTED
TRACE STRING: /mnt/beegfs/iconst01/spec2017/Fotonik3d.trace.gz
SORTED
TRACE STRING: /mnt/beegfs/iconst01/spec2017/Fotonik3d.trace.gz
INITIAL
TRACE STRING: /mnt/beegfs/iconst01/spec2017/Fotonik3d.trace.gz

champsim_seed used: 881

CPU 0 L1D next line prefetcher
CPU 0 L2C IP-based stride prefetcher
Initialize DRRIP state
Assign rand_sets[0]: 454  LLC: 2048
rand_sets[0]: 454
Assign rand_sets[1]: 1662  LLC: 2048
rand_sets[1]: 1662
Assign rand_sets[2]: 1921  LLC: 2048
rand_sets[2]: 1921
Assign rand_sets[3]: 1131  LLC: 2048
rand_sets[3]: 1131
Assign rand_sets[4]: 331  LLC: 2048
rand_sets[4]: 331
Assign rand_sets[5]: 1531  LLC: 2048
rand_sets[5]: 1531
Assign rand_sets[6]: 482  LLC: 2048
rand_sets[6]: 482
Assign rand_sets[7]: 1275  LLC: 2048
rand_sets[7]: 1275
Assign rand_sets[8]: 1876  LLC: 2048
rand_sets[8]: 1876
Assign rand_sets[9]: 2038  LLC: 2048
rand_sets[9]: 2038
Assign rand_sets[10]: 701  LLC: 2048
rand_sets[10]: 701
Assign rand_sets[11]: 479  LLC: 2048
rand_sets[11]: 479
Assign rand_sets[12]: 892  LLC: 2048
rand_sets[12]: 892
Assign rand_sets[13]: 1820  LLC: 2048
rand_sets[13]: 1820
Assign rand_sets[14]: 1505  LLC: 2048
rand_sets[14]: 1505
Assign rand_sets[15]: 1159  LLC: 2048
rand_sets[15]: 1159
Assign rand_sets[16]: 513  LLC: 2048
rand_sets[16]: 513
Assign rand_sets[17]: 703  LLC: 2048
rand_sets[17]: 703
Assign rand_sets[18]: 561  LLC: 2048
rand_sets[18]: 561
Assign rand_sets[19]: 990  LLC: 2048
rand_sets[19]: 990
Assign rand_sets[20]: 342  LLC: 2048
rand_sets[20]: 342
Assign rand_sets[21]: 882  LLC: 2048
rand_sets[21]: 882
Assign rand_sets[22]: 15  LLC: 2048
rand_sets[22]: 15
Assign rand_sets[23]: 71  LLC: 2048
rand_sets[23]: 71
Assign rand_sets[24]: 1127  LLC: 2048
rand_sets[24]: 1127
Assign rand_sets[25]: 1382  LLC: 2048
rand_sets[25]: 1382
Assign rand_sets[26]: 647  LLC: 2048
rand_sets[26]: 647
Assign rand_sets[27]: 857  LLC: 2048
rand_sets[27]: 857
Assign rand_sets[28]: 1450  LLC: 2048
rand_sets[28]: 1450
Assign rand_sets[29]: 1160  LLC: 2048
rand_sets[29]: 1160
Assign rand_sets[30]: 1852  LLC: 2048
rand_sets[30]: 1852
Assign rand_sets[31]: 1881  LLC: 2048
rand_sets[31]: 1881
Assign rand_sets[32]: 1770  LLC: 2048
rand_sets[32]: 1770
Assign rand_sets[33]: 1622  LLC: 2048
rand_sets[33]: 1622
Assign rand_sets[34]: 275  LLC: 2048
rand_sets[34]: 275
Assign rand_sets[35]: 635  LLC: 2048
rand_sets[35]: 635
Assign rand_sets[36]: 466  LLC: 2048
rand_sets[36]: 466
Assign rand_sets[37]: 1413  LLC: 2048
rand_sets[37]: 1413
Assign rand_sets[38]: 417  LLC: 2048
rand_sets[38]: 417
Assign rand_sets[39]: 472  LLC: 2048
rand_sets[39]: 472
Assign rand_sets[40]: 1340  LLC: 2048
rand_sets[40]: 1340
Assign rand_sets[41]: 852  LLC: 2048
rand_sets[41]: 852
Assign rand_sets[42]: 1365  LLC: 2048
rand_sets[42]: 1365
Assign rand_sets[43]: 47  LLC: 2048
rand_sets[43]: 47
Assign rand_sets[44]: 823  LLC: 2048
rand_sets[44]: 823
Assign rand_sets[45]: 686  LLC: 2048
rand_sets[45]: 686
Assign rand_sets[46]: 1637  LLC: 2048
rand_sets[46]: 1637
Assign rand_sets[47]: 1115  LLC: 2048
rand_sets[47]: 1115
Assign rand_sets[48]: 986  LLC: 2048
rand_sets[48]: 986
Assign rand_sets[49]: 258  LLC: 2048
rand_sets[49]: 258
Assign rand_sets[50]: 633  LLC: 2048
rand_sets[50]: 633
Assign rand_sets[51]: 920  LLC: 2048
rand_sets[51]: 920
Assign rand_sets[52]: 204  LLC: 2048
rand_sets[52]: 204
Assign rand_sets[53]: 227  LLC: 2048
rand_sets[53]: 227
Assign rand_sets[54]: 1818  LLC: 2048
rand_sets[54]: 1818
Assign rand_sets[55]: 886  LLC: 2048
rand_sets[55]: 886
Assign rand_sets[56]: 1422  LLC: 2048
rand_sets[56]: 1422
Assign rand_sets[57]: 607  LLC: 2048
rand_sets[57]: 607
Assign rand_sets[58]: 217  LLC: 2048
rand_sets[58]: 217
Assign rand_sets[59]: 1945  LLC: 2048
rand_sets[59]: 1945
Assign rand_sets[60]: 143  LLC: 2048
rand_sets[60]: 143
Assign rand_sets[61]: 1311  LLC: 2048
rand_sets[61]: 1311
Assign rand_sets[62]: 319  LLC: 2048
rand_sets[62]: 319
Assign rand_sets[63]: 1846  LLC: 2048
rand_sets[63]: 1846
 CLEAN-RRIP-POLICY-1: 1-0-1-2-2-3-2-1- CLEAN-RRIP-POLICY-2: 1-0-1-2-2-3-2-1-
 DIRTY-RRIP-POLICY-1: 0-0-2-2-1-3-2-1- DIRTY-RRIP-POLICY-2: 0-0-2-2-1-3-2-1-
 PSEL width: 10
Heartbeat CPU 0 instructions: 10000002 cycles: 7306860 heartbeat IPC: 1.36858 cumulative IPC: 1.36858 (Simulation time: 0 hr 0 min 24 sec) 
Heartbeat CPU 0 instructions: 20000000 cycles: 14613967 heartbeat IPC: 1.36853 cumulative IPC: 1.36855 (Simulation time: 0 hr 0 min 47 sec) 
Heartbeat CPU 0 instructions: 30000001 cycles: 21920936 heartbeat IPC: 1.36856 cumulative IPC: 1.36855 (Simulation time: 0 hr 1 min 11 sec) 
Heartbeat CPU 0 instructions: 40000000 cycles: 29227780 heartbeat IPC: 1.36858 cumulative IPC: 1.36856 (Simulation time: 0 hr 1 min 35 sec) 
Heartbeat CPU 0 instructions: 50000001 cycles: 36534569 heartbeat IPC: 1.36859 cumulative IPC: 1.36857 (Simulation time: 0 hr 1 min 58 sec) 
Heartbeat CPU 0 instructions: 60000000 cycles: 43841636 heartbeat IPC: 1.36854 cumulative IPC: 1.36856 (Simulation time: 0 hr 2 min 22 sec) 
Heartbeat CPU 0 instructions: 70000002 cycles: 51148491 heartbeat IPC: 1.36858 cumulative IPC: 1.36856 (Simulation time: 0 hr 2 min 45 sec) 
Heartbeat CPU 0 instructions: 80000000 cycles: 58455297 heartbeat IPC: 1.36859 cumulative IPC: 1.36857 (Simulation time: 0 hr 3 min 9 sec) 
Heartbeat CPU 0 instructions: 90000003 cycles: 65765962 heartbeat IPC: 1.36787 cumulative IPC: 1.36849 (Simulation time: 0 hr 3 min 33 sec) 
Heartbeat CPU 0 instructions: 100000000 cycles: 73076647 heartbeat IPC: 1.36786 cumulative IPC: 1.36843 (Simulation time: 0 hr 3 min 56 sec) 

Warmup complete CPU 0 instructions: 100000002 cycles: 73076659 (Simulation time: 0 hr 3 min 56 sec) 

Heartbeat CPU 0 instructions: 110000001 cycles: 85623609 heartbeat IPC: 0.797006 cumulative IPC: 0.797006 (Simulation time: 0 hr 4 min 25 sec) 
Heartbeat CPU 0 instructions: 120000000 cycles: 98128161 heartbeat IPC: 0.799709 cumulative IPC: 0.798355 (Simulation time: 0 hr 4 min 53 sec) 
Heartbeat CPU 0 instructions: 130000000 cycles: 110676545 heartbeat IPC: 0.796915 cumulative IPC: 0.797875 (Simulation time: 0 hr 5 min 21 sec) 
Heartbeat CPU 0 instructions: 140000000 cycles: 123210751 heartbeat IPC: 0.797817 cumulative IPC: 0.79786 (Simulation time: 0 hr 5 min 49 sec) 
Heartbeat CPU 0 instructions: 150000000 cycles: 135663116 heartbeat IPC: 0.80306 cumulative IPC: 0.798895 (Simulation time: 0 hr 6 min 17 sec) 
Heartbeat CPU 0 instructions: 160000000 cycles: 148181693 heartbeat IPC: 0.798813 cumulative IPC: 0.798881 (Simulation time: 0 hr 6 min 46 sec) 
Heartbeat CPU 0 instructions: 170000001 cycles: 160696190 heartbeat IPC: 0.799073 cumulative IPC: 0.798909 (Simulation time: 0 hr 7 min 14 sec) 
Heartbeat CPU 0 instructions: 180000000 cycles: 173222523 heartbeat IPC: 0.798318 cumulative IPC: 0.798835 (Simulation time: 0 hr 7 min 42 sec) 
Heartbeat CPU 0 instructions: 190000000 cycles: 185776685 heartbeat IPC: 0.796549 cumulative IPC: 0.79858 (Simulation time: 0 hr 8 min 10 sec) 
Heartbeat CPU 0 instructions: 200000000 cycles: 198279063 heartbeat IPC: 0.799848 cumulative IPC: 0.798707 (Simulation time: 0 hr 8 min 38 sec) 
Heartbeat CPU 0 instructions: 210000002 cycles: 210832621 heartbeat IPC: 0.796587 cumulative IPC: 0.798514 (Simulation time: 0 hr 9 min 7 sec) 
Heartbeat CPU 0 instructions: 220000000 cycles: 223400542 heartbeat IPC: 0.795676 cumulative IPC: 0.798276 (Simulation time: 0 hr 9 min 35 sec) 
Heartbeat CPU 0 instructions: 230000002 cycles: 235902932 heartbeat IPC: 0.799847 cumulative IPC: 0.798397 (Simulation time: 0 hr 10 min 3 sec) 
Heartbeat CPU 0 instructions: 240000000 cycles: 249028492 heartbeat IPC: 0.761872 cumulative IPC: 0.795672 (Simulation time: 0 hr 10 min 32 sec) 
Heartbeat CPU 0 instructions: 250000001 cycles: 265979276 heartbeat IPC: 0.589943 cumulative IPC: 0.777594 (Simulation time: 0 hr 11 min 2 sec) 
Heartbeat CPU 0 instructions: 260000000 cycles: 282923455 heartbeat IPC: 0.590173 cumulative IPC: 0.762461 (Simulation time: 0 hr 11 min 32 sec) 
Heartbeat CPU 0 instructions: 270000000 cycles: 299905601 heartbeat IPC: 0.588854 cumulative IPC: 0.749463 (Simulation time: 0 hr 12 min 3 sec) 
Heartbeat CPU 0 instructions: 280000000 cycles: 316892291 heartbeat IPC: 0.588696 cumulative IPC: 0.738263 (Simulation time: 0 hr 12 min 33 sec) 
Heartbeat CPU 0 instructions: 290000001 cycles: 344705890 heartbeat IPC: 0.359536 cumulative IPC: 0.699483 (Simulation time: 0 hr 13 min 11 sec) 
Heartbeat CPU 0 instructions: 300000000 cycles: 381257809 heartbeat IPC: 0.273583 cumulative IPC: 0.648969 (Simulation time: 0 hr 13 min 54 sec) 
Heartbeat CPU 0 instructions: 310000000 cycles: 397553367 heartbeat IPC: 0.613664 cumulative IPC: 0.647196 (Simulation time: 0 hr 14 min 24 sec) 
Heartbeat CPU 0 instructions: 320000000 cycles: 413869711 heartbeat IPC: 0.612882 cumulative IPC: 0.645553 (Simulation time: 0 hr 14 min 53 sec) 
Heartbeat CPU 0 instructions: 330000003 cycles: 430203697 heartbeat IPC: 0.612221 cumulative IPC: 0.644029 (Simulation time: 0 hr 15 min 23 sec) 
Heartbeat CPU 0 instructions: 340000000 cycles: 446509714 heartbeat IPC: 0.61327 cumulative IPC: 0.642685 (Simulation time: 0 hr 15 min 53 sec) 
Heartbeat CPU 0 instructions: 350000001 cycles: 461178117 heartbeat IPC: 0.681738 cumulative IPC: 0.644161 (Simulation time: 0 hr 16 min 21 sec) 
Heartbeat CPU 0 instructions: 360000000 cycles: 473272054 heartbeat IPC: 0.82686 cumulative IPC: 0.649683 (Simulation time: 0 hr 16 min 47 sec) 
Heartbeat CPU 0 instructions: 370000002 cycles: 485181681 heartbeat IPC: 0.839657 cumulative IPC: 0.655173 (Simulation time: 0 hr 17 min 14 sec) 
Heartbeat CPU 0 instructions: 380000000 cycles: 497187037 heartbeat IPC: 0.832961 cumulative IPC: 0.660205 (Simulation time: 0 hr 17 min 41 sec) 
Heartbeat CPU 0 instructions: 390000003 cycles: 510712395 heartbeat IPC: 0.739352 cumulative IPC: 0.662652 (Simulation time: 0 hr 18 min 8 sec) 
Heartbeat CPU 0 instructions: 400000000 cycles: 523057299 heartbeat IPC: 0.810051 cumulative IPC: 0.666695 (Simulation time: 0 hr 18 min 35 sec) 
Heartbeat CPU 0 instructions: 410000003 cycles: 535169765 heartbeat IPC: 0.825596 cumulative IPC: 0.67086 (Simulation time: 0 hr 19 min 2 sec) 
Heartbeat CPU 0 instructions: 420000000 cycles: 547875870 heartbeat IPC: 0.787023 cumulative IPC: 0.673969 (Simulation time: 0 hr 19 min 28 sec) 
Heartbeat CPU 0 instructions: 430000003 cycles: 566447397 heartbeat IPC: 0.538459 cumulative IPC: 0.668868 (Simulation time: 0 hr 19 min 53 sec) 
Heartbeat CPU 0 instructions: 440000000 cycles: 585093545 heartbeat IPC: 0.536304 cumulative IPC: 0.664041 (Simulation time: 0 hr 20 min 17 sec) 
Heartbeat CPU 0 instructions: 450000003 cycles: 603707183 heartbeat IPC: 0.537241 cumulative IPC: 0.659593 (Simulation time: 0 hr 20 min 41 sec) 
Heartbeat CPU 0 instructions: 460000000 cycles: 622342684 heartbeat IPC: 0.53661 cumulative IPC: 0.65542 (Simulation time: 0 hr 21 min 6 sec) 
Heartbeat CPU 0 instructions: 470000003 cycles: 640997255 heartbeat IPC: 0.536062 cumulative IPC: 0.6515 (Simulation time: 0 hr 21 min 30 sec) 
Heartbeat CPU 0 instructions: 480000000 cycles: 659609516 heartbeat IPC: 0.53728 cumulative IPC: 0.647875 (Simulation time: 0 hr 21 min 55 sec) 
Heartbeat CPU 0 instructions: 490000003 cycles: 678246667 heartbeat IPC: 0.536563 cumulative IPC: 0.644447 (Simulation time: 0 hr 22 min 19 sec) 
Heartbeat CPU 0 instructions: 500000000 cycles: 696872426 heartbeat IPC: 0.536891 cumulative IPC: 0.641236 (Simulation time: 0 hr 22 min 43 sec) 
Heartbeat CPU 0 instructions: 510000003 cycles: 715504385 heartbeat IPC: 0.536712 cumulative IPC: 0.638204 (Simulation time: 0 hr 23 min 8 sec) 
Heartbeat CPU 0 instructions: 520000000 cycles: 734154442 heartbeat IPC: 0.536191 cumulative IPC: 0.635326 (Simulation time: 0 hr 23 min 32 sec) 
Heartbeat CPU 0 instructions: 530000001 cycles: 752802143 heartbeat IPC: 0.536259 cumulative IPC: 0.632608 (Simulation time: 0 hr 23 min 57 sec) 
Heartbeat CPU 0 instructions: 540000000 cycles: 771381841 heartbeat IPC: 0.538222 cumulative IPC: 0.630097 (Simulation time: 0 hr 24 min 21 sec) 
Heartbeat CPU 0 instructions: 550000001 cycles: 789962520 heartbeat IPC: 0.538194 cumulative IPC: 0.627715 (Simulation time: 0 hr 24 min 45 sec) 
Heartbeat CPU 0 instructions: 560000000 cycles: 808551442 heartbeat IPC: 0.537955 cumulative IPC: 0.625446 (Simulation time: 0 hr 25 min 10 sec) 
Heartbeat CPU 0 instructions: 570000001 cycles: 827118225 heartbeat IPC: 0.538596 cumulative IPC: 0.623308 (Simulation time: 0 hr 25 min 34 sec) 
Heartbeat CPU 0 instructions: 580000000 cycles: 845719379 heartbeat IPC: 0.537601 cumulative IPC: 0.621244 (Simulation time: 0 hr 25 min 59 sec) 
Heartbeat CPU 0 instructions: 590000001 cycles: 864301094 heartbeat IPC: 0.538163 cumulative IPC: 0.619293 (Simulation time: 0 hr 26 min 23 sec) 
Heartbeat CPU 0 instructions: 600000000 cycles: 882884582 heartbeat IPC: 0.538112 cumulative IPC: 0.61743 (Simulation time: 0 hr 26 min 47 sec) 
Finished CPU 0 instructions: 500000002 cycles: 809807937 cumulative IPC: 0.61743 (Simulation time: 0 hr 26 min 47 sec) 

CPU 0 Branch Prediction Accuracy: 99.5931% MPKI: 0.08288
Number of Branches: 10184133 Number of Mispredictions: 41440
Number of LOAD Instructions: 261155957
Number of LOAD Instructions (ROI): 261155957
Number of STORE Instructions: 57884062
Number of STORE Instructions (ROI): 57884062
Total Destination Memory Operands: 83293336
Total Destination Memory Operands (ROI): 83293336
Total Source Memory Operands: 261155957
Total Source Memory Operands (ROI): 261155957
Number of DEPENDED LOADS: 22257230
Number of DEPENDED LOADS (ROI): 22257230
Number of SQ_ADDED: 83293300
Number of SQ_ADDED (ROI): 83293300
Number of LQ_ADDED: 1777363181
Number of LQ_ADDED (ROI): 1777363181
Number of Instructions read from trace: 600000257

ChampSim completed all CPUs

Region of Interest Statistics

CPU 0 cumulative IPC: 0.61743 instructions: 500000002 cycles: 809807937
ITLB TOTAL     ACCESS:   94651025  HIT:   94650987  MISS:         38
ITLB LOAD      ACCESS:   94651025  HIT:   94650987  MISS:         38
ITLB RFO       ACCESS:          0  HIT:          0  MISS:          0
ITLB PREFETCH  ACCESS:          0  HIT:          0  MISS:          0
ITLB WRITEBACK ACCESS:          0  HIT:          0  MISS:          0
ITLB PREFETCH  REQUESTED:          0  ISSUED:          0  USEFUL:          0  USELESS:          0
ITLB TOTAL MSHR MERGED:         93
ITLB LOAD MSHR MERGED:         93
ITLB RFO MSHR MERGED:          0
ITLB PREFETCH MSHR MERGED:          0
ITLB WRITEBACK MSHR MERGED:          0
ITLB TOTAL ACCESSES:   94651118 HITS:   94650987 MISSES:        131
ITLB LOAD ACCESSES:   94651118 HITS:   94650987 MISSES:        131
ITLB RFO ACCESSES:          0 HITS:          0 MISSES:          0
ITLB PREFETCH ACCESSES:          0 HITS:          0 MISSES:          0
ITLB WRITEBACK ACCESSES:          0 HITS:          0 MISSES:          0
ITLB RQ ACCESS:  500000001
ITLB RQ TO_CACHE:   94651119
ITLB RQ MERGED:  405348882
ITLB RQ FORWARD:          0
ITLB WQ ACCESS:          0
ITLB WQ TO_CACHE:          0
ITLB WQ MERGED:          0
ITLB WQ FORWARD:          0
DTLB TOTAL     ACCESS:  149162087  HIT:  148565126  MISS:     596961
DTLB LOAD      ACCESS:  107286234  HIT:  106689284  MISS:     596950
DTLB RFO       ACCESS:   41875853  HIT:   41875842  MISS:         11
DTLB PREFETCH  ACCESS:          0  HIT:          0  MISS:          0
DTLB WRITEBACK ACCESS:          0  HIT:          0  MISS:          0
DTLB PREFETCH  REQUESTED:          0  ISSUED:          0  USEFUL:          0  USELESS:          0
DTLB TOTAL MSHR MERGED:     134336
DTLB LOAD MSHR MERGED:     134336
DTLB RFO MSHR MERGED:          0
DTLB PREFETCH MSHR MERGED:          0
DTLB WRITEBACK MSHR MERGED:          0
DTLB TOTAL ACCESSES:  149296423 HITS:  148565126 MISSES:     731297
DTLB LOAD ACCESSES:  107420570 HITS:  106689284 MISSES:     731286
DTLB RFO ACCESSES:   41875853 HITS:   41875842 MISSES:         11
DTLB PREFETCH ACCESSES:          0 HITS:          0 MISSES:          0
DTLB WRITEBACK ACCESSES:          0 HITS:          0 MISSES:          0
DTLB RQ ACCESS:  259758665
DTLB RQ TO_CACHE:  149296423
DTLB RQ MERGED:  110462242
DTLB RQ FORWARD:          0
DTLB WQ ACCESS:          0
DTLB WQ TO_CACHE:          0
DTLB WQ MERGED:          0
DTLB WQ FORWARD:          0
L1D TOTAL     ACCESS:  261465811  HIT:  246021772  MISS:   15444039
L1D LOAD      ACCESS:  118064158  HIT:  112606387  MISS:    5457771
L1D RFO       ACCESS:   68946863  HIT:   68932455  MISS:      14408
L1D PREFETCH  ACCESS:   74454790  HIT:   64482930  MISS:    9971860
L1D WRITEBACK ACCESS:          0  HIT:          0  MISS:          0
L1D PREFETCH  REQUESTED:  120647381  ISSUED:  119291928  USEFUL:    8054820  USELESS:    1917062
L1D TOTAL MSHR MERGED:   16322059
L1D LOAD MSHR MERGED:    4967325
L1D RFO MSHR MERGED:      21708
L1D PREFETCH MSHR MERGED:   11333026
L1D WRITEBACK MSHR MERGED:          0
L1D TOTAL ACCESSES:  277897919 HITS:  246131821 MISSES:   31766098
L1D LOAD ACCESSES:  120654913 HITS:  112613919 MISSES:    8040994
L1D RFO ACCESSES:   68968570 HITS:   68932455 MISSES:      36115
L1D PREFETCH ACCESSES:   88274436 HITS:   64585447 MISSES:   23688989
L1D WRITEBACK ACCESSES:          0 HITS:          0 MISSES:          0
L1D RQ ACCESS:  190684349
L1D RQ TO_CACHE:  120647381
L1D RQ MERGED:   70029436
L1D RQ FORWARD:          0
L1D WQ ACCESS:   69074336
L1D WQ TO_CACHE:   68968572
L1D WQ MERGED:     105764
L1D WQ FORWARD:     110049
L1I TOTAL     ACCESS:  121565625  HIT:  121564552  MISS:       1073
L1I LOAD      ACCESS:  121565625  HIT:  121564552  MISS:       1073
L1I RFO       ACCESS:          0  HIT:          0  MISS:          0
L1I PREFETCH  ACCESS:          0  HIT:          0  MISS:          0
L1I WRITEBACK ACCESS:          0  HIT:          0  MISS:          0
L1I PREFETCH  REQUESTED:          0  ISSUED:          0  USEFUL:          0  USELESS:          0
L1I TOTAL MSHR MERGED:       1100
L1I LOAD MSHR MERGED:       1100
L1I RFO MSHR MERGED:          0
L1I PREFETCH MSHR MERGED:          0
L1I WRITEBACK MSHR MERGED:          0
L1I TOTAL ACCESSES:  121566725 HITS:  121564552 MISSES:       2173
L1I LOAD ACCESSES:  121566725 HITS:  121564552 MISSES:       2173
L1I RFO ACCESSES:          0 HITS:          0 MISSES:          0
L1I PREFETCH ACCESSES:          0 HITS:          0 MISSES:          0
L1I WRITEBACK ACCESSES:          0 HITS:          0 MISSES:          0
L1I RQ ACCESS:  500000000
L1I RQ TO_CACHE:  121566725
L1I RQ MERGED:  378433275
L1I RQ FORWARD:          0
L1I WQ ACCESS:          0
L1I WQ TO_CACHE:          0
L1I WQ MERGED:          0
L1I WQ FORWARD:          0
L2C TOTAL     ACCESS:   22502148  HIT:    9137366  MISS:   13364782
L2C LOAD      ACCESS:    3074712  HIT:     407772  MISS:    2666940
L2C RFO       ACCESS:      14407  HIT:      13993  MISS:        414
L2C PREFETCH  ACCESS:   12783052  HIT:    2087428  MISS:   10695624
L2C WRITEBACK ACCESS:    6629977  HIT:    6628173  MISS:       1804
L2C PREFETCH  REQUESTED:     666564  ISSUED:     666564  USEFUL:     180097  USELESS:   10516326
L2C TOTAL MSHR MERGED:      69596
L2C LOAD MSHR MERGED:      22331
L2C RFO MSHR MERGED:          0
L2C PREFETCH MSHR MERGED:      47265
L2C WRITEBACK MSHR MERGED:          0
L2C TOTAL ACCESSES:   22702505 HITS:    9137408 MISSES:   13565097
L2C LOAD ACCESSES:    3074742 HITS:     407802 MISSES:    2666940
L2C RFO ACCESSES:      14407 HITS:      13993 MISSES:        414
L2C PREFETCH ACCESSES:   12983379 HITS:    2087440 MISSES:   10895939
L2C WRITEBACK ACCESSES:    6629977 HITS:    6628173 MISSES:       1804
L2C RQ ACCESS:    3089149
L2C RQ TO_CACHE:    3089119
L2C RQ MERGED:          0
L2C RQ FORWARD:          0
L2C WQ ACCESS:    6629977
L2C WQ TO_CACHE:    6629977
L2C WQ MERGED:          0
L2C WQ FORWARD:         42
LLC TOTAL     ACCESS:   20064039  HIT:    7408218  MISS:   12655821
LLC LOAD      ACCESS:    2644609  HIT:     400404  MISS:    2244205
LLC RFO       ACCESS:        414  HIT:         18  MISS:        396
LLC PREFETCH  ACCESS:   10827770  HIT:     644876  MISS:   10182894
LLC WRITEBACK ACCESS:    6591246  HIT:    6362920  MISS:     228326
LLC PREFETCH  REQUESTED:          0  ISSUED:          0  USEFUL:      70019  USELESS:   10117636
LLC TOTAL MSHR MERGED:      19644
LLC LOAD MSHR MERGED:       8900
LLC RFO MSHR MERGED:          0
LLC PREFETCH MSHR MERGED:      10744
LLC WRITEBACK MSHR MERGED:          0
LLC TOTAL ACCESSES:   20083684 HITS:    7408218 MISSES:   12675466
LLC LOAD ACCESSES:    2644609 HITS:     400404 MISSES:    2244205
LLC RFO ACCESSES:        414 HITS:         18 MISSES:        396
LLC PREFETCH ACCESSES:   10847415 HITS:     644876 MISSES:   10202539
LLC WRITEBACK ACCESSES:    6591246 HITS:    6362920 MISSES:     228326
LLC 0 RQ ACCESS:    2645023
LLC 0 RQ TO_CACHE:    2645023
LLC 0 RQ MERGED:          0
LLC 0 RQ FORWARD:          0
LLC WQ ACCESS:    6591247
LLC WQ TO_CACHE:    6591247
LLC WQ MERGED:          0
LLC WQ FORWARD:          0
Major fault: 0 Minor fault: 183991
CPU 0 L1D next line prefetcher final stats
CPU 0 L2C PC-based stride prefetcher final stats
All Misses: 14912015
All Hits: 8083070
SD Algo Stats - Switches: 0 SRR-Repls: 2312253 BRR-Repls: 0

DRAM Statistics
 CHANNEL 0
 RQ ROW_BUFFER_HIT:    7014516  ROW_BUFFER_MISS:    5412978
 DBUS_CONGESTED:   11190197
 WQ ROW_BUFFER_HIT:    1374865  ROW_BUFFER_MISS:    5199580  FULL:          0

 AVG_CONGESTED_CYCLE: 13
LOADS RETIRED: 204440772
INSTR RETIRED: 500000000
