
*** ChampSim Multicore Out-of-Order Simulator ***

Warmup Instructions: 100000000
Simulation Instructions: 500000000
Number of CPUs: 1
LLC sets: 2048
LLC ways: 16
Clean RRIP Policies: 1013222010132220 Dirty RRIP Policies: 2013022020130220 PSEL Width: 10 Track Set: 4294967295 PSEL Mask: 1 Demote Mask: 4340214043402140DS Algo: 0Window size: 0
Off-chip DRAM Size: 4096 MB Channels: 1 Width: 64-bit Data Rate: 1600 MT/s

CPU 0 runs /mnt/beegfs/iconst01/spec2017/Omnetpp.trace.gz
NOT SORTED
TRACE STRING: /mnt/beegfs/iconst01/spec2017/Omnetpp.trace.gz
SORTED
TRACE STRING: /mnt/beegfs/iconst01/spec2017/Omnetpp.trace.gz
INITIAL
TRACE STRING: /mnt/beegfs/iconst01/spec2017/Omnetpp.trace.gz

champsim_seed used: 739

CPU 0 L1D next line prefetcher
CPU 0 L2C IP-based stride prefetcher
Initialize DRRIP state
Assign rand_sets[0]: 454  LLC: 2048
rand_sets[0]: 454
Assign rand_sets[1]: 1662  LLC: 2048
rand_sets[1]: 1662
Assign rand_sets[2]: 1921  LLC: 2048
rand_sets[2]: 1921
Assign rand_sets[3]: 1131  LLC: 2048
rand_sets[3]: 1131
Assign rand_sets[4]: 331  LLC: 2048
rand_sets[4]: 331
Assign rand_sets[5]: 1531  LLC: 2048
rand_sets[5]: 1531
Assign rand_sets[6]: 482  LLC: 2048
rand_sets[6]: 482
Assign rand_sets[7]: 1275  LLC: 2048
rand_sets[7]: 1275
Assign rand_sets[8]: 1876  LLC: 2048
rand_sets[8]: 1876
Assign rand_sets[9]: 2038  LLC: 2048
rand_sets[9]: 2038
Assign rand_sets[10]: 701  LLC: 2048
rand_sets[10]: 701
Assign rand_sets[11]: 479  LLC: 2048
rand_sets[11]: 479
Assign rand_sets[12]: 892  LLC: 2048
rand_sets[12]: 892
Assign rand_sets[13]: 1820  LLC: 2048
rand_sets[13]: 1820
Assign rand_sets[14]: 1505  LLC: 2048
rand_sets[14]: 1505
Assign rand_sets[15]: 1159  LLC: 2048
rand_sets[15]: 1159
Assign rand_sets[16]: 513  LLC: 2048
rand_sets[16]: 513
Assign rand_sets[17]: 703  LLC: 2048
rand_sets[17]: 703
Assign rand_sets[18]: 561  LLC: 2048
rand_sets[18]: 561
Assign rand_sets[19]: 990  LLC: 2048
rand_sets[19]: 990
Assign rand_sets[20]: 342  LLC: 2048
rand_sets[20]: 342
Assign rand_sets[21]: 882  LLC: 2048
rand_sets[21]: 882
Assign rand_sets[22]: 15  LLC: 2048
rand_sets[22]: 15
Assign rand_sets[23]: 71  LLC: 2048
rand_sets[23]: 71
Assign rand_sets[24]: 1127  LLC: 2048
rand_sets[24]: 1127
Assign rand_sets[25]: 1382  LLC: 2048
rand_sets[25]: 1382
Assign rand_sets[26]: 647  LLC: 2048
rand_sets[26]: 647
Assign rand_sets[27]: 857  LLC: 2048
rand_sets[27]: 857
Assign rand_sets[28]: 1450  LLC: 2048
rand_sets[28]: 1450
Assign rand_sets[29]: 1160  LLC: 2048
rand_sets[29]: 1160
Assign rand_sets[30]: 1852  LLC: 2048
rand_sets[30]: 1852
Assign rand_sets[31]: 1881  LLC: 2048
rand_sets[31]: 1881
Assign rand_sets[32]: 1770  LLC: 2048
rand_sets[32]: 1770
Assign rand_sets[33]: 1622  LLC: 2048
rand_sets[33]: 1622
Assign rand_sets[34]: 275  LLC: 2048
rand_sets[34]: 275
Assign rand_sets[35]: 635  LLC: 2048
rand_sets[35]: 635
Assign rand_sets[36]: 466  LLC: 2048
rand_sets[36]: 466
Assign rand_sets[37]: 1413  LLC: 2048
rand_sets[37]: 1413
Assign rand_sets[38]: 417  LLC: 2048
rand_sets[38]: 417
Assign rand_sets[39]: 472  LLC: 2048
rand_sets[39]: 472
Assign rand_sets[40]: 1340  LLC: 2048
rand_sets[40]: 1340
Assign rand_sets[41]: 852  LLC: 2048
rand_sets[41]: 852
Assign rand_sets[42]: 1365  LLC: 2048
rand_sets[42]: 1365
Assign rand_sets[43]: 47  LLC: 2048
rand_sets[43]: 47
Assign rand_sets[44]: 823  LLC: 2048
rand_sets[44]: 823
Assign rand_sets[45]: 686  LLC: 2048
rand_sets[45]: 686
Assign rand_sets[46]: 1637  LLC: 2048
rand_sets[46]: 1637
Assign rand_sets[47]: 1115  LLC: 2048
rand_sets[47]: 1115
Assign rand_sets[48]: 986  LLC: 2048
rand_sets[48]: 986
Assign rand_sets[49]: 258  LLC: 2048
rand_sets[49]: 258
Assign rand_sets[50]: 633  LLC: 2048
rand_sets[50]: 633
Assign rand_sets[51]: 920  LLC: 2048
rand_sets[51]: 920
Assign rand_sets[52]: 204  LLC: 2048
rand_sets[52]: 204
Assign rand_sets[53]: 227  LLC: 2048
rand_sets[53]: 227
Assign rand_sets[54]: 1818  LLC: 2048
rand_sets[54]: 1818
Assign rand_sets[55]: 886  LLC: 2048
rand_sets[55]: 886
Assign rand_sets[56]: 1422  LLC: 2048
rand_sets[56]: 1422
Assign rand_sets[57]: 607  LLC: 2048
rand_sets[57]: 607
Assign rand_sets[58]: 217  LLC: 2048
rand_sets[58]: 217
Assign rand_sets[59]: 1945  LLC: 2048
rand_sets[59]: 1945
Assign rand_sets[60]: 143  LLC: 2048
rand_sets[60]: 143
Assign rand_sets[61]: 1311  LLC: 2048
rand_sets[61]: 1311
Assign rand_sets[62]: 319  LLC: 2048
rand_sets[62]: 319
Assign rand_sets[63]: 1846  LLC: 2048
rand_sets[63]: 1846
 CLEAN-RRIP-POLICY-1: 1-0-1-3-2-2-2-0- CLEAN-RRIP-POLICY-2: 1-0-1-3-2-2-2-0-
 DIRTY-RRIP-POLICY-1: 2-0-1-3-0-2-2-0- DIRTY-RRIP-POLICY-2: 2-0-1-3-0-2-2-0-
 PSEL width: 10
Heartbeat CPU 0 instructions: 10000000 cycles: 7320881 heartbeat IPC: 1.36596 cumulative IPC: 1.36596 (Simulation time: 0 hr 0 min 19 sec) 
Heartbeat CPU 0 instructions: 20000000 cycles: 14625781 heartbeat IPC: 1.36894 cumulative IPC: 1.36745 (Simulation time: 0 hr 0 min 38 sec) 
Heartbeat CPU 0 instructions: 30000003 cycles: 21928284 heartbeat IPC: 1.36939 cumulative IPC: 1.3681 (Simulation time: 0 hr 0 min 57 sec) 
Heartbeat CPU 0 instructions: 40000000 cycles: 29217533 heartbeat IPC: 1.37188 cumulative IPC: 1.36904 (Simulation time: 0 hr 1 min 16 sec) 
Heartbeat CPU 0 instructions: 50000000 cycles: 36495050 heartbeat IPC: 1.3741 cumulative IPC: 1.37005 (Simulation time: 0 hr 1 min 35 sec) 
Heartbeat CPU 0 instructions: 60000000 cycles: 43776163 heartbeat IPC: 1.37342 cumulative IPC: 1.37061 (Simulation time: 0 hr 1 min 54 sec) 
Heartbeat CPU 0 instructions: 70000001 cycles: 51062653 heartbeat IPC: 1.3724 cumulative IPC: 1.37086 (Simulation time: 0 hr 2 min 13 sec) 
Heartbeat CPU 0 instructions: 80000000 cycles: 58338837 heartbeat IPC: 1.37435 cumulative IPC: 1.3713 (Simulation time: 0 hr 2 min 33 sec) 
Heartbeat CPU 0 instructions: 90000000 cycles: 65646271 heartbeat IPC: 1.36847 cumulative IPC: 1.37098 (Simulation time: 0 hr 2 min 52 sec) 
Heartbeat CPU 0 instructions: 100000000 cycles: 72939499 heartbeat IPC: 1.37113 cumulative IPC: 1.371 (Simulation time: 0 hr 3 min 11 sec) 

Warmup complete CPU 0 instructions: 100000002 cycles: 72939500 (Simulation time: 0 hr 3 min 11 sec) 

Heartbeat CPU 0 instructions: 110000002 cycles: 113820124 heartbeat IPC: 0.244615 cumulative IPC: 0.244615 (Simulation time: 0 hr 3 min 48 sec) 
Heartbeat CPU 0 instructions: 120000000 cycles: 154428961 heartbeat IPC: 0.246252 cumulative IPC: 0.24543 (Simulation time: 0 hr 4 min 26 sec) 
Heartbeat CPU 0 instructions: 130000002 cycles: 195260880 heartbeat IPC: 0.244906 cumulative IPC: 0.245256 (Simulation time: 0 hr 5 min 3 sec) 
Heartbeat CPU 0 instructions: 140000000 cycles: 236245325 heartbeat IPC: 0.243995 cumulative IPC: 0.244939 (Simulation time: 0 hr 5 min 41 sec) 
Heartbeat CPU 0 instructions: 150000002 cycles: 276769437 heartbeat IPC: 0.246767 cumulative IPC: 0.245303 (Simulation time: 0 hr 6 min 19 sec) 
Heartbeat CPU 0 instructions: 160000000 cycles: 317342950 heartbeat IPC: 0.246466 cumulative IPC: 0.245496 (Simulation time: 0 hr 6 min 56 sec) 
Heartbeat CPU 0 instructions: 170000001 cycles: 357088169 heartbeat IPC: 0.251603 cumulative IPC: 0.24635 (Simulation time: 0 hr 7 min 33 sec) 
Heartbeat CPU 0 instructions: 180000000 cycles: 397627117 heartbeat IPC: 0.246676 cumulative IPC: 0.246391 (Simulation time: 0 hr 8 min 11 sec) 
Heartbeat CPU 0 instructions: 190000002 cycles: 438159460 heartbeat IPC: 0.246717 cumulative IPC: 0.246427 (Simulation time: 0 hr 8 min 48 sec) 
Heartbeat CPU 0 instructions: 200000000 cycles: 479833037 heartbeat IPC: 0.23996 cumulative IPC: 0.245765 (Simulation time: 0 hr 9 min 26 sec) 
Heartbeat CPU 0 instructions: 210000003 cycles: 520370479 heartbeat IPC: 0.246686 cumulative IPC: 0.245848 (Simulation time: 0 hr 10 min 3 sec) 
Heartbeat CPU 0 instructions: 220000000 cycles: 561151061 heartbeat IPC: 0.245215 cumulative IPC: 0.245795 (Simulation time: 0 hr 10 min 41 sec) 
Heartbeat CPU 0 instructions: 230000000 cycles: 601918447 heartbeat IPC: 0.245294 cumulative IPC: 0.245756 (Simulation time: 0 hr 11 min 18 sec) 
Heartbeat CPU 0 instructions: 240000000 cycles: 642413097 heartbeat IPC: 0.246946 cumulative IPC: 0.245841 (Simulation time: 0 hr 11 min 56 sec) 
Heartbeat CPU 0 instructions: 250000000 cycles: 682936046 heartbeat IPC: 0.246774 cumulative IPC: 0.245903 (Simulation time: 0 hr 12 min 33 sec) 
Heartbeat CPU 0 instructions: 260000000 cycles: 723572013 heartbeat IPC: 0.246087 cumulative IPC: 0.245915 (Simulation time: 0 hr 13 min 10 sec) 
Heartbeat CPU 0 instructions: 270000000 cycles: 764289491 heartbeat IPC: 0.245595 cumulative IPC: 0.245896 (Simulation time: 0 hr 13 min 48 sec) 
Heartbeat CPU 0 instructions: 280000000 cycles: 805369485 heartbeat IPC: 0.243428 cumulative IPC: 0.245757 (Simulation time: 0 hr 14 min 26 sec) 
Heartbeat CPU 0 instructions: 290000001 cycles: 845600965 heartbeat IPC: 0.248562 cumulative IPC: 0.245903 (Simulation time: 0 hr 15 min 3 sec) 
Heartbeat CPU 0 instructions: 300000000 cycles: 886546588 heartbeat IPC: 0.244226 cumulative IPC: 0.245819 (Simulation time: 0 hr 15 min 40 sec) 
Heartbeat CPU 0 instructions: 310000000 cycles: 927453590 heartbeat IPC: 0.244457 cumulative IPC: 0.245754 (Simulation time: 0 hr 16 min 18 sec) 
Heartbeat CPU 0 instructions: 320000000 cycles: 968070864 heartbeat IPC: 0.246201 cumulative IPC: 0.245774 (Simulation time: 0 hr 16 min 55 sec) 
Heartbeat CPU 0 instructions: 330000000 cycles: 1008690374 heartbeat IPC: 0.246187 cumulative IPC: 0.245792 (Simulation time: 0 hr 17 min 33 sec) 
Heartbeat CPU 0 instructions: 340000000 cycles: 1049948153 heartbeat IPC: 0.242379 cumulative IPC: 0.245648 (Simulation time: 0 hr 18 min 11 sec) 
Heartbeat CPU 0 instructions: 350000001 cycles: 1090640548 heartbeat IPC: 0.245746 cumulative IPC: 0.245652 (Simulation time: 0 hr 18 min 48 sec) 
Heartbeat CPU 0 instructions: 360000000 cycles: 1131575566 heartbeat IPC: 0.24429 cumulative IPC: 0.245599 (Simulation time: 0 hr 19 min 26 sec) 
Heartbeat CPU 0 instructions: 370000000 cycles: 1171611510 heartbeat IPC: 0.249776 cumulative IPC: 0.245751 (Simulation time: 0 hr 20 min 2 sec) 
Heartbeat CPU 0 instructions: 380000000 cycles: 1212573260 heartbeat IPC: 0.24413 cumulative IPC: 0.245693 (Simulation time: 0 hr 20 min 40 sec) 
Heartbeat CPU 0 instructions: 390000001 cycles: 1253031735 heartbeat IPC: 0.247167 cumulative IPC: 0.245743 (Simulation time: 0 hr 21 min 17 sec) 
Heartbeat CPU 0 instructions: 400000000 cycles: 1293628198 heartbeat IPC: 0.246327 cumulative IPC: 0.245763 (Simulation time: 0 hr 21 min 54 sec) 
Heartbeat CPU 0 instructions: 410000000 cycles: 1334055428 heartbeat IPC: 0.247358 cumulative IPC: 0.245814 (Simulation time: 0 hr 22 min 31 sec) 
Heartbeat CPU 0 instructions: 420000000 cycles: 1374495605 heartbeat IPC: 0.247279 cumulative IPC: 0.24586 (Simulation time: 0 hr 23 min 8 sec) 
Heartbeat CPU 0 instructions: 430000000 cycles: 1414992333 heartbeat IPC: 0.246934 cumulative IPC: 0.245892 (Simulation time: 0 hr 23 min 46 sec) 
Heartbeat CPU 0 instructions: 440000000 cycles: 1455575534 heartbeat IPC: 0.246407 cumulative IPC: 0.245907 (Simulation time: 0 hr 24 min 23 sec) 
Heartbeat CPU 0 instructions: 450000002 cycles: 1496010069 heartbeat IPC: 0.247313 cumulative IPC: 0.245947 (Simulation time: 0 hr 25 min 0 sec) 
Heartbeat CPU 0 instructions: 460000000 cycles: 1535870595 heartbeat IPC: 0.250875 cumulative IPC: 0.246081 (Simulation time: 0 hr 25 min 37 sec) 
Heartbeat CPU 0 instructions: 470000000 cycles: 1576630797 heartbeat IPC: 0.245337 cumulative IPC: 0.246061 (Simulation time: 0 hr 26 min 14 sec) 
Heartbeat CPU 0 instructions: 480000000 cycles: 1616961589 heartbeat IPC: 0.24795 cumulative IPC: 0.24611 (Simulation time: 0 hr 26 min 51 sec) 
Heartbeat CPU 0 instructions: 490000001 cycles: 1657494617 heartbeat IPC: 0.246712 cumulative IPC: 0.246126 (Simulation time: 0 hr 27 min 28 sec) 
Heartbeat CPU 0 instructions: 500000000 cycles: 1698202149 heartbeat IPC: 0.245655 cumulative IPC: 0.246114 (Simulation time: 0 hr 28 min 4 sec) 
Heartbeat CPU 0 instructions: 510000000 cycles: 1738386387 heartbeat IPC: 0.248854 cumulative IPC: 0.24618 (Simulation time: 0 hr 28 min 39 sec) 
Heartbeat CPU 0 instructions: 520000000 cycles: 1779338834 heartbeat IPC: 0.244186 cumulative IPC: 0.246132 (Simulation time: 0 hr 29 min 14 sec) 
Heartbeat CPU 0 instructions: 530000000 cycles: 1819708516 heartbeat IPC: 0.247711 cumulative IPC: 0.246169 (Simulation time: 0 hr 29 min 49 sec) 
Heartbeat CPU 0 instructions: 540000000 cycles: 1859831372 heartbeat IPC: 0.249234 cumulative IPC: 0.246238 (Simulation time: 0 hr 30 min 24 sec) 
Heartbeat CPU 0 instructions: 550000001 cycles: 1900693078 heartbeat IPC: 0.244728 cumulative IPC: 0.246204 (Simulation time: 0 hr 30 min 59 sec) 
Heartbeat CPU 0 instructions: 560000000 cycles: 1941659364 heartbeat IPC: 0.244103 cumulative IPC: 0.246158 (Simulation time: 0 hr 31 min 34 sec) 
Heartbeat CPU 0 instructions: 570000003 cycles: 1982599951 heartbeat IPC: 0.244256 cumulative IPC: 0.246117 (Simulation time: 0 hr 32 min 8 sec) 
Heartbeat CPU 0 instructions: 580000000 cycles: 2023347678 heartbeat IPC: 0.245412 cumulative IPC: 0.246102 (Simulation time: 0 hr 32 min 43 sec) 
Heartbeat CPU 0 instructions: 590000001 cycles: 2064559916 heartbeat IPC: 0.242646 cumulative IPC: 0.246031 (Simulation time: 0 hr 33 min 18 sec) 
Heartbeat CPU 0 instructions: 600000000 cycles: 2105533190 heartbeat IPC: 0.244061 cumulative IPC: 0.245991 (Simulation time: 0 hr 33 min 53 sec) 
Finished CPU 0 instructions: 500000000 cycles: 2032593698 cumulative IPC: 0.245991 (Simulation time: 0 hr 33 min 53 sec) 

CPU 0 Branch Prediction Accuracy: 96.2429% MPKI: 5.85335
Number of Branches: 77897976 Number of Mispredictions: 2926674
Number of LOAD Instructions: 193081861
Number of LOAD Instructions (ROI): 193081861
Number of STORE Instructions: 97310749
Number of STORE Instructions (ROI): 97310749
Total Destination Memory Operands: 106368027
Total Destination Memory Operands (ROI): 106368027
Total Source Memory Operands: 193081861
Total Source Memory Operands (ROI): 193081861
Number of DEPENDED LOADS: 6460821
Number of DEPENDED LOADS (ROI): 6460821
Number of SQ_ADDED: 106367982
Number of SQ_ADDED (ROI): 106367982
Number of LQ_ADDED: 429814215
Number of LQ_ADDED (ROI): 429814215
Number of Instructions read from trace: 600000256

ChampSim completed all CPUs

Region of Interest Statistics

CPU 0 cumulative IPC: 0.245991 instructions: 500000000 cycles: 2032593698
ITLB TOTAL     ACCESS:  151215712  HIT:  151199881  MISS:      15831
ITLB LOAD      ACCESS:  151215712  HIT:  151199881  MISS:      15831
ITLB RFO       ACCESS:          0  HIT:          0  MISS:          0
ITLB PREFETCH  ACCESS:          0  HIT:          0  MISS:          0
ITLB WRITEBACK ACCESS:          0  HIT:          0  MISS:          0
ITLB PREFETCH  REQUESTED:          0  ISSUED:          0  USEFUL:          0  USELESS:          0
ITLB TOTAL MSHR MERGED:      17895
ITLB LOAD MSHR MERGED:      17895
ITLB RFO MSHR MERGED:          0
ITLB PREFETCH MSHR MERGED:          0
ITLB WRITEBACK MSHR MERGED:          0
ITLB TOTAL ACCESSES:  151233607 HITS:  151199881 MISSES:      33726
ITLB LOAD ACCESSES:  151233607 HITS:  151199881 MISSES:      33726
ITLB RFO ACCESSES:          0 HITS:          0 MISSES:          0
ITLB PREFETCH ACCESSES:          0 HITS:          0 MISSES:          0
ITLB WRITEBACK ACCESSES:          0 HITS:          0 MISSES:          0
ITLB RQ ACCESS:  500000242
ITLB RQ TO_CACHE:  151233607
ITLB RQ MERGED:  348766635
ITLB RQ FORWARD:          0
ITLB WQ ACCESS:          0
ITLB WQ TO_CACHE:          0
ITLB WQ MERGED:          0
ITLB WQ FORWARD:          0
DTLB TOTAL     ACCESS:  199549352  HIT:  194170330  MISS:    5379022
DTLB LOAD      ACCESS:  123120342  HIT:  118101815  MISS:    5018527
DTLB RFO       ACCESS:   76429010  HIT:   76068515  MISS:     360495
DTLB PREFETCH  ACCESS:          0  HIT:          0  MISS:          0
DTLB WRITEBACK ACCESS:          0  HIT:          0  MISS:          0
DTLB PREFETCH  REQUESTED:          0  ISSUED:          0  USEFUL:          0  USELESS:          0
DTLB TOTAL MSHR MERGED:     915844
DTLB LOAD MSHR MERGED:     806790
DTLB RFO MSHR MERGED:     109054
DTLB PREFETCH MSHR MERGED:          0
DTLB WRITEBACK MSHR MERGED:          0
DTLB TOTAL ACCESSES:  200465196 HITS:  194170330 MISSES:    6294866
DTLB LOAD ACCESSES:  123927132 HITS:  118101815 MISSES:    5825317
DTLB RFO ACCESSES:   76538064 HITS:   76068515 MISSES:     469549
DTLB PREFETCH ACCESSES:          0 HITS:          0 MISSES:          0
DTLB WRITEBACK ACCESSES:          0 HITS:          0 MISSES:          0
DTLB RQ ACCESS:  243865448
DTLB RQ TO_CACHE:  200465196
DTLB RQ MERGED:   43400252
DTLB RQ FORWARD:          0
DTLB WQ ACCESS:          0
DTLB WQ TO_CACHE:          0
DTLB WQ MERGED:          0
DTLB WQ FORWARD:          0
L1D TOTAL     ACCESS:  335532612  HIT:  317436635  MISS:   18095977
L1D LOAD      ACCESS:  127663537  HIT:  118720080  MISS:    8943457
L1D RFO       ACCESS:   87061579  HIT:   86271728  MISS:     789851
L1D PREFETCH  ACCESS:  120807496  HIT:  112444827  MISS:    8362669
L1D WRITEBACK ACCESS:          0  HIT:          0  MISS:          0
L1D PREFETCH  REQUESTED:  128462795  ISSUED:  126864721  USEFUL:    1739266  USELESS:    6623415
L1D TOTAL MSHR MERGED:    3895254
L1D LOAD MSHR MERGED:     963608
L1D RFO MSHR MERGED:    1090206
L1D PREFETCH MSHR MERGED:    1841440
L1D WRITEBACK MSHR MERGED:          0
L1D TOTAL ACCESSES:  339513985 HITS:  317522754 MISSES:   21991231
L1D LOAD ACCESSES:  128463233 HITS:  118720518 MISSES:    9742715
L1D RFO ACCESSES:   88082439 HITS:   86271728 MISSES:    1810711
L1D PREFETCH ACCESSES:  122968313 HITS:  112530508 MISSES:   10437805
L1D WRITEBACK ACCESSES:          0 HITS:          0 MISSES:          0
L1D RQ ACCESS:  155234063
L1D RQ TO_CACHE:  128462795
L1D RQ MERGED:   26770830
L1D RQ FORWARD:          0
L1D WQ ACCESS:   88631385
L1D WQ TO_CACHE:   88082438
L1D WQ MERGED:     548947
L1D WQ FORWARD:      86119
L1I TOTAL     ACCESS:  175520329  HIT:  175253950  MISS:     266379
L1I LOAD      ACCESS:  175520329  HIT:  175253950  MISS:     266379
L1I RFO       ACCESS:          0  HIT:          0  MISS:          0
L1I PREFETCH  ACCESS:          0  HIT:          0  MISS:          0
L1I WRITEBACK ACCESS:          0  HIT:          0  MISS:          0
L1I PREFETCH  REQUESTED:          0  ISSUED:          0  USEFUL:          0  USELESS:          0
L1I TOTAL MSHR MERGED:     217172
L1I LOAD MSHR MERGED:     217172
L1I RFO MSHR MERGED:          0
L1I PREFETCH MSHR MERGED:          0
L1I WRITEBACK MSHR MERGED:          0
L1I TOTAL ACCESSES:  175737501 HITS:  175253950 MISSES:     483551
L1I LOAD ACCESSES:  175737501 HITS:  175253950 MISSES:     483551
L1I RFO ACCESSES:          0 HITS:          0 MISSES:          0
L1I PREFETCH ACCESSES:          0 HITS:          0 MISSES:          0
L1I WRITEBACK ACCESSES:          0 HITS:          0 MISSES:          0
L1I RQ ACCESS:  500000242
L1I RQ TO_CACHE:  175737501
L1I RQ MERGED:  324262741
L1I RQ FORWARD:          0
L1I WQ ACCESS:          0
L1I WQ TO_CACHE:          0
L1I WQ MERGED:          0
L1I WQ FORWARD:          0
L2C TOTAL     ACCESS:   23738449  HIT:   12112683  MISS:   11625766
L2C LOAD      ACCESS:    9044311  HIT:    3564728  MISS:    5479583
L2C RFO       ACCESS:     720450  HIT:     130287  MISS:     590163
L2C PREFETCH  ACCESS:    8613368  HIT:    3086051  MISS:    5527317
L2C WRITEBACK ACCESS:    5360320  HIT:    5331617  MISS:      28703
L2C PREFETCH  REQUESTED:      18045  ISSUED:      18045  USEFUL:     323031  USELESS:    5204461
L2C TOTAL MSHR MERGED:         24
L2C LOAD MSHR MERGED:          2
L2C RFO MSHR MERGED:          0
L2C PREFETCH MSHR MERGED:         22
L2C WRITEBACK MSHR MERGED:          0
L2C TOTAL ACCESSES:   23740261 HITS:   12114465 MISSES:   11625796
L2C LOAD ACCESSES:    9045486 HITS:    3565903 MISSES:    5479583
L2C RFO ACCESSES:     720505 HITS:     130342 MISSES:     590163
L2C PREFETCH ACCESSES:    8613950 HITS:    3086603 MISSES:    5527347
L2C WRITEBACK ACCESSES:    5360320 HITS:    5331617 MISSES:      28703
L2C RQ ACCESS:    9765991
L2C RQ TO_CACHE:    9764761
L2C RQ MERGED:          0
L2C RQ FORWARD:          0
L2C WQ ACCESS:    5360320
L2C WQ TO_CACHE:    5360320
L2C WQ MERGED:          0
L2C WQ FORWARD:       1782
LLC TOTAL     ACCESS:   15448687  HIT:    6260517  MISS:    9188170
LLC LOAD      ACCESS:    5479555  HIT:    1876433  MISS:    3603122
LLC RFO       ACCESS:     590161  HIT:     278526  MISS:     311635
LLC PREFETCH  ACCESS:    5527308  HIT:     933059  MISS:    4594249
LLC WRITEBACK ACCESS:    3851663  HIT:    3172499  MISS:     679164
LLC PREFETCH  REQUESTED:          0  ISSUED:          0  USEFUL:      22694  USELESS:    4571951
LLC TOTAL MSHR MERGED:          0
LLC LOAD MSHR MERGED:          0
LLC RFO MSHR MERGED:          0
LLC PREFETCH MSHR MERGED:          0
LLC WRITEBACK MSHR MERGED:          0
LLC TOTAL ACCESSES:   15448732 HITS:    6260562 MISSES:    9188170
LLC LOAD ACCESSES:    5479581 HITS:    1876459 MISSES:    3603122
LLC RFO ACCESSES:     590163 HITS:     278528 MISSES:     311635
LLC PREFETCH ACCESSES:    5527325 HITS:     933076 MISSES:    4594249
LLC WRITEBACK ACCESSES:    3851663 HITS:    3172499 MISSES:     679164
LLC 0 RQ ACCESS:    6069744
LLC 0 RQ TO_CACHE:    6069716
LLC 0 RQ MERGED:          0
LLC 0 RQ FORWARD:          0
LLC WQ ACCESS:    3851663
LLC WQ TO_CACHE:    3851663
LLC WQ MERGED:          0
LLC WQ FORWARD:         45
Major fault: 0 Minor fault: 44814
CPU 0 L1D next line prefetcher final stats
CPU 0 L2C PC-based stride prefetcher final stats
All Misses: 11112657
All Hits: 7508532
SD Algo Stats - Switches: 0 SRR-Repls: 4115282 BRR-Repls: 0

DRAM Statistics
 CHANNEL 0
 RQ ROW_BUFFER_HIT:    1439518  ROW_BUFFER_MISS:    7067241
 DBUS_CONGESTED:    5818958
 WQ ROW_BUFFER_HIT:     197470  ROW_BUFFER_MISS:    2251977  FULL:          0

 AVG_CONGESTED_CYCLE: 13
LOADS RETIRED: 160808997
INSTR RETIRED: 500000000
