
*** ChampSim Multicore Out-of-Order Simulator ***

Warmup Instructions: 100000000
Simulation Instructions: 500000000
Number of CPUs: 1
LLC sets: 2048
LLC ways: 16
Clean RRIP Policies: 1013222010132220 Dirty RRIP Policies: 2013022020130220 PSEL Width: 10 Track Set: 4294967295 PSEL Mask: 1 Demote Mask: 4340214043402140DS Algo: 0Window size: 0
Off-chip DRAM Size: 4096 MB Channels: 1 Width: 64-bit Data Rate: 1600 MT/s

CPU 0 runs /mnt/beegfs/iconst01/spec2017/Parest.trace.gz
NOT SORTED
TRACE STRING: /mnt/beegfs/iconst01/spec2017/Parest.trace.gz
SORTED
TRACE STRING: /mnt/beegfs/iconst01/spec2017/Parest.trace.gz
INITIAL
TRACE STRING: /mnt/beegfs/iconst01/spec2017/Parest.trace.gz

champsim_seed used: 623

CPU 0 L1D next line prefetcher
CPU 0 L2C IP-based stride prefetcher
Initialize DRRIP state
Assign rand_sets[0]: 454  LLC: 2048
rand_sets[0]: 454
Assign rand_sets[1]: 1662  LLC: 2048
rand_sets[1]: 1662
Assign rand_sets[2]: 1921  LLC: 2048
rand_sets[2]: 1921
Assign rand_sets[3]: 1131  LLC: 2048
rand_sets[3]: 1131
Assign rand_sets[4]: 331  LLC: 2048
rand_sets[4]: 331
Assign rand_sets[5]: 1531  LLC: 2048
rand_sets[5]: 1531
Assign rand_sets[6]: 482  LLC: 2048
rand_sets[6]: 482
Assign rand_sets[7]: 1275  LLC: 2048
rand_sets[7]: 1275
Assign rand_sets[8]: 1876  LLC: 2048
rand_sets[8]: 1876
Assign rand_sets[9]: 2038  LLC: 2048
rand_sets[9]: 2038
Assign rand_sets[10]: 701  LLC: 2048
rand_sets[10]: 701
Assign rand_sets[11]: 479  LLC: 2048
rand_sets[11]: 479
Assign rand_sets[12]: 892  LLC: 2048
rand_sets[12]: 892
Assign rand_sets[13]: 1820  LLC: 2048
rand_sets[13]: 1820
Assign rand_sets[14]: 1505  LLC: 2048
rand_sets[14]: 1505
Assign rand_sets[15]: 1159  LLC: 2048
rand_sets[15]: 1159
Assign rand_sets[16]: 513  LLC: 2048
rand_sets[16]: 513
Assign rand_sets[17]: 703  LLC: 2048
rand_sets[17]: 703
Assign rand_sets[18]: 561  LLC: 2048
rand_sets[18]: 561
Assign rand_sets[19]: 990  LLC: 2048
rand_sets[19]: 990
Assign rand_sets[20]: 342  LLC: 2048
rand_sets[20]: 342
Assign rand_sets[21]: 882  LLC: 2048
rand_sets[21]: 882
Assign rand_sets[22]: 15  LLC: 2048
rand_sets[22]: 15
Assign rand_sets[23]: 71  LLC: 2048
rand_sets[23]: 71
Assign rand_sets[24]: 1127  LLC: 2048
rand_sets[24]: 1127
Assign rand_sets[25]: 1382  LLC: 2048
rand_sets[25]: 1382
Assign rand_sets[26]: 647  LLC: 2048
rand_sets[26]: 647
Assign rand_sets[27]: 857  LLC: 2048
rand_sets[27]: 857
Assign rand_sets[28]: 1450  LLC: 2048
rand_sets[28]: 1450
Assign rand_sets[29]: 1160  LLC: 2048
rand_sets[29]: 1160
Assign rand_sets[30]: 1852  LLC: 2048
rand_sets[30]: 1852
Assign rand_sets[31]: 1881  LLC: 2048
rand_sets[31]: 1881
Assign rand_sets[32]: 1770  LLC: 2048
rand_sets[32]: 1770
Assign rand_sets[33]: 1622  LLC: 2048
rand_sets[33]: 1622
Assign rand_sets[34]: 275  LLC: 2048
rand_sets[34]: 275
Assign rand_sets[35]: 635  LLC: 2048
rand_sets[35]: 635
Assign rand_sets[36]: 466  LLC: 2048
rand_sets[36]: 466
Assign rand_sets[37]: 1413  LLC: 2048
rand_sets[37]: 1413
Assign rand_sets[38]: 417  LLC: 2048
rand_sets[38]: 417
Assign rand_sets[39]: 472  LLC: 2048
rand_sets[39]: 472
Assign rand_sets[40]: 1340  LLC: 2048
rand_sets[40]: 1340
Assign rand_sets[41]: 852  LLC: 2048
rand_sets[41]: 852
Assign rand_sets[42]: 1365  LLC: 2048
rand_sets[42]: 1365
Assign rand_sets[43]: 47  LLC: 2048
rand_sets[43]: 47
Assign rand_sets[44]: 823  LLC: 2048
rand_sets[44]: 823
Assign rand_sets[45]: 686  LLC: 2048
rand_sets[45]: 686
Assign rand_sets[46]: 1637  LLC: 2048
rand_sets[46]: 1637
Assign rand_sets[47]: 1115  LLC: 2048
rand_sets[47]: 1115
Assign rand_sets[48]: 986  LLC: 2048
rand_sets[48]: 986
Assign rand_sets[49]: 258  LLC: 2048
rand_sets[49]: 258
Assign rand_sets[50]: 633  LLC: 2048
rand_sets[50]: 633
Assign rand_sets[51]: 920  LLC: 2048
rand_sets[51]: 920
Assign rand_sets[52]: 204  LLC: 2048
rand_sets[52]: 204
Assign rand_sets[53]: 227  LLC: 2048
rand_sets[53]: 227
Assign rand_sets[54]: 1818  LLC: 2048
rand_sets[54]: 1818
Assign rand_sets[55]: 886  LLC: 2048
rand_sets[55]: 886
Assign rand_sets[56]: 1422  LLC: 2048
rand_sets[56]: 1422
Assign rand_sets[57]: 607  LLC: 2048
rand_sets[57]: 607
Assign rand_sets[58]: 217  LLC: 2048
rand_sets[58]: 217
Assign rand_sets[59]: 1945  LLC: 2048
rand_sets[59]: 1945
Assign rand_sets[60]: 143  LLC: 2048
rand_sets[60]: 143
Assign rand_sets[61]: 1311  LLC: 2048
rand_sets[61]: 1311
Assign rand_sets[62]: 319  LLC: 2048
rand_sets[62]: 319
Assign rand_sets[63]: 1846  LLC: 2048
rand_sets[63]: 1846
 CLEAN-RRIP-POLICY-1: 1-0-1-3-2-2-2-0- CLEAN-RRIP-POLICY-2: 1-0-1-3-2-2-2-0-
 DIRTY-RRIP-POLICY-1: 2-0-1-3-0-2-2-0- DIRTY-RRIP-POLICY-2: 2-0-1-3-0-2-2-0-
 PSEL width: 10
Heartbeat CPU 0 instructions: 10000001 cycles: 4387121 heartbeat IPC: 2.2794 cumulative IPC: 2.2794 (Simulation time: 0 hr 0 min 14 sec) 
Heartbeat CPU 0 instructions: 20000000 cycles: 8781240 heartbeat IPC: 2.27577 cumulative IPC: 2.27758 (Simulation time: 0 hr 0 min 28 sec) 
Heartbeat CPU 0 instructions: 30000003 cycles: 13213178 heartbeat IPC: 2.25635 cumulative IPC: 2.27046 (Simulation time: 0 hr 0 min 42 sec) 
Heartbeat CPU 0 instructions: 40000000 cycles: 17643742 heartbeat IPC: 2.25705 cumulative IPC: 2.26709 (Simulation time: 0 hr 0 min 55 sec) 
Heartbeat CPU 0 instructions: 50000000 cycles: 22051861 heartbeat IPC: 2.26854 cumulative IPC: 2.26738 (Simulation time: 0 hr 1 min 9 sec) 
Heartbeat CPU 0 instructions: 60000000 cycles: 26457506 heartbeat IPC: 2.26982 cumulative IPC: 2.26779 (Simulation time: 0 hr 1 min 23 sec) 
Heartbeat CPU 0 instructions: 70000000 cycles: 30858342 heartbeat IPC: 2.2723 cumulative IPC: 2.26843 (Simulation time: 0 hr 1 min 37 sec) 
Heartbeat CPU 0 instructions: 80000000 cycles: 35253905 heartbeat IPC: 2.27502 cumulative IPC: 2.26925 (Simulation time: 0 hr 1 min 51 sec) 
Heartbeat CPU 0 instructions: 90000000 cycles: 39648164 heartbeat IPC: 2.2757 cumulative IPC: 2.26997 (Simulation time: 0 hr 2 min 5 sec) 
Heartbeat CPU 0 instructions: 100000000 cycles: 44045467 heartbeat IPC: 2.27412 cumulative IPC: 2.27038 (Simulation time: 0 hr 2 min 19 sec) 

Warmup complete CPU 0 instructions: 100000002 cycles: 44045477 (Simulation time: 0 hr 2 min 19 sec) 

Heartbeat CPU 0 instructions: 110000000 cycles: 54427300 heartbeat IPC: 0.963221 cumulative IPC: 0.963222 (Simulation time: 0 hr 2 min 37 sec) 
Heartbeat CPU 0 instructions: 120000000 cycles: 64253124 heartbeat IPC: 1.01773 cumulative IPC: 0.989724 (Simulation time: 0 hr 2 min 55 sec) 
Heartbeat CPU 0 instructions: 130000000 cycles: 74049899 heartbeat IPC: 1.02074 cumulative IPC: 0.999853 (Simulation time: 0 hr 3 min 12 sec) 
Heartbeat CPU 0 instructions: 140000000 cycles: 84026364 heartbeat IPC: 1.00236 cumulative IPC: 1.00048 (Simulation time: 0 hr 3 min 31 sec) 
Heartbeat CPU 0 instructions: 150000000 cycles: 95274792 heartbeat IPC: 0.889013 cumulative IPC: 0.976004 (Simulation time: 0 hr 3 min 49 sec) 
Heartbeat CPU 0 instructions: 160000000 cycles: 105771109 heartbeat IPC: 0.952715 cumulative IPC: 0.972043 (Simulation time: 0 hr 4 min 6 sec) 
Heartbeat CPU 0 instructions: 170000000 cycles: 116061197 heartbeat IPC: 0.971809 cumulative IPC: 0.97201 (Simulation time: 0 hr 4 min 24 sec) 
Heartbeat CPU 0 instructions: 180000000 cycles: 126421538 heartbeat IPC: 0.965219 cumulative IPC: 0.971156 (Simulation time: 0 hr 4 min 42 sec) 
Heartbeat CPU 0 instructions: 190000002 cycles: 136897447 heartbeat IPC: 0.954571 cumulative IPC: 0.969285 (Simulation time: 0 hr 5 min 0 sec) 
Heartbeat CPU 0 instructions: 200000000 cycles: 146832222 heartbeat IPC: 1.00657 cumulative IPC: 0.972888 (Simulation time: 0 hr 5 min 18 sec) 
Heartbeat CPU 0 instructions: 210000000 cycles: 157245440 heartbeat IPC: 0.960318 cumulative IPC: 0.971732 (Simulation time: 0 hr 5 min 36 sec) 
Heartbeat CPU 0 instructions: 220000000 cycles: 166993964 heartbeat IPC: 1.0258 cumulative IPC: 0.976018 (Simulation time: 0 hr 5 min 53 sec) 
Heartbeat CPU 0 instructions: 230000001 cycles: 179245299 heartbeat IPC: 0.816238 cumulative IPC: 0.96154 (Simulation time: 0 hr 6 min 13 sec) 
Heartbeat CPU 0 instructions: 240000000 cycles: 190103099 heartbeat IPC: 0.920997 cumulative IPC: 0.958526 (Simulation time: 0 hr 6 min 31 sec) 
Heartbeat CPU 0 instructions: 250000002 cycles: 200400679 heartbeat IPC: 0.971102 cumulative IPC: 0.959354 (Simulation time: 0 hr 6 min 49 sec) 
Heartbeat CPU 0 instructions: 260000000 cycles: 210538949 heartbeat IPC: 0.986361 cumulative IPC: 0.960999 (Simulation time: 0 hr 7 min 6 sec) 
Heartbeat CPU 0 instructions: 270000001 cycles: 220638483 heartbeat IPC: 0.990145 cumulative IPC: 0.962665 (Simulation time: 0 hr 7 min 24 sec) 
Heartbeat CPU 0 instructions: 280000000 cycles: 230956861 heartbeat IPC: 0.969144 cumulative IPC: 0.963023 (Simulation time: 0 hr 7 min 42 sec) 
Heartbeat CPU 0 instructions: 290000002 cycles: 240685837 heartbeat IPC: 1.02786 cumulative IPC: 0.966231 (Simulation time: 0 hr 8 min 0 sec) 
Heartbeat CPU 0 instructions: 300000000 cycles: 250906203 heartbeat IPC: 0.978438 cumulative IPC: 0.966834 (Simulation time: 0 hr 8 min 18 sec) 
Heartbeat CPU 0 instructions: 310000000 cycles: 260626030 heartbeat IPC: 1.02882 cumulative IPC: 0.969616 (Simulation time: 0 hr 8 min 35 sec) 
Heartbeat CPU 0 instructions: 320000000 cycles: 270359086 heartbeat IPC: 1.02743 cumulative IPC: 0.972102 (Simulation time: 0 hr 8 min 53 sec) 
Heartbeat CPU 0 instructions: 330000003 cycles: 280194037 heartbeat IPC: 1.01678 cumulative IPC: 0.973963 (Simulation time: 0 hr 9 min 11 sec) 
Heartbeat CPU 0 instructions: 340000000 cycles: 290676847 heartbeat IPC: 0.953942 cumulative IPC: 0.973112 (Simulation time: 0 hr 9 min 29 sec) 
Heartbeat CPU 0 instructions: 350000000 cycles: 301240878 heartbeat IPC: 0.946608 cumulative IPC: 0.972024 (Simulation time: 0 hr 9 min 47 sec) 
Heartbeat CPU 0 instructions: 360000000 cycles: 311478625 heartbeat IPC: 0.976777 cumulative IPC: 0.972206 (Simulation time: 0 hr 10 min 4 sec) 
Heartbeat CPU 0 instructions: 370000000 cycles: 321554531 heartbeat IPC: 0.992467 cumulative IPC: 0.972941 (Simulation time: 0 hr 10 min 22 sec) 
Heartbeat CPU 0 instructions: 380000000 cycles: 331577104 heartbeat IPC: 0.997748 cumulative IPC: 0.973806 (Simulation time: 0 hr 10 min 40 sec) 
Heartbeat CPU 0 instructions: 390000002 cycles: 341456419 heartbeat IPC: 1.01222 cumulative IPC: 0.975082 (Simulation time: 0 hr 10 min 58 sec) 
Heartbeat CPU 0 instructions: 400000000 cycles: 351664792 heartbeat IPC: 0.979588 cumulative IPC: 0.975231 (Simulation time: 0 hr 11 min 15 sec) 
Heartbeat CPU 0 instructions: 410000000 cycles: 361359158 heartbeat IPC: 1.03153 cumulative IPC: 0.976951 (Simulation time: 0 hr 11 min 33 sec) 
Heartbeat CPU 0 instructions: 420000000 cycles: 372555380 heartbeat IPC: 0.893158 cumulative IPC: 0.974095 (Simulation time: 0 hr 11 min 52 sec) 
Heartbeat CPU 0 instructions: 430000000 cycles: 383656173 heartbeat IPC: 0.900837 cumulative IPC: 0.971701 (Simulation time: 0 hr 12 min 10 sec) 
Heartbeat CPU 0 instructions: 440000000 cycles: 393986186 heartbeat IPC: 0.968053 cumulative IPC: 0.971593 (Simulation time: 0 hr 12 min 27 sec) 
Heartbeat CPU 0 instructions: 450000000 cycles: 404283776 heartbeat IPC: 0.971101 cumulative IPC: 0.971579 (Simulation time: 0 hr 12 min 45 sec) 
Heartbeat CPU 0 instructions: 460000000 cycles: 414628487 heartbeat IPC: 0.966678 cumulative IPC: 0.971442 (Simulation time: 0 hr 13 min 3 sec) 
Heartbeat CPU 0 instructions: 470000001 cycles: 424995809 heartbeat IPC: 0.964569 cumulative IPC: 0.971255 (Simulation time: 0 hr 13 min 20 sec) 
Heartbeat CPU 0 instructions: 480000000 cycles: 434881718 heartbeat IPC: 1.01154 cumulative IPC: 0.972274 (Simulation time: 0 hr 13 min 38 sec) 
Heartbeat CPU 0 instructions: 490000002 cycles: 445182660 heartbeat IPC: 0.970785 cumulative IPC: 0.972236 (Simulation time: 0 hr 13 min 56 sec) 
Heartbeat CPU 0 instructions: 500000000 cycles: 455197810 heartbeat IPC: 0.998487 cumulative IPC: 0.972875 (Simulation time: 0 hr 14 min 14 sec) 
Heartbeat CPU 0 instructions: 510000000 cycles: 464956075 heartbeat IPC: 1.02477 cumulative IPC: 0.974079 (Simulation time: 0 hr 14 min 32 sec) 
Heartbeat CPU 0 instructions: 520000000 cycles: 474882555 heartbeat IPC: 1.00741 cumulative IPC: 0.974846 (Simulation time: 0 hr 14 min 49 sec) 
Heartbeat CPU 0 instructions: 530000001 cycles: 485598868 heartbeat IPC: 0.933157 cumulative IPC: 0.973835 (Simulation time: 0 hr 15 min 8 sec) 
Heartbeat CPU 0 instructions: 540000000 cycles: 496281131 heartbeat IPC: 0.936131 cumulative IPC: 0.972944 (Simulation time: 0 hr 15 min 25 sec) 
Heartbeat CPU 0 instructions: 550000003 cycles: 506701773 heartbeat IPC: 0.959634 cumulative IPC: 0.972644 (Simulation time: 0 hr 15 min 43 sec) 
Heartbeat CPU 0 instructions: 560000000 cycles: 516938950 heartbeat IPC: 0.976831 cumulative IPC: 0.972735 (Simulation time: 0 hr 16 min 1 sec) 
Heartbeat CPU 0 instructions: 570000002 cycles: 527139538 heartbeat IPC: 0.980336 cumulative IPC: 0.972895 (Simulation time: 0 hr 16 min 18 sec) 
Heartbeat CPU 0 instructions: 580000000 cycles: 537245381 heartbeat IPC: 0.989526 cumulative IPC: 0.973236 (Simulation time: 0 hr 16 min 36 sec) 
Heartbeat CPU 0 instructions: 590000001 cycles: 547506272 heartbeat IPC: 0.974574 cumulative IPC: 0.973263 (Simulation time: 0 hr 16 min 54 sec) 
Heartbeat CPU 0 instructions: 600000000 cycles: 557488212 heartbeat IPC: 1.00181 cumulative IPC: 0.973818 (Simulation time: 0 hr 17 min 12 sec) 
Finished CPU 0 instructions: 500000000 cycles: 513442749 cumulative IPC: 0.973818 (Simulation time: 0 hr 17 min 12 sec) 

CPU 0 Branch Prediction Accuracy: 97.8526% MPKI: 2.66709
Number of Branches: 62099103 Number of Mispredictions: 1333545
Number of LOAD Instructions: 210576465
Number of LOAD Instructions (ROI): 210576465
Number of STORE Instructions: 16915507
Number of STORE Instructions (ROI): 16915507
Total Destination Memory Operands: 16918869
Total Destination Memory Operands (ROI): 16918869
Total Source Memory Operands: 210576465
Total Source Memory Operands (ROI): 210576465
Number of DEPENDED LOADS: 322906
Number of DEPENDED LOADS (ROI): 322906
Number of SQ_ADDED: 16918826
Number of SQ_ADDED (ROI): 16918826
Number of LQ_ADDED: 210613468
Number of LQ_ADDED (ROI): 210613468
Number of Instructions read from trace: 600000257

ChampSim completed all CPUs

Region of Interest Statistics

CPU 0 cumulative IPC: 0.973818 instructions: 500000000 cycles: 513442749
ITLB TOTAL     ACCESS:   76228821  HIT:   76228783  MISS:         38
ITLB LOAD      ACCESS:   76228821  HIT:   76228783  MISS:         38
ITLB RFO       ACCESS:          0  HIT:          0  MISS:          0
ITLB PREFETCH  ACCESS:          0  HIT:          0  MISS:          0
ITLB WRITEBACK ACCESS:          0  HIT:          0  MISS:          0
ITLB PREFETCH  REQUESTED:          0  ISSUED:          0  USEFUL:          0  USELESS:          0
ITLB TOTAL MSHR MERGED:         37
ITLB LOAD MSHR MERGED:         37
ITLB RFO MSHR MERGED:          0
ITLB PREFETCH MSHR MERGED:          0
ITLB WRITEBACK MSHR MERGED:          0
ITLB TOTAL ACCESSES:   76228858 HITS:   76228783 MISSES:         75
ITLB LOAD ACCESSES:   76228858 HITS:   76228783 MISSES:         75
ITLB RFO ACCESSES:          0 HITS:          0 MISSES:          0
ITLB PREFETCH ACCESSES:          0 HITS:          0 MISSES:          0
ITLB WRITEBACK ACCESSES:          0 HITS:          0 MISSES:          0
ITLB RQ ACCESS:  500000188
ITLB RQ TO_CACHE:   76228859
ITLB RQ MERGED:  423771329
ITLB RQ FORWARD:          0
ITLB WQ ACCESS:          0
ITLB WQ TO_CACHE:          0
ITLB WQ MERGED:          0
ITLB WQ FORWARD:          0
DTLB TOTAL     ACCESS:  137012295  HIT:  136809501  MISS:     202794
DTLB LOAD      ACCESS:  128950491  HIT:  128750418  MISS:     200073
DTLB RFO       ACCESS:    8061804  HIT:    8059083  MISS:       2721
DTLB PREFETCH  ACCESS:          0  HIT:          0  MISS:          0
DTLB WRITEBACK ACCESS:          0  HIT:          0  MISS:          0
DTLB PREFETCH  REQUESTED:          0  ISSUED:          0  USEFUL:          0  USELESS:          0
DTLB TOTAL MSHR MERGED:     446414
DTLB LOAD MSHR MERGED:     442650
DTLB RFO MSHR MERGED:       3764
DTLB PREFETCH MSHR MERGED:          0
DTLB WRITEBACK MSHR MERGED:          0
DTLB TOTAL ACCESSES:  137458709 HITS:  136809501 MISSES:     649208
DTLB LOAD ACCESSES:  129393141 HITS:  128750418 MISSES:     642723
DTLB RFO ACCESSES:    8065568 HITS:    8059083 MISSES:       6485
DTLB PREFETCH ACCESSES:          0 HITS:          0 MISSES:          0
DTLB WRITEBACK ACCESSES:          0 HITS:          0 MISSES:          0
DTLB RQ ACCESS:  189441663
DTLB RQ TO_CACHE:  137458709
DTLB RQ MERGED:   51982954
DTLB RQ FORWARD:          0
DTLB WQ ACCESS:          0
DTLB WQ TO_CACHE:          0
DTLB WQ MERGED:          0
DTLB WQ FORWARD:          0
L1D TOTAL     ACCESS:  126388480  HIT:  108831672  MISS:   17556808
L1D LOAD      ACCESS:   72821025  HIT:   62667213  MISS:   10153812
L1D RFO       ACCESS:   14012535  HIT:   13859704  MISS:     152831
L1D PREFETCH  ACCESS:   39554920  HIT:   32304755  MISS:    7250165
L1D WRITEBACK ACCESS:          0  HIT:          0  MISS:          0
L1D PREFETCH  REQUESTED:   85791035  ISSUED:   84465542  USEFUL:    5990884  USELESS:    1259292
L1D TOTAL MSHR MERGED:   30968397
L1D LOAD MSHR MERGED:   18032159
L1D RFO MSHR MERGED:     265811
L1D PREFETCH MSHR MERGED:   12670427
L1D WRITEBACK MSHR MERGED:          0
L1D TOTAL ACCESSES:  157357437 HITS:  108832233 MISSES:   48525204
L1D LOAD ACCESSES:   85791050 HITS:   62667228 MISSES:   23123822
L1D RFO ACCESSES:   14278325 HITS:   13859704 MISSES:     418621
L1D PREFETCH ACCESSES:   57288062 HITS:   32305301 MISSES:   24982761
L1D WRITEBACK ACCESSES:          0 HITS:          0 MISSES:          0
L1D RQ ACCESS:  175152641
L1D RQ TO_CACHE:   85791035
L1D RQ MERGED:   89361591
L1D RQ FORWARD:          0
L1D WQ ACCESS:   14289037
L1D WQ TO_CACHE:   14278325
L1D WQ MERGED:      10712
L1D WQ FORWARD:        561
L1I TOTAL     ACCESS:   93231153  HIT:   93229357  MISS:       1796
L1I LOAD      ACCESS:   93231153  HIT:   93229357  MISS:       1796
L1I RFO       ACCESS:          0  HIT:          0  MISS:          0
L1I PREFETCH  ACCESS:          0  HIT:          0  MISS:          0
L1I WRITEBACK ACCESS:          0  HIT:          0  MISS:          0
L1I PREFETCH  REQUESTED:          0  ISSUED:          0  USEFUL:          0  USELESS:          0
L1I TOTAL MSHR MERGED:       2276
L1I LOAD MSHR MERGED:       2276
L1I RFO MSHR MERGED:          0
L1I PREFETCH MSHR MERGED:          0
L1I WRITEBACK MSHR MERGED:          0
L1I TOTAL ACCESSES:   93233429 HITS:   93229357 MISSES:       4072
L1I LOAD ACCESSES:   93233429 HITS:   93229357 MISSES:       4072
L1I RFO ACCESSES:          0 HITS:          0 MISSES:          0
L1I PREFETCH ACCESSES:          0 HITS:          0 MISSES:          0
L1I WRITEBACK ACCESSES:          0 HITS:          0 MISSES:          0
L1I RQ ACCESS:  500000187
L1I RQ TO_CACHE:   93233429
L1I RQ MERGED:  406766758
L1I RQ FORWARD:          0
L1I WQ ACCESS:          0
L1I WQ TO_CACHE:          0
L1I WQ MERGED:          0
L1I WQ FORWARD:          0
L2C TOTAL     ACCESS:   20896833  HIT:    8668965  MISS:   12227868
L2C LOAD      ACCESS:    5093438  HIT:    2142633  MISS:    2950805
L2C RFO       ACCESS:     152810  HIT:       6501  MISS:     146309
L2C PREFETCH  ACCESS:   13877830  HIT:    4747185  MISS:    9130645
L2C WRITEBACK ACCESS:    1772755  HIT:    1772646  MISS:        109
L2C PREFETCH  REQUESTED:    1790817  ISSUED:    1790817  USEFUL:    1069128  USELESS:    8063141
L2C TOTAL MSHR MERGED:      85692
L2C LOAD MSHR MERGED:      19442
L2C RFO MSHR MERGED:          0
L2C PREFETCH MSHR MERGED:      66250
L2C WRITEBACK MSHR MERGED:          0
L2C TOTAL ACCESSES:   21004923 HITS:    8668999 MISSES:   12335924
L2C LOAD ACCESSES:    5093459 HITS:    2142654 MISSES:    2950805
L2C RFO ACCESSES:     152810 HITS:       6501 MISSES:     146309
L2C PREFETCH ACCESSES:   13985899 HITS:    4747198 MISSES:    9238701
L2C WRITEBACK ACCESSES:    1772755 HITS:    1772646 MISSES:        109
L2C RQ ACCESS:    5246269
L2C RQ TO_CACHE:    5246248
L2C RQ MERGED:          0
L2C RQ FORWARD:          0
L2C WQ ACCESS:    1772755
L2C WQ TO_CACHE:    1772755
L2C WQ MERGED:          0
L2C WQ FORWARD:         34
LLC TOTAL     ACCESS:   12531225  HIT:    6212886  MISS:    6318339
LLC LOAD      ACCESS:    2931342  HIT:    2072298  MISS:     859044
LLC RFO       ACCESS:     146309  HIT:      66759  MISS:      79550
LLC PREFETCH  ACCESS:    9167602  HIT:    3843120  MISS:    5324482
LLC WRITEBACK ACCESS:     285972  HIT:     230709  MISS:      55263
LLC PREFETCH  REQUESTED:          0  ISSUED:          0  USEFUL:      35563  USELESS:    5288549
LLC TOTAL MSHR MERGED:        904
LLC LOAD MSHR MERGED:        232
LLC RFO MSHR MERGED:          0
LLC PREFETCH MSHR MERGED:        672
LLC WRITEBACK MSHR MERGED:          0
LLC TOTAL ACCESSES:   12532162 HITS:    6212919 MISSES:    6319243
LLC LOAD ACCESSES:    2931363 HITS:    2072319 MISSES:     859044
LLC RFO ACCESSES:     146309 HITS:      66759 MISSES:      79550
LLC PREFETCH ACCESSES:    9168518 HITS:    3843132 MISSES:    5325386
LLC WRITEBACK ACCESSES:     285972 HITS:     230709 MISSES:      55263
LLC 0 RQ ACCESS:    3077672
LLC 0 RQ TO_CACHE:    3077651
LLC 0 RQ MERGED:          0
LLC 0 RQ FORWARD:          0
LLC WQ ACCESS:     285972
LLC WQ TO_CACHE:     285972
LLC WQ MERGED:          0
LLC WQ FORWARD:         33
Major fault: 0 Minor fault: 6524
CPU 0 L1D next line prefetcher final stats
CPU 0 L2C PC-based stride prefetcher final stats
All Misses: 8116231
All Hits: 6940007
SD Algo Stats - Switches: 0 SRR-Repls: 881879 BRR-Repls: 0

DRAM Statistics
 CHANNEL 0
 RQ ROW_BUFFER_HIT:    5388979  ROW_BUFFER_MISS:     865235
 DBUS_CONGESTED:    2193544
 WQ ROW_BUFFER_HIT:      11528  ROW_BUFFER_MISS:     111655  FULL:          0

 AVG_CONGESTED_CYCLE: 11
LOADS RETIRED: 175418235
INSTR RETIRED: 500000000
