
*** ChampSim Multicore Out-of-Order Simulator ***

Warmup Instructions: 100000000
Simulation Instructions: 500000000
Number of CPUs: 1
LLC sets: 2048
LLC ways: 16
Clean RRIP Policies: 323020103230201 Dirty RRIP Policies: 2323121123231211 PSEL Width: 10 Track Set: 4294967295 PSEL Mask: 1 Demote Mask: 2300032223000322DS Algo: 0Window size: 0
Off-chip DRAM Size: 4096 MB Channels: 1 Width: 64-bit Data Rate: 1600 MT/s

CPU 0 runs /mnt/beegfs/iconst01/spec2017/Gcc.trace.gz
NOT SORTED
TRACE STRING: /mnt/beegfs/iconst01/spec2017/Gcc.trace.gz
SORTED
TRACE STRING: /mnt/beegfs/iconst01/spec2017/Gcc.trace.gz
INITIAL
TRACE STRING: /mnt/beegfs/iconst01/spec2017/Gcc.trace.gz

champsim_seed used: 269

CPU 0 L1D next line prefetcher
CPU 0 L2C IP-based stride prefetcher
Initialize DRRIP state
Assign rand_sets[0]: 454  LLC: 2048
rand_sets[0]: 454
Assign rand_sets[1]: 1662  LLC: 2048
rand_sets[1]: 1662
Assign rand_sets[2]: 1921  LLC: 2048
rand_sets[2]: 1921
Assign rand_sets[3]: 1131  LLC: 2048
rand_sets[3]: 1131
Assign rand_sets[4]: 331  LLC: 2048
rand_sets[4]: 331
Assign rand_sets[5]: 1531  LLC: 2048
rand_sets[5]: 1531
Assign rand_sets[6]: 482  LLC: 2048
rand_sets[6]: 482
Assign rand_sets[7]: 1275  LLC: 2048
rand_sets[7]: 1275
Assign rand_sets[8]: 1876  LLC: 2048
rand_sets[8]: 1876
Assign rand_sets[9]: 2038  LLC: 2048
rand_sets[9]: 2038
Assign rand_sets[10]: 701  LLC: 2048
rand_sets[10]: 701
Assign rand_sets[11]: 479  LLC: 2048
rand_sets[11]: 479
Assign rand_sets[12]: 892  LLC: 2048
rand_sets[12]: 892
Assign rand_sets[13]: 1820  LLC: 2048
rand_sets[13]: 1820
Assign rand_sets[14]: 1505  LLC: 2048
rand_sets[14]: 1505
Assign rand_sets[15]: 1159  LLC: 2048
rand_sets[15]: 1159
Assign rand_sets[16]: 513  LLC: 2048
rand_sets[16]: 513
Assign rand_sets[17]: 703  LLC: 2048
rand_sets[17]: 703
Assign rand_sets[18]: 561  LLC: 2048
rand_sets[18]: 561
Assign rand_sets[19]: 990  LLC: 2048
rand_sets[19]: 990
Assign rand_sets[20]: 342  LLC: 2048
rand_sets[20]: 342
Assign rand_sets[21]: 882  LLC: 2048
rand_sets[21]: 882
Assign rand_sets[22]: 15  LLC: 2048
rand_sets[22]: 15
Assign rand_sets[23]: 71  LLC: 2048
rand_sets[23]: 71
Assign rand_sets[24]: 1127  LLC: 2048
rand_sets[24]: 1127
Assign rand_sets[25]: 1382  LLC: 2048
rand_sets[25]: 1382
Assign rand_sets[26]: 647  LLC: 2048
rand_sets[26]: 647
Assign rand_sets[27]: 857  LLC: 2048
rand_sets[27]: 857
Assign rand_sets[28]: 1450  LLC: 2048
rand_sets[28]: 1450
Assign rand_sets[29]: 1160  LLC: 2048
rand_sets[29]: 1160
Assign rand_sets[30]: 1852  LLC: 2048
rand_sets[30]: 1852
Assign rand_sets[31]: 1881  LLC: 2048
rand_sets[31]: 1881
Assign rand_sets[32]: 1770  LLC: 2048
rand_sets[32]: 1770
Assign rand_sets[33]: 1622  LLC: 2048
rand_sets[33]: 1622
Assign rand_sets[34]: 275  LLC: 2048
rand_sets[34]: 275
Assign rand_sets[35]: 635  LLC: 2048
rand_sets[35]: 635
Assign rand_sets[36]: 466  LLC: 2048
rand_sets[36]: 466
Assign rand_sets[37]: 1413  LLC: 2048
rand_sets[37]: 1413
Assign rand_sets[38]: 417  LLC: 2048
rand_sets[38]: 417
Assign rand_sets[39]: 472  LLC: 2048
rand_sets[39]: 472
Assign rand_sets[40]: 1340  LLC: 2048
rand_sets[40]: 1340
Assign rand_sets[41]: 852  LLC: 2048
rand_sets[41]: 852
Assign rand_sets[42]: 1365  LLC: 2048
rand_sets[42]: 1365
Assign rand_sets[43]: 47  LLC: 2048
rand_sets[43]: 47
Assign rand_sets[44]: 823  LLC: 2048
rand_sets[44]: 823
Assign rand_sets[45]: 686  LLC: 2048
rand_sets[45]: 686
Assign rand_sets[46]: 1637  LLC: 2048
rand_sets[46]: 1637
Assign rand_sets[47]: 1115  LLC: 2048
rand_sets[47]: 1115
Assign rand_sets[48]: 986  LLC: 2048
rand_sets[48]: 986
Assign rand_sets[49]: 258  LLC: 2048
rand_sets[49]: 258
Assign rand_sets[50]: 633  LLC: 2048
rand_sets[50]: 633
Assign rand_sets[51]: 920  LLC: 2048
rand_sets[51]: 920
Assign rand_sets[52]: 204  LLC: 2048
rand_sets[52]: 204
Assign rand_sets[53]: 227  LLC: 2048
rand_sets[53]: 227
Assign rand_sets[54]: 1818  LLC: 2048
rand_sets[54]: 1818
Assign rand_sets[55]: 886  LLC: 2048
rand_sets[55]: 886
Assign rand_sets[56]: 1422  LLC: 2048
rand_sets[56]: 1422
Assign rand_sets[57]: 607  LLC: 2048
rand_sets[57]: 607
Assign rand_sets[58]: 217  LLC: 2048
rand_sets[58]: 217
Assign rand_sets[59]: 1945  LLC: 2048
rand_sets[59]: 1945
Assign rand_sets[60]: 143  LLC: 2048
rand_sets[60]: 143
Assign rand_sets[61]: 1311  LLC: 2048
rand_sets[61]: 1311
Assign rand_sets[62]: 319  LLC: 2048
rand_sets[62]: 319
Assign rand_sets[63]: 1846  LLC: 2048
rand_sets[63]: 1846
 CLEAN-RRIP-POLICY-1: 0-3-2-3-0-2-0-1- CLEAN-RRIP-POLICY-2: 0-3-2-3-0-2-0-1-
 DIRTY-RRIP-POLICY-1: 2-3-2-3-1-2-1-1- DIRTY-RRIP-POLICY-2: 2-3-2-3-1-2-1-1-
 PSEL width: 10
Heartbeat CPU 0 instructions: 10000001 cycles: 7316001 heartbeat IPC: 1.36687 cumulative IPC: 1.36687 (Simulation time: 0 hr 0 min 15 sec) 
Heartbeat CPU 0 instructions: 20000000 cycles: 14307566 heartbeat IPC: 1.43029 cumulative IPC: 1.39786 (Simulation time: 0 hr 0 min 29 sec) 
Heartbeat CPU 0 instructions: 30000001 cycles: 21020672 heartbeat IPC: 1.48962 cumulative IPC: 1.42717 (Simulation time: 0 hr 0 min 45 sec) 
Heartbeat CPU 0 instructions: 40000000 cycles: 27481542 heartbeat IPC: 1.54778 cumulative IPC: 1.45552 (Simulation time: 0 hr 1 min 1 sec) 
Heartbeat CPU 0 instructions: 50000001 cycles: 33583164 heartbeat IPC: 1.63891 cumulative IPC: 1.48884 (Simulation time: 0 hr 1 min 17 sec) 
Heartbeat CPU 0 instructions: 60000000 cycles: 40064234 heartbeat IPC: 1.54295 cumulative IPC: 1.4976 (Simulation time: 0 hr 1 min 33 sec) 
Heartbeat CPU 0 instructions: 70000000 cycles: 47102180 heartbeat IPC: 1.42087 cumulative IPC: 1.48613 (Simulation time: 0 hr 1 min 48 sec) 
Heartbeat CPU 0 instructions: 80000000 cycles: 54191789 heartbeat IPC: 1.41052 cumulative IPC: 1.47624 (Simulation time: 0 hr 2 min 2 sec) 
Heartbeat CPU 0 instructions: 90000003 cycles: 61196155 heartbeat IPC: 1.42768 cumulative IPC: 1.47068 (Simulation time: 0 hr 2 min 17 sec) 
Heartbeat CPU 0 instructions: 100000000 cycles: 68363477 heartbeat IPC: 1.39522 cumulative IPC: 1.46277 (Simulation time: 0 hr 2 min 31 sec) 

Warmup complete CPU 0 instructions: 100000004 cycles: 68363478 (Simulation time: 0 hr 2 min 31 sec) 

Heartbeat CPU 0 instructions: 110000003 cycles: 96056265 heartbeat IPC: 0.361105 cumulative IPC: 0.361105 (Simulation time: 0 hr 3 min 0 sec) 
Heartbeat CPU 0 instructions: 120000000 cycles: 123535086 heartbeat IPC: 0.363917 cumulative IPC: 0.362505 (Simulation time: 0 hr 3 min 29 sec) 
Heartbeat CPU 0 instructions: 130000000 cycles: 148530822 heartbeat IPC: 0.400068 cumulative IPC: 0.374217 (Simulation time: 0 hr 3 min 57 sec) 
Heartbeat CPU 0 instructions: 140000000 cycles: 178026838 heartbeat IPC: 0.339029 cumulative IPC: 0.364753 (Simulation time: 0 hr 4 min 25 sec) 
Heartbeat CPU 0 instructions: 150000000 cycles: 207923757 heartbeat IPC: 0.334483 cumulative IPC: 0.358268 (Simulation time: 0 hr 4 min 54 sec) 
Heartbeat CPU 0 instructions: 160000000 cycles: 235338005 heartbeat IPC: 0.364774 cumulative IPC: 0.359336 (Simulation time: 0 hr 5 min 21 sec) 
Heartbeat CPU 0 instructions: 170000001 cycles: 263386365 heartbeat IPC: 0.356527 cumulative IPC: 0.358932 (Simulation time: 0 hr 5 min 51 sec) 
Heartbeat CPU 0 instructions: 180000000 cycles: 291844657 heartbeat IPC: 0.351391 cumulative IPC: 0.357972 (Simulation time: 0 hr 6 min 20 sec) 
Heartbeat CPU 0 instructions: 190000002 cycles: 319873709 heartbeat IPC: 0.356773 cumulative IPC: 0.357838 (Simulation time: 0 hr 6 min 49 sec) 
Heartbeat CPU 0 instructions: 200000000 cycles: 348227985 heartbeat IPC: 0.35268 cumulative IPC: 0.357316 (Simulation time: 0 hr 7 min 18 sec) 
Heartbeat CPU 0 instructions: 210000002 cycles: 376063693 heartbeat IPC: 0.359251 cumulative IPC: 0.357491 (Simulation time: 0 hr 7 min 46 sec) 
Heartbeat CPU 0 instructions: 220000000 cycles: 405182860 heartbeat IPC: 0.343416 cumulative IPC: 0.356274 (Simulation time: 0 hr 8 min 14 sec) 
Heartbeat CPU 0 instructions: 230000000 cycles: 432750097 heartbeat IPC: 0.362749 cumulative IPC: 0.356764 (Simulation time: 0 hr 8 min 41 sec) 
Heartbeat CPU 0 instructions: 240000000 cycles: 458749898 heartbeat IPC: 0.384618 cumulative IPC: 0.358619 (Simulation time: 0 hr 9 min 8 sec) 
Heartbeat CPU 0 instructions: 250000000 cycles: 488906353 heartbeat IPC: 0.331604 cumulative IPC: 0.356682 (Simulation time: 0 hr 9 min 38 sec) 
Heartbeat CPU 0 instructions: 260000000 cycles: 516032212 heartbeat IPC: 0.368652 cumulative IPC: 0.357407 (Simulation time: 0 hr 10 min 6 sec) 
Heartbeat CPU 0 instructions: 270000003 cycles: 544455203 heartbeat IPC: 0.351828 cumulative IPC: 0.357074 (Simulation time: 0 hr 10 min 36 sec) 
Heartbeat CPU 0 instructions: 280000000 cycles: 572641963 heartbeat IPC: 0.354776 cumulative IPC: 0.356946 (Simulation time: 0 hr 11 min 5 sec) 
Heartbeat CPU 0 instructions: 290000000 cycles: 601504853 heartbeat IPC: 0.346466 cumulative IPC: 0.356378 (Simulation time: 0 hr 11 min 35 sec) 
Heartbeat CPU 0 instructions: 300000000 cycles: 631391851 heartbeat IPC: 0.334594 cumulative IPC: 0.355222 (Simulation time: 0 hr 12 min 3 sec) 
Heartbeat CPU 0 instructions: 310000001 cycles: 660771548 heartbeat IPC: 0.340371 cumulative IPC: 0.354485 (Simulation time: 0 hr 12 min 31 sec) 
Heartbeat CPU 0 instructions: 320000000 cycles: 688976182 heartbeat IPC: 0.354552 cumulative IPC: 0.354488 (Simulation time: 0 hr 12 min 59 sec) 
Heartbeat CPU 0 instructions: 330000000 cycles: 717588774 heartbeat IPC: 0.349496 cumulative IPC: 0.354268 (Simulation time: 0 hr 13 min 27 sec) 
Heartbeat CPU 0 instructions: 340000000 cycles: 746888561 heartbeat IPC: 0.341299 cumulative IPC: 0.353708 (Simulation time: 0 hr 13 min 56 sec) 
Heartbeat CPU 0 instructions: 350000003 cycles: 773909320 heartbeat IPC: 0.370086 cumulative IPC: 0.354336 (Simulation time: 0 hr 14 min 23 sec) 
Heartbeat CPU 0 instructions: 360000000 cycles: 802077406 heartbeat IPC: 0.355012 cumulative IPC: 0.354362 (Simulation time: 0 hr 14 min 51 sec) 
Heartbeat CPU 0 instructions: 370000000 cycles: 830314549 heartbeat IPC: 0.354143 cumulative IPC: 0.354353 (Simulation time: 0 hr 15 min 18 sec) 
Heartbeat CPU 0 instructions: 380000000 cycles: 858895249 heartbeat IPC: 0.349886 cumulative IPC: 0.354192 (Simulation time: 0 hr 15 min 45 sec) 
Heartbeat CPU 0 instructions: 390000001 cycles: 886550704 heartbeat IPC: 0.361592 cumulative IPC: 0.354442 (Simulation time: 0 hr 16 min 12 sec) 
Heartbeat CPU 0 instructions: 400000000 cycles: 915231604 heartbeat IPC: 0.348664 cumulative IPC: 0.354246 (Simulation time: 0 hr 16 min 39 sec) 
Heartbeat CPU 0 instructions: 410000001 cycles: 942560341 heartbeat IPC: 0.365915 cumulative IPC: 0.354611 (Simulation time: 0 hr 17 min 6 sec) 
Heartbeat CPU 0 instructions: 420000000 cycles: 969906476 heartbeat IPC: 0.365682 cumulative IPC: 0.354947 (Simulation time: 0 hr 17 min 33 sec) 
Heartbeat CPU 0 instructions: 430000002 cycles: 997631599 heartbeat IPC: 0.360684 cumulative IPC: 0.355118 (Simulation time: 0 hr 18 min 1 sec) 
Heartbeat CPU 0 instructions: 440000000 cycles: 1027188240 heartbeat IPC: 0.338333 cumulative IPC: 0.354601 (Simulation time: 0 hr 18 min 28 sec) 
Heartbeat CPU 0 instructions: 450000002 cycles: 1056458144 heartbeat IPC: 0.341648 cumulative IPC: 0.354217 (Simulation time: 0 hr 18 min 55 sec) 
Heartbeat CPU 0 instructions: 460000000 cycles: 1084189895 heartbeat IPC: 0.360597 cumulative IPC: 0.354391 (Simulation time: 0 hr 19 min 23 sec) 
Heartbeat CPU 0 instructions: 470000000 cycles: 1111850936 heartbeat IPC: 0.361519 cumulative IPC: 0.35458 (Simulation time: 0 hr 19 min 49 sec) 
Heartbeat CPU 0 instructions: 480000000 cycles: 1139751948 heartbeat IPC: 0.35841 cumulative IPC: 0.35468 (Simulation time: 0 hr 20 min 16 sec) 
Heartbeat CPU 0 instructions: 490000000 cycles: 1167364086 heartbeat IPC: 0.36216 cumulative IPC: 0.354868 (Simulation time: 0 hr 20 min 43 sec) 
Heartbeat CPU 0 instructions: 500000000 cycles: 1195658832 heartbeat IPC: 0.353422 cumulative IPC: 0.354832 (Simulation time: 0 hr 21 min 10 sec) 
Heartbeat CPU 0 instructions: 510000000 cycles: 1230782845 heartbeat IPC: 0.284706 cumulative IPC: 0.352713 (Simulation time: 0 hr 21 min 41 sec) 
Heartbeat CPU 0 instructions: 520000000 cycles: 1258871108 heartbeat IPC: 0.356021 cumulative IPC: 0.352791 (Simulation time: 0 hr 22 min 9 sec) 
Heartbeat CPU 0 instructions: 530000001 cycles: 1288470409 heartbeat IPC: 0.337846 cumulative IPC: 0.352428 (Simulation time: 0 hr 22 min 37 sec) 
Heartbeat CPU 0 instructions: 540000000 cycles: 1316624802 heartbeat IPC: 0.355184 cumulative IPC: 0.35249 (Simulation time: 0 hr 23 min 5 sec) 
Heartbeat CPU 0 instructions: 550000001 cycles: 1345877656 heartbeat IPC: 0.341847 cumulative IPC: 0.352247 (Simulation time: 0 hr 23 min 34 sec) 
Heartbeat CPU 0 instructions: 560000000 cycles: 1371298705 heartbeat IPC: 0.393375 cumulative IPC: 0.353049 (Simulation time: 0 hr 24 min 2 sec) 
Heartbeat CPU 0 instructions: 570000000 cycles: 1400847852 heartbeat IPC: 0.338419 cumulative IPC: 0.352725 (Simulation time: 0 hr 24 min 30 sec) 
Heartbeat CPU 0 instructions: 580000000 cycles: 1428879462 heartbeat IPC: 0.35674 cumulative IPC: 0.352807 (Simulation time: 0 hr 24 min 58 sec) 
Heartbeat CPU 0 instructions: 590000001 cycles: 1453721011 heartbeat IPC: 0.402551 cumulative IPC: 0.353699 (Simulation time: 0 hr 25 min 25 sec) 
Heartbeat CPU 0 instructions: 600000000 cycles: 1479937437 heartbeat IPC: 0.38144 cumulative IPC: 0.354215 (Simulation time: 0 hr 25 min 52 sec) 
Finished CPU 0 instructions: 500000000 cycles: 1411573981 cumulative IPC: 0.354215 (Simulation time: 0 hr 25 min 52 sec) 

CPU 0 Branch Prediction Accuracy: 86.4311% MPKI: 26.2662
Number of Branches: 96788573 Number of Mispredictions: 13133102
Number of LOAD Instructions: 164682285
Number of LOAD Instructions (ROI): 164682285
Number of STORE Instructions: 78194750
Number of STORE Instructions (ROI): 78194750
Total Destination Memory Operands: 83268534
Total Destination Memory Operands (ROI): 83268534
Total Source Memory Operands: 164712438
Total Source Memory Operands (ROI): 164712438
Number of DEPENDED LOADS: 7062332
Number of DEPENDED LOADS (ROI): 7062332
Number of SQ_ADDED: 83268522
Number of SQ_ADDED (ROI): 83268522
Number of LQ_ADDED: 236776224
Number of LQ_ADDED (ROI): 236776224
Number of Instructions read from trace: 600000066

ChampSim completed all CPUs

Region of Interest Statistics

CPU 0 cumulative IPC: 0.354215 instructions: 500000000 cycles: 1411573981
ITLB TOTAL     ACCESS:  100511723  HIT:  100307277  MISS:     204446
ITLB LOAD      ACCESS:  100511723  HIT:  100307277  MISS:     204446
ITLB RFO       ACCESS:          0  HIT:          0  MISS:          0
ITLB PREFETCH  ACCESS:          0  HIT:          0  MISS:          0
ITLB WRITEBACK ACCESS:          0  HIT:          0  MISS:          0
ITLB PREFETCH  REQUESTED:          0  ISSUED:          0  USEFUL:          0  USELESS:          0
ITLB TOTAL MSHR MERGED:     172424
ITLB LOAD MSHR MERGED:     172424
ITLB RFO MSHR MERGED:          0
ITLB PREFETCH MSHR MERGED:          0
ITLB WRITEBACK MSHR MERGED:          0
ITLB TOTAL ACCESSES:  100684147 HITS:  100307277 MISSES:     376870
ITLB LOAD ACCESSES:  100684147 HITS:  100307277 MISSES:     376870
ITLB RFO ACCESSES:          0 HITS:          0 MISSES:          0
ITLB PREFETCH ACCESSES:          0 HITS:          0 MISSES:          0
ITLB WRITEBACK ACCESSES:          0 HITS:          0 MISSES:          0
ITLB RQ ACCESS:  500000057
ITLB RQ TO_CACHE:  100684147
ITLB RQ MERGED:  399315910
ITLB RQ FORWARD:          0
ITLB WQ ACCESS:          0
ITLB WQ TO_CACHE:          0
ITLB WQ MERGED:          0
ITLB WQ FORWARD:          0
DTLB TOTAL     ACCESS:  165334119  HIT:  164699772  MISS:     634347
DTLB LOAD      ACCESS:  106290024  HIT:  105720061  MISS:     569963
DTLB RFO       ACCESS:   59044095  HIT:   58979711  MISS:      64384
DTLB PREFETCH  ACCESS:          0  HIT:          0  MISS:          0
DTLB WRITEBACK ACCESS:          0  HIT:          0  MISS:          0
DTLB PREFETCH  REQUESTED:          0  ISSUED:          0  USEFUL:          0  USELESS:          0
DTLB TOTAL MSHR MERGED:      99949
DTLB LOAD MSHR MERGED:      59441
DTLB RFO MSHR MERGED:      40508
DTLB PREFETCH MSHR MERGED:          0
DTLB WRITEBACK MSHR MERGED:          0
DTLB TOTAL ACCESSES:  165434068 HITS:  164699772 MISSES:     734296
DTLB LOAD ACCESSES:  106349465 HITS:  105720061 MISSES:     629404
DTLB RFO ACCESSES:   59084603 HITS:   58979711 MISSES:     104892
DTLB PREFETCH ACCESSES:          0 HITS:          0 MISSES:          0
DTLB WRITEBACK ACCESSES:          0 HITS:          0 MISSES:          0
DTLB RQ ACCESS:  200308575
DTLB RQ TO_CACHE:  165434068
DTLB RQ MERGED:   34874507
DTLB RQ FORWARD:          0
DTLB WQ ACCESS:          0
DTLB WQ TO_CACHE:          0
DTLB WQ MERGED:          0
DTLB WQ FORWARD:          0
L1D TOTAL     ACCESS:  281794004  HIT:  273884727  MISS:    7909277
L1D LOAD      ACCESS:  110411918  HIT:  107131792  MISS:    3280126
L1D RFO       ACCESS:   67104115  HIT:   66212803  MISS:     891312
L1D PREFETCH  ACCESS:  104277971  HIT:  100540132  MISS:    3737839
L1D WRITEBACK ACCESS:          0  HIT:          0  MISS:          0
L1D PREFETCH  REQUESTED:  110815154  ISSUED:  109115884  USEFUL:    1658659  USELESS:    2079144
L1D TOTAL MSHR MERGED:    2906916
L1D LOAD MSHR MERGED:     502896
L1D RFO MSHR MERGED:    1882316
L1D PREFETCH MSHR MERGED:     521704
L1D WRITEBACK MSHR MERGED:          0
L1D TOTAL ACCESSES:  284728461 HITS:  273912268 MISSES:   10816193
L1D LOAD ACCESSES:  110816705 HITS:  107133343 MISSES:    3683362
L1D RFO ACCESSES:   68973896 HITS:   66212803 MISSES:    2761093
L1D PREFETCH ACCESSES:  104937860 HITS:  100566122 MISSES:    4371738
L1D WRITEBACK ACCESSES:          0 HITS:          0 MISSES:          0
L1D RQ ACCESS:  130755972
L1D RQ TO_CACHE:  110815157
L1D RQ MERGED:   19939264
L1D RQ FORWARD:          0
L1D WQ ACCESS:   69552603
L1D WQ TO_CACHE:   68973897
L1D WQ MERGED:     578706
L1D WQ FORWARD:      27541
L1I TOTAL     ACCESS:  126559029  HIT:  122320475  MISS:    4238554
L1I LOAD      ACCESS:  126559029  HIT:  122320475  MISS:    4238554
L1I RFO       ACCESS:          0  HIT:          0  MISS:          0
L1I PREFETCH  ACCESS:          0  HIT:          0  MISS:          0
L1I WRITEBACK ACCESS:          0  HIT:          0  MISS:          0
L1I PREFETCH  REQUESTED:          0  ISSUED:          0  USEFUL:          0  USELESS:          0
L1I TOTAL MSHR MERGED:    1834593
L1I LOAD MSHR MERGED:    1834593
L1I RFO MSHR MERGED:          0
L1I PREFETCH MSHR MERGED:          0
L1I WRITEBACK MSHR MERGED:          0
L1I TOTAL ACCESSES:  128393625 HITS:  122320475 MISSES:    6073150
L1I LOAD ACCESSES:  128393625 HITS:  122320475 MISSES:    6073150
L1I RFO ACCESSES:          0 HITS:          0 MISSES:          0
L1I PREFETCH ACCESSES:          0 HITS:          0 MISSES:          0
L1I WRITEBACK ACCESSES:          0 HITS:          0 MISSES:          0
L1I RQ ACCESS:  500000057
L1I RQ TO_CACHE:  128393625
L1I RQ MERGED:  371606432
L1I RQ FORWARD:          0
L1I WQ ACCESS:          0
L1I WQ TO_CACHE:          0
L1I WQ MERGED:          0
L1I WQ FORWARD:          0
L2C TOTAL     ACCESS:   14904359  HIT:   11158003  MISS:    3746356
L2C LOAD      ACCESS:    7418813  HIT:    5098642  MISS:    2320171
L2C RFO       ACCESS:     878678  HIT:     409912  MISS:     468766
L2C PREFETCH  ACCESS:    4567635  HIT:    3627471  MISS:     940164
L2C WRITEBACK ACCESS:    2039233  HIT:    2021978  MISS:      17255
L2C PREFETCH  REQUESTED:     842617  ISSUED:     842617  USEFUL:     203124  USELESS:     736746
L2C TOTAL MSHR MERGED:       7768
L2C LOAD MSHR MERGED:        991
L2C RFO MSHR MERGED:          0
L2C PREFETCH MSHR MERGED:       6777
L2C WRITEBACK MSHR MERGED:          0
L2C TOTAL ACCESSES:   14913007 HITS:   11158453 MISSES:    3754554
L2C LOAD ACCESSES:    7419020 HITS:    5098849 MISSES:    2320171
L2C RFO ACCESSES:     878777 HITS:     410011 MISSES:     468766
L2C PREFETCH ACCESSES:    4575977 HITS:    3627615 MISSES:     948362
L2C WRITEBACK ACCESSES:    2039233 HITS:    2021978 MISSES:      17255
L2C RQ ACCESS:    8297800
L2C RQ TO_CACHE:    8297494
L2C RQ MERGED:          0
L2C RQ FORWARD:          0
L2C WQ ACCESS:    2039233
L2C WQ TO_CACHE:    2039233
L2C WQ MERGED:          0
L2C WQ FORWARD:        450
LLC TOTAL     ACCESS:    4609622  HIT:    3887412  MISS:     722210
LLC LOAD      ACCESS:    2319167  HIT:    2071770  MISS:     247397
LLC RFO       ACCESS:     468755  HIT:     377856  MISS:      90899
LLC PREFETCH  ACCESS:     941468  HIT:     610522  MISS:     330946
LLC WRITEBACK ACCESS:     880232  HIT:     827264  MISS:      52968
LLC PREFETCH  REQUESTED:          0  ISSUED:          0  USEFUL:      17261  USELESS:     313985
LLC TOTAL MSHR MERGED:         96
LLC LOAD MSHR MERGED:         39
LLC RFO MSHR MERGED:          0
LLC PREFETCH MSHR MERGED:         57
LLC WRITEBACK MSHR MERGED:          0
LLC TOTAL ACCESSES:    4609751 HITS:    3887445 MISSES:     722306
LLC LOAD ACCESSES:    2319180 HITS:    2071783 MISSES:     247397
LLC RFO ACCESSES:     468766 HITS:     377867 MISSES:      90899
LLC PREFETCH ACCESSES:     941573 HITS:     610531 MISSES:     331042
LLC WRITEBACK ACCESSES:     880232 HITS:     827264 MISSES:      52968
LLC 0 RQ ACCESS:    2787946
LLC 0 RQ TO_CACHE:    2787922
LLC 0 RQ MERGED:          0
LLC 0 RQ FORWARD:          0
LLC WQ ACCESS:     880232
LLC WQ TO_CACHE:     880232
LLC WQ MERGED:          0
LLC WQ FORWARD:         33
Major fault: 0 Minor fault: 12862
CPU 0 L1D next line prefetcher final stats
CPU 0 L2C PC-based stride prefetcher final stats
All Misses: 852671
All Hits: 4573957
SD Algo Stats - Switches: 0 SRR-Repls: 287721 BRR-Repls: 0

DRAM Statistics
 CHANNEL 0
 RQ ROW_BUFFER_HIT:     129952  ROW_BUFFER_MISS:     536612
 DBUS_CONGESTED:     402506
 WQ ROW_BUFFER_HIT:      19502  ROW_BUFFER_MISS:     215548  FULL:          0

 AVG_CONGESTED_CYCLE: 13
LOADS RETIRED: 136549171
INSTR RETIRED: 500000000
