
*** ChampSim Multicore Out-of-Order Simulator ***

Warmup Instructions: 100000000
Simulation Instructions: 500000000
Number of CPUs: 1
LLC sets: 2048
LLC ways: 16
Clean RRIP Policies: 220230102202301 Dirty RRIP Policies: 2200031122000311 PSEL Width: 10 Track Set: 4294967295 PSEL Mask: 1 Demote Mask: 3234011132340111DS Algo: 0Window size: 0
Off-chip DRAM Size: 4096 MB Channels: 1 Width: 64-bit Data Rate: 1600 MT/s

CPU 0 runs /mnt/beegfs/iconst01/spec2017/Lbm.trace.gz
NOT SORTED
TRACE STRING: /mnt/beegfs/iconst01/spec2017/Lbm.trace.gz
SORTED
TRACE STRING: /mnt/beegfs/iconst01/spec2017/Lbm.trace.gz
INITIAL
TRACE STRING: /mnt/beegfs/iconst01/spec2017/Lbm.trace.gz

champsim_seed used: 283

CPU 0 L1D next line prefetcher
CPU 0 L2C IP-based stride prefetcher
Initialize DRRIP state
Assign rand_sets[0]: 454  LLC: 2048
rand_sets[0]: 454
Assign rand_sets[1]: 1662  LLC: 2048
rand_sets[1]: 1662
Assign rand_sets[2]: 1921  LLC: 2048
rand_sets[2]: 1921
Assign rand_sets[3]: 1131  LLC: 2048
rand_sets[3]: 1131
Assign rand_sets[4]: 331  LLC: 2048
rand_sets[4]: 331
Assign rand_sets[5]: 1531  LLC: 2048
rand_sets[5]: 1531
Assign rand_sets[6]: 482  LLC: 2048
rand_sets[6]: 482
Assign rand_sets[7]: 1275  LLC: 2048
rand_sets[7]: 1275
Assign rand_sets[8]: 1876  LLC: 2048
rand_sets[8]: 1876
Assign rand_sets[9]: 2038  LLC: 2048
rand_sets[9]: 2038
Assign rand_sets[10]: 701  LLC: 2048
rand_sets[10]: 701
Assign rand_sets[11]: 479  LLC: 2048
rand_sets[11]: 479
Assign rand_sets[12]: 892  LLC: 2048
rand_sets[12]: 892
Assign rand_sets[13]: 1820  LLC: 2048
rand_sets[13]: 1820
Assign rand_sets[14]: 1505  LLC: 2048
rand_sets[14]: 1505
Assign rand_sets[15]: 1159  LLC: 2048
rand_sets[15]: 1159
Assign rand_sets[16]: 513  LLC: 2048
rand_sets[16]: 513
Assign rand_sets[17]: 703  LLC: 2048
rand_sets[17]: 703
Assign rand_sets[18]: 561  LLC: 2048
rand_sets[18]: 561
Assign rand_sets[19]: 990  LLC: 2048
rand_sets[19]: 990
Assign rand_sets[20]: 342  LLC: 2048
rand_sets[20]: 342
Assign rand_sets[21]: 882  LLC: 2048
rand_sets[21]: 882
Assign rand_sets[22]: 15  LLC: 2048
rand_sets[22]: 15
Assign rand_sets[23]: 71  LLC: 2048
rand_sets[23]: 71
Assign rand_sets[24]: 1127  LLC: 2048
rand_sets[24]: 1127
Assign rand_sets[25]: 1382  LLC: 2048
rand_sets[25]: 1382
Assign rand_sets[26]: 647  LLC: 2048
rand_sets[26]: 647
Assign rand_sets[27]: 857  LLC: 2048
rand_sets[27]: 857
Assign rand_sets[28]: 1450  LLC: 2048
rand_sets[28]: 1450
Assign rand_sets[29]: 1160  LLC: 2048
rand_sets[29]: 1160
Assign rand_sets[30]: 1852  LLC: 2048
rand_sets[30]: 1852
Assign rand_sets[31]: 1881  LLC: 2048
rand_sets[31]: 1881
Assign rand_sets[32]: 1770  LLC: 2048
rand_sets[32]: 1770
Assign rand_sets[33]: 1622  LLC: 2048
rand_sets[33]: 1622
Assign rand_sets[34]: 275  LLC: 2048
rand_sets[34]: 275
Assign rand_sets[35]: 635  LLC: 2048
rand_sets[35]: 635
Assign rand_sets[36]: 466  LLC: 2048
rand_sets[36]: 466
Assign rand_sets[37]: 1413  LLC: 2048
rand_sets[37]: 1413
Assign rand_sets[38]: 417  LLC: 2048
rand_sets[38]: 417
Assign rand_sets[39]: 472  LLC: 2048
rand_sets[39]: 472
Assign rand_sets[40]: 1340  LLC: 2048
rand_sets[40]: 1340
Assign rand_sets[41]: 852  LLC: 2048
rand_sets[41]: 852
Assign rand_sets[42]: 1365  LLC: 2048
rand_sets[42]: 1365
Assign rand_sets[43]: 47  LLC: 2048
rand_sets[43]: 47
Assign rand_sets[44]: 823  LLC: 2048
rand_sets[44]: 823
Assign rand_sets[45]: 686  LLC: 2048
rand_sets[45]: 686
Assign rand_sets[46]: 1637  LLC: 2048
rand_sets[46]: 1637
Assign rand_sets[47]: 1115  LLC: 2048
rand_sets[47]: 1115
Assign rand_sets[48]: 986  LLC: 2048
rand_sets[48]: 986
Assign rand_sets[49]: 258  LLC: 2048
rand_sets[49]: 258
Assign rand_sets[50]: 633  LLC: 2048
rand_sets[50]: 633
Assign rand_sets[51]: 920  LLC: 2048
rand_sets[51]: 920
Assign rand_sets[52]: 204  LLC: 2048
rand_sets[52]: 204
Assign rand_sets[53]: 227  LLC: 2048
rand_sets[53]: 227
Assign rand_sets[54]: 1818  LLC: 2048
rand_sets[54]: 1818
Assign rand_sets[55]: 886  LLC: 2048
rand_sets[55]: 886
Assign rand_sets[56]: 1422  LLC: 2048
rand_sets[56]: 1422
Assign rand_sets[57]: 607  LLC: 2048
rand_sets[57]: 607
Assign rand_sets[58]: 217  LLC: 2048
rand_sets[58]: 217
Assign rand_sets[59]: 1945  LLC: 2048
rand_sets[59]: 1945
Assign rand_sets[60]: 143  LLC: 2048
rand_sets[60]: 143
Assign rand_sets[61]: 1311  LLC: 2048
rand_sets[61]: 1311
Assign rand_sets[62]: 319  LLC: 2048
rand_sets[62]: 319
Assign rand_sets[63]: 1846  LLC: 2048
rand_sets[63]: 1846
 CLEAN-RRIP-POLICY-1: 0-2-2-0-2-3-0-1- CLEAN-RRIP-POLICY-2: 0-2-2-0-2-3-0-1-
 DIRTY-RRIP-POLICY-1: 2-2-0-0-0-3-1-1- DIRTY-RRIP-POLICY-2: 2-2-0-0-0-3-1-1-
 PSEL width: 10
Heartbeat CPU 0 instructions: 10000000 cycles: 4321610 heartbeat IPC: 2.31395 cumulative IPC: 2.31395 (Simulation time: 0 hr 0 min 18 sec) 
Heartbeat CPU 0 instructions: 20000000 cycles: 8643651 heartbeat IPC: 2.31372 cumulative IPC: 2.31384 (Simulation time: 0 hr 0 min 36 sec) 
Heartbeat CPU 0 instructions: 30000000 cycles: 12965497 heartbeat IPC: 2.31383 cumulative IPC: 2.31383 (Simulation time: 0 hr 0 min 54 sec) 
Heartbeat CPU 0 instructions: 40000000 cycles: 17291398 heartbeat IPC: 2.31166 cumulative IPC: 2.31329 (Simulation time: 0 hr 1 min 12 sec) 
Heartbeat CPU 0 instructions: 50000000 cycles: 21613383 heartbeat IPC: 2.31375 cumulative IPC: 2.31338 (Simulation time: 0 hr 1 min 30 sec) 
Heartbeat CPU 0 instructions: 60000000 cycles: 25935178 heartbeat IPC: 2.31385 cumulative IPC: 2.31346 (Simulation time: 0 hr 1 min 48 sec) 
Heartbeat CPU 0 instructions: 70000000 cycles: 30256710 heartbeat IPC: 2.31399 cumulative IPC: 2.31354 (Simulation time: 0 hr 2 min 7 sec) 
Heartbeat CPU 0 instructions: 80000000 cycles: 34582929 heartbeat IPC: 2.31149 cumulative IPC: 2.31328 (Simulation time: 0 hr 2 min 25 sec) 
Heartbeat CPU 0 instructions: 90000003 cycles: 38905048 heartbeat IPC: 2.31368 cumulative IPC: 2.31332 (Simulation time: 0 hr 2 min 44 sec) 
Heartbeat CPU 0 instructions: 100000000 cycles: 43226557 heartbeat IPC: 2.31401 cumulative IPC: 2.31339 (Simulation time: 0 hr 3 min 2 sec) 

Warmup complete CPU 0 instructions: 100000001 cycles: 43226558 (Simulation time: 0 hr 3 min 2 sec) 

Heartbeat CPU 0 instructions: 110000000 cycles: 57557678 heartbeat IPC: 0.697782 cumulative IPC: 0.697782 (Simulation time: 0 hr 3 min 28 sec) 
Heartbeat CPU 0 instructions: 120000000 cycles: 72131128 heartbeat IPC: 0.686179 cumulative IPC: 0.691932 (Simulation time: 0 hr 3 min 55 sec) 
Heartbeat CPU 0 instructions: 130000000 cycles: 86503686 heartbeat IPC: 0.69577 cumulative IPC: 0.693207 (Simulation time: 0 hr 4 min 21 sec) 
Heartbeat CPU 0 instructions: 140000000 cycles: 100919178 heartbeat IPC: 0.693698 cumulative IPC: 0.69333 (Simulation time: 0 hr 4 min 47 sec) 
Heartbeat CPU 0 instructions: 150000003 cycles: 115170776 heartbeat IPC: 0.701676 cumulative IPC: 0.694983 (Simulation time: 0 hr 5 min 14 sec) 
Heartbeat CPU 0 instructions: 160000000 cycles: 128800266 heartbeat IPC: 0.733703 cumulative IPC: 0.70115 (Simulation time: 0 hr 5 min 40 sec) 
Heartbeat CPU 0 instructions: 170000002 cycles: 143160058 heartbeat IPC: 0.696389 cumulative IPC: 0.700466 (Simulation time: 0 hr 6 min 6 sec) 
Heartbeat CPU 0 instructions: 180000000 cycles: 157432932 heartbeat IPC: 0.70063 cumulative IPC: 0.700486 (Simulation time: 0 hr 6 min 32 sec) 
Heartbeat CPU 0 instructions: 190000003 cycles: 174511443 heartbeat IPC: 0.585531 cumulative IPC: 0.685532 (Simulation time: 0 hr 7 min 2 sec) 
Heartbeat CPU 0 instructions: 200000000 cycles: 195308475 heartbeat IPC: 0.480838 cumulative IPC: 0.65754 (Simulation time: 0 hr 7 min 34 sec) 
Heartbeat CPU 0 instructions: 210000001 cycles: 209345273 heartbeat IPC: 0.712413 cumulative IPC: 0.662177 (Simulation time: 0 hr 8 min 1 sec) 
Heartbeat CPU 0 instructions: 220000000 cycles: 223274888 heartbeat IPC: 0.717895 cumulative IPC: 0.666488 (Simulation time: 0 hr 8 min 27 sec) 
Heartbeat CPU 0 instructions: 230000001 cycles: 237665164 heartbeat IPC: 0.694914 cumulative IPC: 0.668591 (Simulation time: 0 hr 8 min 53 sec) 
Heartbeat CPU 0 instructions: 240000000 cycles: 252379994 heartbeat IPC: 0.679586 cumulative IPC: 0.669365 (Simulation time: 0 hr 9 min 20 sec) 
Heartbeat CPU 0 instructions: 250000000 cycles: 266591389 heartbeat IPC: 0.703661 cumulative IPC: 0.671547 (Simulation time: 0 hr 9 min 46 sec) 
Heartbeat CPU 0 instructions: 260000000 cycles: 281201998 heartbeat IPC: 0.684434 cumulative IPC: 0.672338 (Simulation time: 0 hr 10 min 13 sec) 
Heartbeat CPU 0 instructions: 270000002 cycles: 296449458 heartbeat IPC: 0.655847 cumulative IPC: 0.671345 (Simulation time: 0 hr 10 min 40 sec) 
Heartbeat CPU 0 instructions: 280000000 cycles: 311489577 heartbeat IPC: 0.664888 cumulative IPC: 0.670983 (Simulation time: 0 hr 11 min 7 sec) 
Heartbeat CPU 0 instructions: 290000003 cycles: 327478961 heartbeat IPC: 0.625415 cumulative IPC: 0.66842 (Simulation time: 0 hr 11 min 35 sec) 
Heartbeat CPU 0 instructions: 300000000 cycles: 342723989 heartbeat IPC: 0.655951 cumulative IPC: 0.667785 (Simulation time: 0 hr 12 min 2 sec) 
Heartbeat CPU 0 instructions: 310000000 cycles: 358193270 heartbeat IPC: 0.646442 cumulative IPC: 0.666737 (Simulation time: 0 hr 12 min 30 sec) 
Heartbeat CPU 0 instructions: 320000000 cycles: 374298007 heartbeat IPC: 0.620935 cumulative IPC: 0.664509 (Simulation time: 0 hr 12 min 57 sec) 
Heartbeat CPU 0 instructions: 330000002 cycles: 389314216 heartbeat IPC: 0.665947 cumulative IPC: 0.664572 (Simulation time: 0 hr 13 min 24 sec) 
Heartbeat CPU 0 instructions: 340000000 cycles: 405632655 heartbeat IPC: 0.612804 cumulative IPC: 0.662241 (Simulation time: 0 hr 13 min 51 sec) 
Heartbeat CPU 0 instructions: 350000001 cycles: 420471864 heartbeat IPC: 0.67389 cumulative IPC: 0.662699 (Simulation time: 0 hr 14 min 18 sec) 
Heartbeat CPU 0 instructions: 360000000 cycles: 436034891 heartbeat IPC: 0.642548 cumulative IPC: 0.6619 (Simulation time: 0 hr 14 min 45 sec) 
Heartbeat CPU 0 instructions: 370000000 cycles: 450930111 heartbeat IPC: 0.671356 cumulative IPC: 0.662246 (Simulation time: 0 hr 15 min 11 sec) 
Heartbeat CPU 0 instructions: 380000000 cycles: 466112994 heartbeat IPC: 0.658636 cumulative IPC: 0.662116 (Simulation time: 0 hr 15 min 38 sec) 
Heartbeat CPU 0 instructions: 390000000 cycles: 480658494 heartbeat IPC: 0.687498 cumulative IPC: 0.66296 (Simulation time: 0 hr 16 min 4 sec) 
Heartbeat CPU 0 instructions: 400000000 cycles: 495162921 heartbeat IPC: 0.689445 cumulative IPC: 0.66381 (Simulation time: 0 hr 16 min 30 sec) 
Heartbeat CPU 0 instructions: 410000000 cycles: 509610707 heartbeat IPC: 0.692148 cumulative IPC: 0.664688 (Simulation time: 0 hr 16 min 56 sec) 
Heartbeat CPU 0 instructions: 420000000 cycles: 523985666 heartbeat IPC: 0.695654 cumulative IPC: 0.665614 (Simulation time: 0 hr 17 min 21 sec) 
Heartbeat CPU 0 instructions: 430000002 cycles: 537887218 heartbeat IPC: 0.719344 cumulative IPC: 0.667124 (Simulation time: 0 hr 17 min 46 sec) 
Heartbeat CPU 0 instructions: 440000000 cycles: 551763952 heartbeat IPC: 0.720631 cumulative IPC: 0.668584 (Simulation time: 0 hr 18 min 11 sec) 
Heartbeat CPU 0 instructions: 450000000 cycles: 566283890 heartbeat IPC: 0.688708 cumulative IPC: 0.669143 (Simulation time: 0 hr 18 min 37 sec) 
Heartbeat CPU 0 instructions: 460000000 cycles: 580897685 heartbeat IPC: 0.684285 cumulative IPC: 0.669554 (Simulation time: 0 hr 19 min 2 sec) 
Heartbeat CPU 0 instructions: 470000000 cycles: 595114490 heartbeat IPC: 0.703393 cumulative IPC: 0.670426 (Simulation time: 0 hr 19 min 28 sec) 
Heartbeat CPU 0 instructions: 480000000 cycles: 609227924 heartbeat IPC: 0.708545 cumulative IPC: 0.671376 (Simulation time: 0 hr 19 min 53 sec) 
Heartbeat CPU 0 instructions: 490000001 cycles: 623378155 heartbeat IPC: 0.706702 cumulative IPC: 0.672238 (Simulation time: 0 hr 20 min 18 sec) 
Heartbeat CPU 0 instructions: 500000000 cycles: 637563477 heartbeat IPC: 0.704954 cumulative IPC: 0.673019 (Simulation time: 0 hr 20 min 43 sec) 
Heartbeat CPU 0 instructions: 510000002 cycles: 651656647 heartbeat IPC: 0.709564 cumulative IPC: 0.673865 (Simulation time: 0 hr 21 min 9 sec) 
Heartbeat CPU 0 instructions: 520000000 cycles: 665886469 heartbeat IPC: 0.702749 cumulative IPC: 0.674525 (Simulation time: 0 hr 21 min 34 sec) 
Heartbeat CPU 0 instructions: 530000001 cycles: 679472781 heartbeat IPC: 0.736035 cumulative IPC: 0.675839 (Simulation time: 0 hr 21 min 59 sec) 
Heartbeat CPU 0 instructions: 540000000 cycles: 693756815 heartbeat IPC: 0.700082 cumulative IPC: 0.676371 (Simulation time: 0 hr 22 min 24 sec) 
Heartbeat CPU 0 instructions: 550000003 cycles: 707961043 heartbeat IPC: 0.704016 cumulative IPC: 0.676962 (Simulation time: 0 hr 22 min 49 sec) 
Heartbeat CPU 0 instructions: 560000000 cycles: 722586629 heartbeat IPC: 0.683733 cumulative IPC: 0.677108 (Simulation time: 0 hr 23 min 15 sec) 
Heartbeat CPU 0 instructions: 570000001 cycles: 736557211 heartbeat IPC: 0.71579 cumulative IPC: 0.677887 (Simulation time: 0 hr 23 min 40 sec) 
Heartbeat CPU 0 instructions: 580000000 cycles: 750810240 heartbeat IPC: 0.701605 cumulative IPC: 0.678365 (Simulation time: 0 hr 24 min 5 sec) 
Heartbeat CPU 0 instructions: 590000003 cycles: 764465490 heartbeat IPC: 0.732319 cumulative IPC: 0.679386 (Simulation time: 0 hr 24 min 30 sec) 
Heartbeat CPU 0 instructions: 600000000 cycles: 778560366 heartbeat IPC: 0.709477 cumulative IPC: 0.679963 (Simulation time: 0 hr 24 min 55 sec) 
Finished CPU 0 instructions: 500000000 cycles: 735333816 cumulative IPC: 0.679963 (Simulation time: 0 hr 24 min 55 sec) 

CPU 0 Branch Prediction Accuracy: 99.5915% MPKI: 0.037126
Number of Branches: 4544106 Number of Mispredictions: 18563
Number of LOAD Instructions: 149787067
Number of LOAD Instructions (ROI): 149787067
Number of STORE Instructions: 77239062
Number of STORE Instructions (ROI): 77239062
Total Destination Memory Operands: 77239062
Total Destination Memory Operands (ROI): 77239062
Total Source Memory Operands: 149787067
Total Source Memory Operands (ROI): 149787067
Number of DEPENDED LOADS: 19248223
Number of DEPENDED LOADS (ROI): 19248223
Number of SQ_ADDED: 77239036
Number of SQ_ADDED (ROI): 77239036
Number of LQ_ADDED: 149787020
Number of LQ_ADDED (ROI): 149787020
Number of Instructions read from trace: 600000256

ChampSim completed all CPUs

Region of Interest Statistics

CPU 0 cumulative IPC: 0.679963 instructions: 500000000 cycles: 735333816
ITLB TOTAL     ACCESS:   86447159  HIT:   86447158  MISS:          1
ITLB LOAD      ACCESS:   86447159  HIT:   86447158  MISS:          1
ITLB RFO       ACCESS:          0  HIT:          0  MISS:          0
ITLB PREFETCH  ACCESS:          0  HIT:          0  MISS:          0
ITLB WRITEBACK ACCESS:          0  HIT:          0  MISS:          0
ITLB PREFETCH  REQUESTED:          0  ISSUED:          0  USEFUL:          0  USELESS:          0
ITLB TOTAL MSHR MERGED:          1
ITLB LOAD MSHR MERGED:          1
ITLB RFO MSHR MERGED:          0
ITLB PREFETCH MSHR MERGED:          0
ITLB WRITEBACK MSHR MERGED:          0
ITLB TOTAL ACCESSES:   86447160 HITS:   86447158 MISSES:          2
ITLB LOAD ACCESSES:   86447160 HITS:   86447158 MISSES:          2
ITLB RFO ACCESSES:          0 HITS:          0 MISSES:          0
ITLB PREFETCH ACCESSES:          0 HITS:          0 MISSES:          0
ITLB WRITEBACK ACCESSES:          0 HITS:          0 MISSES:          0
ITLB RQ ACCESS:  500000002
ITLB RQ TO_CACHE:   86447160
ITLB RQ MERGED:  413552842
ITLB RQ FORWARD:          0
ITLB WQ ACCESS:          0
ITLB WQ TO_CACHE:          0
ITLB WQ MERGED:          0
ITLB WQ FORWARD:          0
DTLB TOTAL     ACCESS:   98105904  HIT:   97920643  MISS:     185261
DTLB LOAD      ACCESS:   55041448  HIT:   54995137  MISS:      46311
DTLB RFO       ACCESS:   43064456  HIT:   42925506  MISS:     138950
DTLB PREFETCH  ACCESS:          0  HIT:          0  MISS:          0
DTLB WRITEBACK ACCESS:          0  HIT:          0  MISS:          0
DTLB PREFETCH  REQUESTED:          0  ISSUED:          0  USEFUL:          0  USELESS:          0
DTLB TOTAL MSHR MERGED:      83545
DTLB LOAD MSHR MERGED:      83540
DTLB RFO MSHR MERGED:          5
DTLB PREFETCH MSHR MERGED:          0
DTLB WRITEBACK MSHR MERGED:          0
DTLB TOTAL ACCESSES:   98189449 HITS:   97920643 MISSES:     268806
DTLB LOAD ACCESSES:   55124988 HITS:   54995137 MISSES:     129851
DTLB RFO ACCESSES:   43064461 HITS:   42925506 MISSES:     138955
DTLB PREFETCH ACCESSES:          0 HITS:          0 MISSES:          0
DTLB WRITEBACK ACCESSES:          0 HITS:          0 MISSES:          0
DTLB RQ ACCESS:  173634304
DTLB RQ TO_CACHE:   98189449
DTLB RQ MERGED:   75444855
DTLB RQ FORWARD:          0
DTLB WQ ACCESS:          0
DTLB WQ TO_CACHE:          0
DTLB WQ MERGED:          0
DTLB WQ FORWARD:          0
L1D TOTAL     ACCESS:  164530315  HIT:  144957765  MISS:   19572550
L1D LOAD      ACCESS:   60510236  HIT:   58658017  MISS:    1852219
L1D RFO       ACCESS:   64513144  HIT:   47911009  MISS:   16602135
L1D PREFETCH  ACCESS:   39506935  HIT:   38388739  MISS:    1118196
L1D WRITEBACK ACCESS:          0  HIT:          0  MISS:          0
L1D PREFETCH  REQUESTED:   61675980  ISSUED:   61384035  USEFUL:    1116282  USELESS:       1914
L1D TOTAL MSHR MERGED:    3508867
L1D LOAD MSHR MERGED:    1237366
L1D RFO MSHR MERGED:      11319
L1D PREFETCH MSHR MERGED:    2260182
L1D WRITEBACK MSHR MERGED:          0
L1D TOTAL ACCESSES:  168618551 HITS:  145537135 MISSES:   23081416
L1D LOAD ACCESSES:   61948435 HITS:   58930472 MISSES:    3017963
L1D RFO ACCESSES:   64524436 HITS:   47911009 MISSES:   16613427
L1D PREFETCH ACCESSES:   42145680 HITS:   38695654 MISSES:    3450026
L1D WRITEBACK ACCESSES:          0 HITS:          0 MISSES:          0
L1D RQ ACCESS:  109092989
L1D RQ TO_CACHE:   61675980
L1D RQ MERGED:   47144554
L1D RQ FORWARD:          0
L1D WQ ACCESS:   64541313
L1D WQ TO_CACHE:   64524437
L1D WQ MERGED:      16876
L1D WQ FORWARD:     579370
L1I TOTAL     ACCESS:  107755662  HIT:  107755654  MISS:          8
L1I LOAD      ACCESS:  107755662  HIT:  107755654  MISS:          8
L1I RFO       ACCESS:          0  HIT:          0  MISS:          0
L1I PREFETCH  ACCESS:          0  HIT:          0  MISS:          0
L1I WRITEBACK ACCESS:          0  HIT:          0  MISS:          0
L1I PREFETCH  REQUESTED:          0  ISSUED:          0  USEFUL:          0  USELESS:          0
L1I TOTAL MSHR MERGED:          3
L1I LOAD MSHR MERGED:          3
L1I RFO MSHR MERGED:          0
L1I PREFETCH MSHR MERGED:          0
L1I WRITEBACK MSHR MERGED:          0
L1I TOTAL ACCESSES:  107755665 HITS:  107755654 MISSES:         11
L1I LOAD ACCESSES:  107755665 HITS:  107755654 MISSES:         11
L1I RFO ACCESSES:          0 HITS:          0 MISSES:          0
L1I PREFETCH ACCESSES:          0 HITS:          0 MISSES:          0
L1I WRITEBACK ACCESSES:          0 HITS:          0 MISSES:          0
L1I RQ ACCESS:  500000007
L1I RQ TO_CACHE:  107755665
L1I RQ MERGED:  392244342
L1I RQ FORWARD:          0
L1I WQ ACCESS:          0
L1I WQ TO_CACHE:          0
L1I WQ MERGED:          0
L1I WQ FORWARD:          0
L2C TOTAL     ACCESS:   36796996  HIT:   24839406  MISS:   11957590
L2C LOAD      ACCESS:    1780605  HIT:     251453  MISS:    1529152
L2C RFO       ACCESS:   16602108  HIT:    7610728  MISS:    8991380
L2C PREFETCH  ACCESS:    1812099  HIT:     376270  MISS:    1435829
L2C WRITEBACK ACCESS:   16602184  HIT:   16600955  MISS:       1229
L2C PREFETCH  REQUESTED:     814296  ISSUED:     814296  USEFUL:     249121  USELESS:    1186992
L2C TOTAL MSHR MERGED:       2633
L2C LOAD MSHR MERGED:        591
L2C RFO MSHR MERGED:          0
L2C PREFETCH MSHR MERGED:       2042
L2C WRITEBACK MSHR MERGED:          0
L2C TOTAL ACCESSES:   36988969 HITS:   24839407 MISSES:   12149562
L2C LOAD ACCESSES:    1780605 HITS:     251453 MISSES:    1529152
L2C RFO ACCESSES:   16602108 HITS:    7610729 MISSES:    8991379
L2C PREFETCH ACCESSES:    2004072 HITS:     376270 MISSES:    1627802
L2C WRITEBACK ACCESSES:   16602184 HITS:   16600955 MISSES:       1229
L2C RQ ACCESS:   18382713
L2C RQ TO_CACHE:   18382712
L2C RQ MERGED:          0
L2C RQ FORWARD:          0
L2C WQ ACCESS:   16602184
L2C WQ TO_CACHE:   16602184
L2C WQ MERGED:          0
L2C WQ FORWARD:          1
LLC TOTAL     ACCESS:   21134663  HIT:    1289646  MISS:   19845017
LLC LOAD      ACCESS:    1528561  HIT:      68526  MISS:    1460035
LLC RFO       ACCESS:    8991369  HIT:     480773  MISS:    8510596
LLC PREFETCH  ACCESS:    1622531  HIT:     117879  MISS:    1504652
LLC WRITEBACK ACCESS:    8992202  HIT:     622468  MISS:    8369734
LLC PREFETCH  REQUESTED:          0  ISSUED:          0  USEFUL:      68416  USELESS:    1438313
LLC TOTAL MSHR MERGED:       2868
LLC LOAD MSHR MERGED:        241
LLC RFO MSHR MERGED:          0
LLC PREFETCH MSHR MERGED:       2627
LLC WRITEBACK MSHR MERGED:          0
LLC TOTAL ACCESSES:   21137541 HITS:    1289657 MISSES:   19847884
LLC LOAD ACCESSES:    1528561 HITS:      68526 MISSES:    1460035
LLC RFO ACCESSES:    8991379 HITS:     480784 MISSES:    8510595
LLC PREFETCH ACCESSES:    1625399 HITS:     117879 MISSES:    1507520
LLC WRITEBACK ACCESSES:    8992202 HITS:     622468 MISSES:    8369734
LLC 0 RQ ACCESS:   10519940
LLC 0 RQ TO_CACHE:   10519929
LLC 0 RQ MERGED:          0
LLC 0 RQ FORWARD:          0
LLC WQ ACCESS:    8992202
LLC WQ TO_CACHE:    8992202
LLC WQ MERGED:          0
LLC WQ FORWARD:         11
Major fault: 0 Minor fault: 102360
CPU 0 L1D next line prefetcher final stats
CPU 0 L2C PC-based stride prefetcher final stats
All Misses: 23623705
All Hits: 1486469
SD Algo Stats - Switches: 0 SRR-Repls: 1638680 BRR-Repls: 0

DRAM Statistics
 CHANNEL 0
 RQ ROW_BUFFER_HIT:    3751367  ROW_BUFFER_MISS:    7723105
 DBUS_CONGESTED:   13731333
 WQ ROW_BUFFER_HIT:    1605295  ROW_BUFFER_MISS:    6915173  FULL:          0

 AVG_CONGESTED_CYCLE: 13
LOADS RETIRED: 124982196
INSTR RETIRED: 500000000
