
*** ChampSim Multicore Out-of-Order Simulator ***

Warmup Instructions: 100000000
Simulation Instructions: 500000000
Number of CPUs: 1
LLC sets: 2048
LLC ways: 16
Clean RRIP Policies: 1213230212132302 Dirty RRIP Policies: 2203130222031302 PSEL Width: 10 Track Set: 4294967295 PSEL Mask: 1 Demote Mask: 3010120030101200DS Algo: 0Window size: 0
Off-chip DRAM Size: 4096 MB Channels: 1 Width: 64-bit Data Rate: 1600 MT/s

CPU 0 runs /mnt/beegfs/iconst01/spec2017/Xz.trace.gz
NOT SORTED
TRACE STRING: /mnt/beegfs/iconst01/spec2017/Xz.trace.gz
SORTED
TRACE STRING: /mnt/beegfs/iconst01/spec2017/Xz.trace.gz
INITIAL
TRACE STRING: /mnt/beegfs/iconst01/spec2017/Xz.trace.gz

champsim_seed used: 210

CPU 0 L1D next line prefetcher
CPU 0 L2C IP-based stride prefetcher
Initialize DRRIP state
Assign rand_sets[0]: 454  LLC: 2048
rand_sets[0]: 454
Assign rand_sets[1]: 1662  LLC: 2048
rand_sets[1]: 1662
Assign rand_sets[2]: 1921  LLC: 2048
rand_sets[2]: 1921
Assign rand_sets[3]: 1131  LLC: 2048
rand_sets[3]: 1131
Assign rand_sets[4]: 331  LLC: 2048
rand_sets[4]: 331
Assign rand_sets[5]: 1531  LLC: 2048
rand_sets[5]: 1531
Assign rand_sets[6]: 482  LLC: 2048
rand_sets[6]: 482
Assign rand_sets[7]: 1275  LLC: 2048
rand_sets[7]: 1275
Assign rand_sets[8]: 1876  LLC: 2048
rand_sets[8]: 1876
Assign rand_sets[9]: 2038  LLC: 2048
rand_sets[9]: 2038
Assign rand_sets[10]: 701  LLC: 2048
rand_sets[10]: 701
Assign rand_sets[11]: 479  LLC: 2048
rand_sets[11]: 479
Assign rand_sets[12]: 892  LLC: 2048
rand_sets[12]: 892
Assign rand_sets[13]: 1820  LLC: 2048
rand_sets[13]: 1820
Assign rand_sets[14]: 1505  LLC: 2048
rand_sets[14]: 1505
Assign rand_sets[15]: 1159  LLC: 2048
rand_sets[15]: 1159
Assign rand_sets[16]: 513  LLC: 2048
rand_sets[16]: 513
Assign rand_sets[17]: 703  LLC: 2048
rand_sets[17]: 703
Assign rand_sets[18]: 561  LLC: 2048
rand_sets[18]: 561
Assign rand_sets[19]: 990  LLC: 2048
rand_sets[19]: 990
Assign rand_sets[20]: 342  LLC: 2048
rand_sets[20]: 342
Assign rand_sets[21]: 882  LLC: 2048
rand_sets[21]: 882
Assign rand_sets[22]: 15  LLC: 2048
rand_sets[22]: 15
Assign rand_sets[23]: 71  LLC: 2048
rand_sets[23]: 71
Assign rand_sets[24]: 1127  LLC: 2048
rand_sets[24]: 1127
Assign rand_sets[25]: 1382  LLC: 2048
rand_sets[25]: 1382
Assign rand_sets[26]: 647  LLC: 2048
rand_sets[26]: 647
Assign rand_sets[27]: 857  LLC: 2048
rand_sets[27]: 857
Assign rand_sets[28]: 1450  LLC: 2048
rand_sets[28]: 1450
Assign rand_sets[29]: 1160  LLC: 2048
rand_sets[29]: 1160
Assign rand_sets[30]: 1852  LLC: 2048
rand_sets[30]: 1852
Assign rand_sets[31]: 1881  LLC: 2048
rand_sets[31]: 1881
Assign rand_sets[32]: 1770  LLC: 2048
rand_sets[32]: 1770
Assign rand_sets[33]: 1622  LLC: 2048
rand_sets[33]: 1622
Assign rand_sets[34]: 275  LLC: 2048
rand_sets[34]: 275
Assign rand_sets[35]: 635  LLC: 2048
rand_sets[35]: 635
Assign rand_sets[36]: 466  LLC: 2048
rand_sets[36]: 466
Assign rand_sets[37]: 1413  LLC: 2048
rand_sets[37]: 1413
Assign rand_sets[38]: 417  LLC: 2048
rand_sets[38]: 417
Assign rand_sets[39]: 472  LLC: 2048
rand_sets[39]: 472
Assign rand_sets[40]: 1340  LLC: 2048
rand_sets[40]: 1340
Assign rand_sets[41]: 852  LLC: 2048
rand_sets[41]: 852
Assign rand_sets[42]: 1365  LLC: 2048
rand_sets[42]: 1365
Assign rand_sets[43]: 47  LLC: 2048
rand_sets[43]: 47
Assign rand_sets[44]: 823  LLC: 2048
rand_sets[44]: 823
Assign rand_sets[45]: 686  LLC: 2048
rand_sets[45]: 686
Assign rand_sets[46]: 1637  LLC: 2048
rand_sets[46]: 1637
Assign rand_sets[47]: 1115  LLC: 2048
rand_sets[47]: 1115
Assign rand_sets[48]: 986  LLC: 2048
rand_sets[48]: 986
Assign rand_sets[49]: 258  LLC: 2048
rand_sets[49]: 258
Assign rand_sets[50]: 633  LLC: 2048
rand_sets[50]: 633
Assign rand_sets[51]: 920  LLC: 2048
rand_sets[51]: 920
Assign rand_sets[52]: 204  LLC: 2048
rand_sets[52]: 204
Assign rand_sets[53]: 227  LLC: 2048
rand_sets[53]: 227
Assign rand_sets[54]: 1818  LLC: 2048
rand_sets[54]: 1818
Assign rand_sets[55]: 886  LLC: 2048
rand_sets[55]: 886
Assign rand_sets[56]: 1422  LLC: 2048
rand_sets[56]: 1422
Assign rand_sets[57]: 607  LLC: 2048
rand_sets[57]: 607
Assign rand_sets[58]: 217  LLC: 2048
rand_sets[58]: 217
Assign rand_sets[59]: 1945  LLC: 2048
rand_sets[59]: 1945
Assign rand_sets[60]: 143  LLC: 2048
rand_sets[60]: 143
Assign rand_sets[61]: 1311  LLC: 2048
rand_sets[61]: 1311
Assign rand_sets[62]: 319  LLC: 2048
rand_sets[62]: 319
Assign rand_sets[63]: 1846  LLC: 2048
rand_sets[63]: 1846
 CLEAN-RRIP-POLICY-1: 1-2-1-3-2-3-0-2- CLEAN-RRIP-POLICY-2: 1-2-1-3-2-3-0-2-
 DIRTY-RRIP-POLICY-1: 2-2-0-3-1-3-0-2- DIRTY-RRIP-POLICY-2: 2-2-0-3-1-3-0-2-
 PSEL width: 10
Heartbeat CPU 0 instructions: 10000000 cycles: 4305270 heartbeat IPC: 2.32273 cumulative IPC: 2.32273 (Simulation time: 0 hr 0 min 12 sec) 
Heartbeat CPU 0 instructions: 20000000 cycles: 8617102 heartbeat IPC: 2.3192 cumulative IPC: 2.32097 (Simulation time: 0 hr 0 min 23 sec) 
Heartbeat CPU 0 instructions: 30000003 cycles: 13160986 heartbeat IPC: 2.20076 cumulative IPC: 2.27946 (Simulation time: 0 hr 0 min 35 sec) 
Heartbeat CPU 0 instructions: 40000000 cycles: 17515471 heartbeat IPC: 2.29648 cumulative IPC: 2.2837 (Simulation time: 0 hr 0 min 47 sec) 
Heartbeat CPU 0 instructions: 50000001 cycles: 21878297 heartbeat IPC: 2.29209 cumulative IPC: 2.28537 (Simulation time: 0 hr 0 min 59 sec) 
Heartbeat CPU 0 instructions: 60000000 cycles: 26178506 heartbeat IPC: 2.32547 cumulative IPC: 2.29196 (Simulation time: 0 hr 1 min 10 sec) 
Heartbeat CPU 0 instructions: 70000001 cycles: 30244382 heartbeat IPC: 2.45949 cumulative IPC: 2.31448 (Simulation time: 0 hr 1 min 20 sec) 
Heartbeat CPU 0 instructions: 80000000 cycles: 34523160 heartbeat IPC: 2.33712 cumulative IPC: 2.31729 (Simulation time: 0 hr 1 min 32 sec) 
Heartbeat CPU 0 instructions: 90000001 cycles: 38739808 heartbeat IPC: 2.37155 cumulative IPC: 2.32319 (Simulation time: 0 hr 1 min 43 sec) 
Heartbeat CPU 0 instructions: 100000000 cycles: 42980211 heartbeat IPC: 2.35827 cumulative IPC: 2.32665 (Simulation time: 0 hr 1 min 54 sec) 

Warmup complete CPU 0 instructions: 100000001 cycles: 42980212 (Simulation time: 0 hr 1 min 54 sec) 

Heartbeat CPU 0 instructions: 110000000 cycles: 53130130 heartbeat IPC: 0.98523 cumulative IPC: 0.98523 (Simulation time: 0 hr 2 min 10 sec) 
Heartbeat CPU 0 instructions: 120000000 cycles: 63778407 heartbeat IPC: 0.939119 cumulative IPC: 0.961622 (Simulation time: 0 hr 2 min 27 sec) 
Heartbeat CPU 0 instructions: 130000001 cycles: 74402894 heartbeat IPC: 0.941222 cumulative IPC: 0.954724 (Simulation time: 0 hr 2 min 44 sec) 
Heartbeat CPU 0 instructions: 140000000 cycles: 84100925 heartbeat IPC: 1.03114 cumulative IPC: 0.972746 (Simulation time: 0 hr 3 min 1 sec) 
Heartbeat CPU 0 instructions: 150000001 cycles: 94431041 heartbeat IPC: 0.968043 cumulative IPC: 0.971802 (Simulation time: 0 hr 3 min 18 sec) 
Heartbeat CPU 0 instructions: 160000000 cycles: 104506511 heartbeat IPC: 0.992509 cumulative IPC: 0.975193 (Simulation time: 0 hr 3 min 34 sec) 
Heartbeat CPU 0 instructions: 170000000 cycles: 114197108 heartbeat IPC: 1.03193 cumulative IPC: 0.982913 (Simulation time: 0 hr 3 min 51 sec) 
Heartbeat CPU 0 instructions: 180000000 cycles: 124774092 heartbeat IPC: 0.945449 cumulative IPC: 0.978068 (Simulation time: 0 hr 4 min 8 sec) 
Heartbeat CPU 0 instructions: 190000001 cycles: 135059721 heartbeat IPC: 0.97223 cumulative IPC: 0.977416 (Simulation time: 0 hr 4 min 25 sec) 
Heartbeat CPU 0 instructions: 200000000 cycles: 145648535 heartbeat IPC: 0.944393 cumulative IPC: 0.97401 (Simulation time: 0 hr 4 min 42 sec) 
Heartbeat CPU 0 instructions: 210000002 cycles: 158141414 heartbeat IPC: 0.800456 cumulative IPC: 0.955183 (Simulation time: 0 hr 5 min 0 sec) 
Heartbeat CPU 0 instructions: 220000000 cycles: 170709606 heartbeat IPC: 0.795659 cumulative IPC: 0.939486 (Simulation time: 0 hr 5 min 18 sec) 
Heartbeat CPU 0 instructions: 230000000 cycles: 182920755 heartbeat IPC: 0.818924 cumulative IPC: 0.928966 (Simulation time: 0 hr 5 min 36 sec) 
Heartbeat CPU 0 instructions: 240000000 cycles: 195091393 heartbeat IPC: 0.82165 cumulative IPC: 0.920379 (Simulation time: 0 hr 5 min 54 sec) 
Heartbeat CPU 0 instructions: 250000000 cycles: 207094902 heartbeat IPC: 0.83309 cumulative IPC: 0.913995 (Simulation time: 0 hr 6 min 12 sec) 
Heartbeat CPU 0 instructions: 260000000 cycles: 218687322 heartbeat IPC: 0.862633 cumulative IPC: 0.910606 (Simulation time: 0 hr 6 min 29 sec) 
Heartbeat CPU 0 instructions: 270000003 cycles: 230600583 heartbeat IPC: 0.839401 cumulative IPC: 0.906085 (Simulation time: 0 hr 6 min 47 sec) 
Heartbeat CPU 0 instructions: 280000000 cycles: 242179176 heartbeat IPC: 0.863663 cumulative IPC: 0.903619 (Simulation time: 0 hr 7 min 5 sec) 
Heartbeat CPU 0 instructions: 290000002 cycles: 253750880 heartbeat IPC: 0.864177 cumulative IPC: 0.901454 (Simulation time: 0 hr 7 min 22 sec) 
Heartbeat CPU 0 instructions: 300000000 cycles: 266257623 heartbeat IPC: 0.799569 cumulative IPC: 0.895747 (Simulation time: 0 hr 7 min 40 sec) 
Heartbeat CPU 0 instructions: 310000000 cycles: 278483696 heartbeat IPC: 0.817924 cumulative IPC: 0.891707 (Simulation time: 0 hr 7 min 58 sec) 
Heartbeat CPU 0 instructions: 320000000 cycles: 291191635 heartbeat IPC: 0.78691 cumulative IPC: 0.886341 (Simulation time: 0 hr 8 min 16 sec) 
Heartbeat CPU 0 instructions: 330000003 cycles: 303193523 heartbeat IPC: 0.833202 cumulative IPC: 0.88389 (Simulation time: 0 hr 8 min 34 sec) 
Heartbeat CPU 0 instructions: 340000000 cycles: 315347722 heartbeat IPC: 0.822761 cumulative IPC: 0.881162 (Simulation time: 0 hr 8 min 52 sec) 
Heartbeat CPU 0 instructions: 350000001 cycles: 326376507 heartbeat IPC: 0.906718 cumulative IPC: 0.882157 (Simulation time: 0 hr 9 min 9 sec) 
Heartbeat CPU 0 instructions: 360000000 cycles: 338208624 heartbeat IPC: 0.845157 cumulative IPC: 0.880674 (Simulation time: 0 hr 9 min 27 sec) 
Heartbeat CPU 0 instructions: 370000001 cycles: 349655694 heartbeat IPC: 0.873586 cumulative IPC: 0.880409 (Simulation time: 0 hr 9 min 45 sec) 
Heartbeat CPU 0 instructions: 380000000 cycles: 360682620 heartbeat IPC: 0.906871 cumulative IPC: 0.881328 (Simulation time: 0 hr 10 min 2 sec) 
Heartbeat CPU 0 instructions: 390000003 cycles: 371323335 heartbeat IPC: 0.939787 cumulative IPC: 0.883222 (Simulation time: 0 hr 10 min 19 sec) 
Heartbeat CPU 0 instructions: 400000000 cycles: 381565275 heartbeat IPC: 0.976377 cumulative IPC: 0.88604 (Simulation time: 0 hr 10 min 36 sec) 
Heartbeat CPU 0 instructions: 410000000 cycles: 392109181 heartbeat IPC: 0.948415 cumulative IPC: 0.887924 (Simulation time: 0 hr 10 min 54 sec) 
Heartbeat CPU 0 instructions: 420000000 cycles: 401508279 heartbeat IPC: 1.06393 cumulative IPC: 0.892538 (Simulation time: 0 hr 11 min 10 sec) 
Heartbeat CPU 0 instructions: 430000002 cycles: 410599506 heartbeat IPC: 1.09996 cumulative IPC: 0.897668 (Simulation time: 0 hr 11 min 27 sec) 
Heartbeat CPU 0 instructions: 440000000 cycles: 420889883 heartbeat IPC: 0.971781 cumulative IPC: 0.899686 (Simulation time: 0 hr 11 min 44 sec) 
Heartbeat CPU 0 instructions: 450000002 cycles: 431995893 heartbeat IPC: 0.900414 cumulative IPC: 0.899707 (Simulation time: 0 hr 12 min 1 sec) 
Heartbeat CPU 0 instructions: 460000000 cycles: 443567198 heartbeat IPC: 0.864207 cumulative IPC: 0.898681 (Simulation time: 0 hr 12 min 19 sec) 
Heartbeat CPU 0 instructions: 470000003 cycles: 453780201 heartbeat IPC: 0.979144 cumulative IPC: 0.900682 (Simulation time: 0 hr 12 min 35 sec) 
Heartbeat CPU 0 instructions: 480000000 cycles: 464343898 heartbeat IPC: 0.946638 cumulative IPC: 0.901834 (Simulation time: 0 hr 12 min 52 sec) 
Heartbeat CPU 0 instructions: 490000000 cycles: 474312203 heartbeat IPC: 1.00318 cumulative IPC: 0.904176 (Simulation time: 0 hr 13 min 9 sec) 
Heartbeat CPU 0 instructions: 500000000 cycles: 486132838 heartbeat IPC: 0.845978 cumulative IPC: 0.902624 (Simulation time: 0 hr 13 min 26 sec) 
Heartbeat CPU 0 instructions: 510000002 cycles: 498555967 heartbeat IPC: 0.80495 cumulative IPC: 0.89996 (Simulation time: 0 hr 13 min 44 sec) 
Heartbeat CPU 0 instructions: 520000000 cycles: 510430071 heartbeat IPC: 0.842169 cumulative IPC: 0.898492 (Simulation time: 0 hr 14 min 2 sec) 
Heartbeat CPU 0 instructions: 530000001 cycles: 522290305 heartbeat IPC: 0.843154 cumulative IPC: 0.897123 (Simulation time: 0 hr 14 min 20 sec) 
Heartbeat CPU 0 instructions: 540000000 cycles: 533909305 heartbeat IPC: 0.860659 cumulative IPC: 0.89626 (Simulation time: 0 hr 14 min 37 sec) 
Heartbeat CPU 0 instructions: 550000001 cycles: 545324735 heartbeat IPC: 0.876007 cumulative IPC: 0.8958 (Simulation time: 0 hr 14 min 54 sec) 
Heartbeat CPU 0 instructions: 560000000 cycles: 556927787 heartbeat IPC: 0.861842 cumulative IPC: 0.895033 (Simulation time: 0 hr 15 min 12 sec) 
Heartbeat CPU 0 instructions: 570000000 cycles: 568366343 heartbeat IPC: 0.874236 cumulative IPC: 0.89458 (Simulation time: 0 hr 15 min 29 sec) 
Heartbeat CPU 0 instructions: 580000000 cycles: 579147747 heartbeat IPC: 0.927523 cumulative IPC: 0.895243 (Simulation time: 0 hr 15 min 46 sec) 
Heartbeat CPU 0 instructions: 590000003 cycles: 590581266 heartbeat IPC: 0.874622 cumulative IPC: 0.894812 (Simulation time: 0 hr 16 min 3 sec) 
Heartbeat CPU 0 instructions: 600000000 cycles: 601181293 heartbeat IPC: 0.943394 cumulative IPC: 0.895735 (Simulation time: 0 hr 16 min 20 sec) 
Finished CPU 0 instructions: 500000001 cycles: 558201089 cumulative IPC: 0.895735 (Simulation time: 0 hr 16 min 20 sec) 

CPU 0 Branch Prediction Accuracy: 93.0095% MPKI: 10.0046
Number of Branches: 71558147 Number of Mispredictions: 5002285
Number of LOAD Instructions: 145708893
Number of LOAD Instructions (ROI): 145708893
Number of STORE Instructions: 40463820
Number of STORE Instructions (ROI): 40463820
Total Destination Memory Operands: 45240498
Total Destination Memory Operands (ROI): 45240498
Total Source Memory Operands: 145708893
Total Source Memory Operands (ROI): 145708893
Number of DEPENDED LOADS: 10671429
Number of DEPENDED LOADS (ROI): 10671429
Number of SQ_ADDED: 45240498
Number of SQ_ADDED (ROI): 45240498
Number of LQ_ADDED: 193322081
Number of LQ_ADDED (ROI): 193322081
Number of Instructions read from trace: 600000002

ChampSim completed all CPUs

Region of Interest Statistics

CPU 0 cumulative IPC: 0.895735 instructions: 500000001 cycles: 558201089
ITLB TOTAL     ACCESS:   77992786  HIT:   77992785  MISS:          1
ITLB LOAD      ACCESS:   77992786  HIT:   77992785  MISS:          1
ITLB RFO       ACCESS:          0  HIT:          0  MISS:          0
ITLB PREFETCH  ACCESS:          0  HIT:          0  MISS:          0
ITLB WRITEBACK ACCESS:          0  HIT:          0  MISS:          0
ITLB PREFETCH  REQUESTED:          0  ISSUED:          0  USEFUL:          0  USELESS:          0
ITLB TOTAL MSHR MERGED:          0
ITLB LOAD MSHR MERGED:          0
ITLB RFO MSHR MERGED:          0
ITLB PREFETCH MSHR MERGED:          0
ITLB WRITEBACK MSHR MERGED:          0
ITLB TOTAL ACCESSES:   77992786 HITS:   77992785 MISSES:          1
ITLB LOAD ACCESSES:   77992786 HITS:   77992785 MISSES:          1
ITLB RFO ACCESSES:          0 HITS:          0 MISSES:          0
ITLB PREFETCH ACCESSES:          0 HITS:          0 MISSES:          0
ITLB WRITEBACK ACCESSES:          0 HITS:          0 MISSES:          0
ITLB RQ ACCESS:  499999995
ITLB RQ TO_CACHE:   77992786
ITLB RQ MERGED:  422007209
ITLB RQ FORWARD:          0
ITLB WQ ACCESS:          0
ITLB WQ TO_CACHE:          0
ITLB WQ MERGED:          0
ITLB WQ FORWARD:          0
DTLB TOTAL     ACCESS:   98672568  HIT:   97791231  MISS:     881337
DTLB LOAD      ACCESS:   70892886  HIT:   70031352  MISS:     861534
DTLB RFO       ACCESS:   27779682  HIT:   27759879  MISS:      19803
DTLB PREFETCH  ACCESS:          0  HIT:          0  MISS:          0
DTLB WRITEBACK ACCESS:          0  HIT:          0  MISS:          0
DTLB PREFETCH  REQUESTED:          0  ISSUED:          0  USEFUL:          0  USELESS:          0
DTLB TOTAL MSHR MERGED:      87374
DTLB LOAD MSHR MERGED:      65634
DTLB RFO MSHR MERGED:      21740
DTLB PREFETCH MSHR MERGED:          0
DTLB WRITEBACK MSHR MERGED:          0
DTLB TOTAL ACCESSES:   98759942 HITS:   97791231 MISSES:     968711
DTLB LOAD ACCESSES:   70958520 HITS:   70031352 MISSES:     927168
DTLB RFO ACCESSES:   27801422 HITS:   27759879 MISSES:      41543
DTLB PREFETCH ACCESSES:          0 HITS:          0 MISSES:          0
DTLB WRITEBACK ACCESSES:          0 HITS:          0 MISSES:          0
DTLB RQ ACCESS:  150273625
DTLB RQ TO_CACHE:   98759942
DTLB RQ MERGED:   51513683
DTLB RQ FORWARD:          0
DTLB WQ ACCESS:          0
DTLB WQ TO_CACHE:          0
DTLB WQ MERGED:          0
DTLB WQ FORWARD:          0
L1D TOTAL     ACCESS:  173331224  HIT:  169162617  MISS:    4168607
L1D LOAD      ACCESS:   75282733  HIT:   73401413  MISS:    1881320
L1D RFO       ACCESS:   36778312  HIT:   36571688  MISS:     206624
L1D PREFETCH  ACCESS:   61270179  HIT:   59189516  MISS:    2080663
L1D WRITEBACK ACCESS:          0  HIT:          0  MISS:          0
L1D PREFETCH  REQUESTED:   75385844  ISSUED:   74821639  USEFUL:     415118  USELESS:    1665534
L1D TOTAL MSHR MERGED:     372648
L1D LOAD MSHR MERGED:     111871
L1D RFO MSHR MERGED:     133085
L1D PREFETCH MSHR MERGED:     127692
L1D WRITEBACK MSHR MERGED:          0
L1D TOTAL ACCESSES:  173855617 HITS:  169314362 MISSES:    4541255
L1D LOAD ACCESSES:   75388880 HITS:   73404449 MISSES:    1984431
L1D RFO ACCESSES:   36909983 HITS:   36571688 MISSES:     338295
L1D PREFETCH ACCESSES:   61556754 HITS:   59338225 MISSES:    2218529
L1D WRITEBACK ACCESSES:          0 HITS:          0 MISSES:          0
L1D RQ ACCESS:  112611222
L1D RQ TO_CACHE:   75385844
L1D RQ MERGED:   37222342
L1D RQ FORWARD:          0
L1D WQ ACCESS:   37662403
L1D WQ TO_CACHE:   36909983
L1D WQ MERGED:     752420
L1D WQ FORWARD:     151745
L1I TOTAL     ACCESS:  100700696  HIT:  100700671  MISS:         25
L1I LOAD      ACCESS:  100700696  HIT:  100700671  MISS:         25
L1I RFO       ACCESS:          0  HIT:          0  MISS:          0
L1I PREFETCH  ACCESS:          0  HIT:          0  MISS:          0
L1I WRITEBACK ACCESS:          0  HIT:          0  MISS:          0
L1I PREFETCH  REQUESTED:          0  ISSUED:          0  USEFUL:          0  USELESS:          0
L1I TOTAL MSHR MERGED:         10
L1I LOAD MSHR MERGED:         10
L1I RFO MSHR MERGED:          0
L1I PREFETCH MSHR MERGED:          0
L1I WRITEBACK MSHR MERGED:          0
L1I TOTAL ACCESSES:  100700706 HITS:  100700671 MISSES:         35
L1I LOAD ACCESSES:  100700706 HITS:  100700671 MISSES:         35
L1I RFO ACCESSES:          0 HITS:          0 MISSES:          0
L1I PREFETCH ACCESSES:          0 HITS:          0 MISSES:          0
L1I WRITEBACK ACCESSES:          0 HITS:          0 MISSES:          0
L1I RQ ACCESS:  499999995
L1I RQ TO_CACHE:  100700706
L1I RQ MERGED:  399299289
L1I RQ FORWARD:          0
L1I WQ ACCESS:          0
L1I WQ TO_CACHE:          0
L1I WQ MERGED:          0
L1I WQ FORWARD:          0
L2C TOTAL     ACCESS:    5852575  HIT:    4009387  MISS:    1843188
L2C LOAD      ACCESS:    1872458  HIT:    1061505  MISS:     810953
L2C RFO       ACCESS:     205205  HIT:     100564  MISS:     104641
L2C PREFETCH  ACCESS:    2169285  HIT:    1246111  MISS:     923174
L2C WRITEBACK ACCESS:    1605627  HIT:    1601207  MISS:       4420
L2C PREFETCH  REQUESTED:      91708  ISSUED:      91708  USEFUL:      86458  USELESS:     836739
L2C TOTAL MSHR MERGED:       1005
L2C LOAD MSHR MERGED:        261
L2C RFO MSHR MERGED:          0
L2C PREFETCH MSHR MERGED:        744
L2C WRITEBACK MSHR MERGED:          0
L2C TOTAL ACCESSES:    5853909 HITS:    4009556 MISSES:    1844353
L2C LOAD ACCESSES:    1872585 HITS:    1061632 MISSES:     810953
L2C RFO ACCESSES:     205210 HITS:     100569 MISSES:     104641
L2C PREFETCH ACCESSES:    2170487 HITS:    1246148 MISSES:     924339
L2C WRITEBACK ACCESSES:    1605627 HITS:    1601207 MISSES:       4420
L2C RQ ACCESS:    2077795
L2C RQ TO_CACHE:    2077663
L2C RQ MERGED:          0
L2C RQ FORWARD:          0
L2C WQ ACCESS:    1605627
L2C WQ TO_CACHE:    1605627
L2C WQ MERGED:          0
L2C WQ FORWARD:        169
LLC TOTAL     ACCESS:    2673581  HIT:    2165282  MISS:     508299
LLC LOAD      ACCESS:     810683  HIT:     628225  MISS:     182458
LLC RFO       ACCESS:     104641  HIT:      59232  MISS:      45409
LLC PREFETCH  ACCESS:     923579  HIT:     675573  MISS:     248006
LLC WRITEBACK ACCESS:     834678  HIT:     802252  MISS:      32426
LLC PREFETCH  REQUESTED:          0  ISSUED:          0  USEFUL:       9626  USELESS:     238378
LLC TOTAL MSHR MERGED:          5
LLC LOAD MSHR MERGED:          0
LLC RFO MSHR MERGED:          0
LLC PREFETCH MSHR MERGED:          5
LLC WRITEBACK MSHR MERGED:          0
LLC TOTAL ACCESSES:    2673597 HITS:    2165293 MISSES:     508304
LLC LOAD ACCESSES:     810692 HITS:     628234 MISSES:     182458
LLC RFO ACCESSES:     104641 HITS:      59232 MISSES:      45409
LLC PREFETCH ACCESSES:     923586 HITS:     675575 MISSES:     248011
LLC WRITEBACK ACCESSES:     834678 HITS:     802252 MISSES:      32426
LLC 0 RQ ACCESS:     915333
LLC 0 RQ TO_CACHE:     915324
LLC 0 RQ MERGED:          0
LLC 0 RQ FORWARD:          0
LLC WQ ACCESS:     834678
LLC WQ TO_CACHE:     834678
LLC WQ MERGED:          0
LLC WQ FORWARD:         11
Major fault: 0 Minor fault: 11278
CPU 0 L1D next line prefetcher final stats
CPU 0 L2C PC-based stride prefetcher final stats
All Misses: 622933
All Hits: 2431666
SD Algo Stats - Switches: 0 SRR-Repls: 215960 BRR-Repls: 0

DRAM Statistics
 CHANNEL 0
 RQ ROW_BUFFER_HIT:      29537  ROW_BUFFER_MISS:     445859
 DBUS_CONGESTED:     370499
 WQ ROW_BUFFER_HIT:      16222  ROW_BUFFER_MISS:     220308  FULL:          0

 AVG_CONGESTED_CYCLE: 13
LOADS RETIRED: 121769268
INSTR RETIRED: 500000000
