
*** ChampSim Multicore Out-of-Order Simulator ***

Warmup Instructions: 100000000
Simulation Instructions: 500000000
Number of CPUs: 1
LLC sets: 2048
LLC ways: 16
Clean RRIP Policies: 1120030111200301 Dirty RRIP Policies: 110131101101311 PSEL Width: 10 Track Set: 4294967295 PSEL Mask: 1 Demote Mask: 2230141022301410DS Algo: 0Window size: 0
Off-chip DRAM Size: 4096 MB Channels: 1 Width: 64-bit Data Rate: 1600 MT/s

CPU 0 runs /mnt/beegfs/iconst01/spec2017/Gcc.trace.gz
NOT SORTED
TRACE STRING: /mnt/beegfs/iconst01/spec2017/Gcc.trace.gz
SORTED
TRACE STRING: /mnt/beegfs/iconst01/spec2017/Gcc.trace.gz
INITIAL
TRACE STRING: /mnt/beegfs/iconst01/spec2017/Gcc.trace.gz

champsim_seed used: 269

CPU 0 L1D next line prefetcher
CPU 0 L2C IP-based stride prefetcher
Initialize DRRIP state
Assign rand_sets[0]: 454  LLC: 2048
rand_sets[0]: 454
Assign rand_sets[1]: 1662  LLC: 2048
rand_sets[1]: 1662
Assign rand_sets[2]: 1921  LLC: 2048
rand_sets[2]: 1921
Assign rand_sets[3]: 1131  LLC: 2048
rand_sets[3]: 1131
Assign rand_sets[4]: 331  LLC: 2048
rand_sets[4]: 331
Assign rand_sets[5]: 1531  LLC: 2048
rand_sets[5]: 1531
Assign rand_sets[6]: 482  LLC: 2048
rand_sets[6]: 482
Assign rand_sets[7]: 1275  LLC: 2048
rand_sets[7]: 1275
Assign rand_sets[8]: 1876  LLC: 2048
rand_sets[8]: 1876
Assign rand_sets[9]: 2038  LLC: 2048
rand_sets[9]: 2038
Assign rand_sets[10]: 701  LLC: 2048
rand_sets[10]: 701
Assign rand_sets[11]: 479  LLC: 2048
rand_sets[11]: 479
Assign rand_sets[12]: 892  LLC: 2048
rand_sets[12]: 892
Assign rand_sets[13]: 1820  LLC: 2048
rand_sets[13]: 1820
Assign rand_sets[14]: 1505  LLC: 2048
rand_sets[14]: 1505
Assign rand_sets[15]: 1159  LLC: 2048
rand_sets[15]: 1159
Assign rand_sets[16]: 513  LLC: 2048
rand_sets[16]: 513
Assign rand_sets[17]: 703  LLC: 2048
rand_sets[17]: 703
Assign rand_sets[18]: 561  LLC: 2048
rand_sets[18]: 561
Assign rand_sets[19]: 990  LLC: 2048
rand_sets[19]: 990
Assign rand_sets[20]: 342  LLC: 2048
rand_sets[20]: 342
Assign rand_sets[21]: 882  LLC: 2048
rand_sets[21]: 882
Assign rand_sets[22]: 15  LLC: 2048
rand_sets[22]: 15
Assign rand_sets[23]: 71  LLC: 2048
rand_sets[23]: 71
Assign rand_sets[24]: 1127  LLC: 2048
rand_sets[24]: 1127
Assign rand_sets[25]: 1382  LLC: 2048
rand_sets[25]: 1382
Assign rand_sets[26]: 647  LLC: 2048
rand_sets[26]: 647
Assign rand_sets[27]: 857  LLC: 2048
rand_sets[27]: 857
Assign rand_sets[28]: 1450  LLC: 2048
rand_sets[28]: 1450
Assign rand_sets[29]: 1160  LLC: 2048
rand_sets[29]: 1160
Assign rand_sets[30]: 1852  LLC: 2048
rand_sets[30]: 1852
Assign rand_sets[31]: 1881  LLC: 2048
rand_sets[31]: 1881
Assign rand_sets[32]: 1770  LLC: 2048
rand_sets[32]: 1770
Assign rand_sets[33]: 1622  LLC: 2048
rand_sets[33]: 1622
Assign rand_sets[34]: 275  LLC: 2048
rand_sets[34]: 275
Assign rand_sets[35]: 635  LLC: 2048
rand_sets[35]: 635
Assign rand_sets[36]: 466  LLC: 2048
rand_sets[36]: 466
Assign rand_sets[37]: 1413  LLC: 2048
rand_sets[37]: 1413
Assign rand_sets[38]: 417  LLC: 2048
rand_sets[38]: 417
Assign rand_sets[39]: 472  LLC: 2048
rand_sets[39]: 472
Assign rand_sets[40]: 1340  LLC: 2048
rand_sets[40]: 1340
Assign rand_sets[41]: 852  LLC: 2048
rand_sets[41]: 852
Assign rand_sets[42]: 1365  LLC: 2048
rand_sets[42]: 1365
Assign rand_sets[43]: 47  LLC: 2048
rand_sets[43]: 47
Assign rand_sets[44]: 823  LLC: 2048
rand_sets[44]: 823
Assign rand_sets[45]: 686  LLC: 2048
rand_sets[45]: 686
Assign rand_sets[46]: 1637  LLC: 2048
rand_sets[46]: 1637
Assign rand_sets[47]: 1115  LLC: 2048
rand_sets[47]: 1115
Assign rand_sets[48]: 986  LLC: 2048
rand_sets[48]: 986
Assign rand_sets[49]: 258  LLC: 2048
rand_sets[49]: 258
Assign rand_sets[50]: 633  LLC: 2048
rand_sets[50]: 633
Assign rand_sets[51]: 920  LLC: 2048
rand_sets[51]: 920
Assign rand_sets[52]: 204  LLC: 2048
rand_sets[52]: 204
Assign rand_sets[53]: 227  LLC: 2048
rand_sets[53]: 227
Assign rand_sets[54]: 1818  LLC: 2048
rand_sets[54]: 1818
Assign rand_sets[55]: 886  LLC: 2048
rand_sets[55]: 886
Assign rand_sets[56]: 1422  LLC: 2048
rand_sets[56]: 1422
Assign rand_sets[57]: 607  LLC: 2048
rand_sets[57]: 607
Assign rand_sets[58]: 217  LLC: 2048
rand_sets[58]: 217
Assign rand_sets[59]: 1945  LLC: 2048
rand_sets[59]: 1945
Assign rand_sets[60]: 143  LLC: 2048
rand_sets[60]: 143
Assign rand_sets[61]: 1311  LLC: 2048
rand_sets[61]: 1311
Assign rand_sets[62]: 319  LLC: 2048
rand_sets[62]: 319
Assign rand_sets[63]: 1846  LLC: 2048
rand_sets[63]: 1846
 CLEAN-RRIP-POLICY-1: 1-1-2-0-0-3-0-1- CLEAN-RRIP-POLICY-2: 1-1-2-0-0-3-0-1-
 DIRTY-RRIP-POLICY-1: 0-1-1-0-1-3-1-1- DIRTY-RRIP-POLICY-2: 0-1-1-0-1-3-1-1-
 PSEL width: 10
Heartbeat CPU 0 instructions: 10000001 cycles: 7315907 heartbeat IPC: 1.36688 cumulative IPC: 1.36688 (Simulation time: 0 hr 0 min 15 sec) 
Heartbeat CPU 0 instructions: 20000000 cycles: 14307703 heartbeat IPC: 1.43025 cumulative IPC: 1.39785 (Simulation time: 0 hr 0 min 30 sec) 
Heartbeat CPU 0 instructions: 30000001 cycles: 21020934 heartbeat IPC: 1.4896 cumulative IPC: 1.42715 (Simulation time: 0 hr 0 min 46 sec) 
Heartbeat CPU 0 instructions: 40000000 cycles: 27481876 heartbeat IPC: 1.54776 cumulative IPC: 1.4555 (Simulation time: 0 hr 1 min 3 sec) 
Heartbeat CPU 0 instructions: 50000001 cycles: 33583863 heartbeat IPC: 1.63881 cumulative IPC: 1.48881 (Simulation time: 0 hr 1 min 18 sec) 
Heartbeat CPU 0 instructions: 60000000 cycles: 40065178 heartbeat IPC: 1.5429 cumulative IPC: 1.49756 (Simulation time: 0 hr 1 min 35 sec) 
Heartbeat CPU 0 instructions: 70000000 cycles: 47104494 heartbeat IPC: 1.42059 cumulative IPC: 1.48606 (Simulation time: 0 hr 1 min 50 sec) 
Heartbeat CPU 0 instructions: 80000000 cycles: 54194663 heartbeat IPC: 1.4104 cumulative IPC: 1.47616 (Simulation time: 0 hr 2 min 5 sec) 
Heartbeat CPU 0 instructions: 90000003 cycles: 61199530 heartbeat IPC: 1.42758 cumulative IPC: 1.4706 (Simulation time: 0 hr 2 min 20 sec) 
Heartbeat CPU 0 instructions: 100000000 cycles: 68367413 heartbeat IPC: 1.39511 cumulative IPC: 1.46269 (Simulation time: 0 hr 2 min 35 sec) 

Warmup complete CPU 0 instructions: 100000004 cycles: 68367414 (Simulation time: 0 hr 2 min 35 sec) 

Heartbeat CPU 0 instructions: 110000003 cycles: 96102847 heartbeat IPC: 0.36055 cumulative IPC: 0.36055 (Simulation time: 0 hr 3 min 4 sec) 
Heartbeat CPU 0 instructions: 120000000 cycles: 123599039 heartbeat IPC: 0.363687 cumulative IPC: 0.362111 (Simulation time: 0 hr 3 min 34 sec) 
Heartbeat CPU 0 instructions: 130000000 cycles: 148631057 heartbeat IPC: 0.399488 cumulative IPC: 0.373768 (Simulation time: 0 hr 4 min 4 sec) 
Heartbeat CPU 0 instructions: 140000000 cycles: 178234929 heartbeat IPC: 0.337794 cumulative IPC: 0.364075 (Simulation time: 0 hr 4 min 33 sec) 
Heartbeat CPU 0 instructions: 150000000 cycles: 208158433 heartbeat IPC: 0.334185 cumulative IPC: 0.357677 (Simulation time: 0 hr 5 min 3 sec) 
Heartbeat CPU 0 instructions: 160000000 cycles: 235605516 heartbeat IPC: 0.364337 cumulative IPC: 0.35877 (Simulation time: 0 hr 5 min 32 sec) 
Heartbeat CPU 0 instructions: 170000001 cycles: 263713103 heartbeat IPC: 0.355776 cumulative IPC: 0.358339 (Simulation time: 0 hr 6 min 3 sec) 
Heartbeat CPU 0 instructions: 180000000 cycles: 292217958 heartbeat IPC: 0.350817 cumulative IPC: 0.357381 (Simulation time: 0 hr 6 min 34 sec) 
Heartbeat CPU 0 instructions: 190000002 cycles: 320340262 heartbeat IPC: 0.35559 cumulative IPC: 0.357181 (Simulation time: 0 hr 7 min 4 sec) 
Heartbeat CPU 0 instructions: 200000000 cycles: 348745205 heartbeat IPC: 0.352051 cumulative IPC: 0.356662 (Simulation time: 0 hr 7 min 34 sec) 
Heartbeat CPU 0 instructions: 210000002 cycles: 376680817 heartbeat IPC: 0.357966 cumulative IPC: 0.35678 (Simulation time: 0 hr 8 min 4 sec) 
Heartbeat CPU 0 instructions: 220000000 cycles: 405920256 heartbeat IPC: 0.342004 cumulative IPC: 0.3555 (Simulation time: 0 hr 8 min 33 sec) 
Heartbeat CPU 0 instructions: 230000000 cycles: 433513132 heartbeat IPC: 0.362412 cumulative IPC: 0.356022 (Simulation time: 0 hr 9 min 2 sec) 
Heartbeat CPU 0 instructions: 240000000 cycles: 459458491 heartbeat IPC: 0.385425 cumulative IPC: 0.357973 (Simulation time: 0 hr 9 min 30 sec) 
Heartbeat CPU 0 instructions: 250000000 cycles: 489642218 heartbeat IPC: 0.331304 cumulative IPC: 0.356062 (Simulation time: 0 hr 10 min 1 sec) 
Heartbeat CPU 0 instructions: 260000000 cycles: 516762789 heartbeat IPC: 0.368724 cumulative IPC: 0.356828 (Simulation time: 0 hr 10 min 31 sec) 
Heartbeat CPU 0 instructions: 270000003 cycles: 545288604 heartbeat IPC: 0.35056 cumulative IPC: 0.356453 (Simulation time: 0 hr 11 min 2 sec) 
Heartbeat CPU 0 instructions: 280000000 cycles: 573544005 heartbeat IPC: 0.353915 cumulative IPC: 0.356311 (Simulation time: 0 hr 11 min 32 sec) 
Heartbeat CPU 0 instructions: 290000000 cycles: 602513523 heartbeat IPC: 0.34519 cumulative IPC: 0.355708 (Simulation time: 0 hr 12 min 4 sec) 
Heartbeat CPU 0 instructions: 300000000 cycles: 632616057 heartbeat IPC: 0.332198 cumulative IPC: 0.354454 (Simulation time: 0 hr 12 min 33 sec) 
Heartbeat CPU 0 instructions: 310000001 cycles: 662083274 heartbeat IPC: 0.33936 cumulative IPC: 0.353705 (Simulation time: 0 hr 13 min 3 sec) 
Heartbeat CPU 0 instructions: 320000000 cycles: 690423310 heartbeat IPC: 0.352858 cumulative IPC: 0.353666 (Simulation time: 0 hr 13 min 32 sec) 
Heartbeat CPU 0 instructions: 330000000 cycles: 719155530 heartbeat IPC: 0.348041 cumulative IPC: 0.353418 (Simulation time: 0 hr 14 min 2 sec) 
Heartbeat CPU 0 instructions: 340000000 cycles: 748523932 heartbeat IPC: 0.340502 cumulative IPC: 0.35286 (Simulation time: 0 hr 14 min 32 sec) 
Heartbeat CPU 0 instructions: 350000003 cycles: 775619475 heartbeat IPC: 0.369065 cumulative IPC: 0.353481 (Simulation time: 0 hr 15 min 1 sec) 
Heartbeat CPU 0 instructions: 360000000 cycles: 803790590 heartbeat IPC: 0.354973 cumulative IPC: 0.353538 (Simulation time: 0 hr 15 min 29 sec) 
Heartbeat CPU 0 instructions: 370000000 cycles: 831989949 heartbeat IPC: 0.354618 cumulative IPC: 0.353578 (Simulation time: 0 hr 15 min 58 sec) 
Heartbeat CPU 0 instructions: 380000000 cycles: 860551429 heartbeat IPC: 0.350122 cumulative IPC: 0.353453 (Simulation time: 0 hr 16 min 26 sec) 
Heartbeat CPU 0 instructions: 390000001 cycles: 888194113 heartbeat IPC: 0.361759 cumulative IPC: 0.353733 (Simulation time: 0 hr 16 min 54 sec) 
Heartbeat CPU 0 instructions: 400000000 cycles: 916897304 heartbeat IPC: 0.348393 cumulative IPC: 0.353553 (Simulation time: 0 hr 17 min 23 sec) 
Heartbeat CPU 0 instructions: 410000001 cycles: 944196638 heartbeat IPC: 0.366309 cumulative IPC: 0.35395 (Simulation time: 0 hr 17 min 51 sec) 
Heartbeat CPU 0 instructions: 420000000 cycles: 971503575 heartbeat IPC: 0.366207 cumulative IPC: 0.354321 (Simulation time: 0 hr 18 min 19 sec) 
Heartbeat CPU 0 instructions: 430000002 cycles: 999227889 heartbeat IPC: 0.360694 cumulative IPC: 0.354511 (Simulation time: 0 hr 18 min 47 sec) 
Heartbeat CPU 0 instructions: 440000000 cycles: 1028895762 heartbeat IPC: 0.337065 cumulative IPC: 0.353972 (Simulation time: 0 hr 19 min 15 sec) 
Heartbeat CPU 0 instructions: 450000002 cycles: 1058204339 heartbeat IPC: 0.341197 cumulative IPC: 0.353594 (Simulation time: 0 hr 19 min 44 sec) 
Heartbeat CPU 0 instructions: 460000000 cycles: 1085923792 heartbeat IPC: 0.360757 cumulative IPC: 0.353789 (Simulation time: 0 hr 20 min 11 sec) 
Heartbeat CPU 0 instructions: 470000000 cycles: 1113568373 heartbeat IPC: 0.361735 cumulative IPC: 0.353999 (Simulation time: 0 hr 20 min 39 sec) 
Heartbeat CPU 0 instructions: 480000000 cycles: 1141455989 heartbeat IPC: 0.358582 cumulative IPC: 0.354118 (Simulation time: 0 hr 21 min 7 sec) 
Heartbeat CPU 0 instructions: 490000000 cycles: 1169040906 heartbeat IPC: 0.362517 cumulative IPC: 0.354329 (Simulation time: 0 hr 21 min 34 sec) 
Heartbeat CPU 0 instructions: 500000000 cycles: 1197379809 heartbeat IPC: 0.352872 cumulative IPC: 0.354292 (Simulation time: 0 hr 22 min 2 sec) 
Heartbeat CPU 0 instructions: 510000000 cycles: 1232117761 heartbeat IPC: 0.28787 cumulative IPC: 0.352309 (Simulation time: 0 hr 22 min 34 sec) 
Heartbeat CPU 0 instructions: 520000000 cycles: 1260089801 heartbeat IPC: 0.3575 cumulative IPC: 0.352431 (Simulation time: 0 hr 23 min 3 sec) 
Heartbeat CPU 0 instructions: 530000001 cycles: 1289453649 heartbeat IPC: 0.340555 cumulative IPC: 0.352145 (Simulation time: 0 hr 23 min 32 sec) 
Heartbeat CPU 0 instructions: 540000000 cycles: 1317539241 heartbeat IPC: 0.356054 cumulative IPC: 0.352233 (Simulation time: 0 hr 24 min 0 sec) 
Heartbeat CPU 0 instructions: 550000001 cycles: 1346755999 heartbeat IPC: 0.342269 cumulative IPC: 0.352006 (Simulation time: 0 hr 24 min 31 sec) 
Heartbeat CPU 0 instructions: 560000000 cycles: 1372165309 heartbeat IPC: 0.393557 cumulative IPC: 0.352815 (Simulation time: 0 hr 24 min 59 sec) 
Heartbeat CPU 0 instructions: 570000000 cycles: 1401780786 heartbeat IPC: 0.337661 cumulative IPC: 0.352479 (Simulation time: 0 hr 25 min 28 sec) 
Heartbeat CPU 0 instructions: 580000000 cycles: 1429804738 heartbeat IPC: 0.356838 cumulative IPC: 0.352569 (Simulation time: 0 hr 25 min 57 sec) 
Heartbeat CPU 0 instructions: 590000001 cycles: 1454566253 heartbeat IPC: 0.403853 cumulative IPC: 0.353485 (Simulation time: 0 hr 26 min 24 sec) 
Heartbeat CPU 0 instructions: 600000000 cycles: 1480667176 heartbeat IPC: 0.383128 cumulative IPC: 0.354032 (Simulation time: 0 hr 26 min 52 sec) 
Finished CPU 0 instructions: 500000000 cycles: 1412299784 cumulative IPC: 0.354032 (Simulation time: 0 hr 26 min 52 sec) 

CPU 0 Branch Prediction Accuracy: 86.4311% MPKI: 26.2662
Number of Branches: 96788573 Number of Mispredictions: 13133102
Number of LOAD Instructions: 164682285
Number of LOAD Instructions (ROI): 164682285
Number of STORE Instructions: 78194750
Number of STORE Instructions (ROI): 78194750
Total Destination Memory Operands: 83268534
Total Destination Memory Operands (ROI): 83268534
Total Source Memory Operands: 164712438
Total Source Memory Operands (ROI): 164712438
Number of DEPENDED LOADS: 7059042
Number of DEPENDED LOADS (ROI): 7059042
Number of SQ_ADDED: 83268522
Number of SQ_ADDED (ROI): 83268522
Number of LQ_ADDED: 236607611
Number of LQ_ADDED (ROI): 236607611
Number of Instructions read from trace: 600000066

ChampSim completed all CPUs

Region of Interest Statistics

CPU 0 cumulative IPC: 0.354032 instructions: 500000000 cycles: 1412299784
ITLB TOTAL     ACCESS:  100516368  HIT:  100311922  MISS:     204446
ITLB LOAD      ACCESS:  100516368  HIT:  100311922  MISS:     204446
ITLB RFO       ACCESS:          0  HIT:          0  MISS:          0
ITLB PREFETCH  ACCESS:          0  HIT:          0  MISS:          0
ITLB WRITEBACK ACCESS:          0  HIT:          0  MISS:          0
ITLB PREFETCH  REQUESTED:          0  ISSUED:          0  USEFUL:          0  USELESS:          0
ITLB TOTAL MSHR MERGED:     172423
ITLB LOAD MSHR MERGED:     172423
ITLB RFO MSHR MERGED:          0
ITLB PREFETCH MSHR MERGED:          0
ITLB WRITEBACK MSHR MERGED:          0
ITLB TOTAL ACCESSES:  100688791 HITS:  100311922 MISSES:     376869
ITLB LOAD ACCESSES:  100688791 HITS:  100311922 MISSES:     376869
ITLB RFO ACCESSES:          0 HITS:          0 MISSES:          0
ITLB PREFETCH ACCESSES:          0 HITS:          0 MISSES:          0
ITLB WRITEBACK ACCESSES:          0 HITS:          0 MISSES:          0
ITLB RQ ACCESS:  500000057
ITLB RQ TO_CACHE:  100688791
ITLB RQ MERGED:  399311266
ITLB RQ FORWARD:          0
ITLB WQ ACCESS:          0
ITLB WQ TO_CACHE:          0
ITLB WQ MERGED:          0
ITLB WQ FORWARD:          0
DTLB TOTAL     ACCESS:  165338479  HIT:  164704132  MISS:     634347
DTLB LOAD      ACCESS:  106293679  HIT:  105723710  MISS:     569969
DTLB RFO       ACCESS:   59044800  HIT:   58980422  MISS:      64378
DTLB PREFETCH  ACCESS:          0  HIT:          0  MISS:          0
DTLB WRITEBACK ACCESS:          0  HIT:          0  MISS:          0
DTLB PREFETCH  REQUESTED:          0  ISSUED:          0  USEFUL:          0  USELESS:          0
DTLB TOTAL MSHR MERGED:      99914
DTLB LOAD MSHR MERGED:      59423
DTLB RFO MSHR MERGED:      40491
DTLB PREFETCH MSHR MERGED:          0
DTLB WRITEBACK MSHR MERGED:          0
DTLB TOTAL ACCESSES:  165438393 HITS:  164704132 MISSES:     734261
DTLB LOAD ACCESSES:  106353102 HITS:  105723710 MISSES:     629392
DTLB RFO ACCESSES:   59085291 HITS:   58980422 MISSES:     104869
DTLB PREFETCH ACCESSES:          0 HITS:          0 MISSES:          0
DTLB WRITEBACK ACCESSES:          0 HITS:          0 MISSES:          0
DTLB RQ ACCESS:  200311845
DTLB RQ TO_CACHE:  165438393
DTLB RQ MERGED:   34873452
DTLB RQ FORWARD:          0
DTLB WQ ACCESS:          0
DTLB WQ TO_CACHE:          0
DTLB WQ MERGED:          0
DTLB WQ FORWARD:          0
L1D TOTAL     ACCESS:  281857315  HIT:  273947914  MISS:    7909401
L1D LOAD      ACCESS:  110427392  HIT:  107151634  MISS:    3275758
L1D RFO       ACCESS:   67118417  HIT:   66227863  MISS:     890554
L1D PREFETCH  ACCESS:  104311506  HIT:  100568417  MISS:    3743089
L1D WRITEBACK ACCESS:          0  HIT:          0  MISS:          0
L1D PREFETCH  REQUESTED:  110818112  ISSUED:  109118784  USEFUL:    1663759  USELESS:    2079294
L1D TOTAL MSHR MERGED:    2849326
L1D LOAD MSHR MERGED:     486010
L1D RFO MSHR MERGED:    1867416
L1D PREFETCH MSHR MERGED:     495900
L1D WRITEBACK MSHR MERGED:          0
L1D TOTAL ACCESSES:  284734080 HITS:  273975353 MISSES:   10758727
L1D LOAD ACCESSES:  110819565 HITS:  107153087 MISSES:    3666478
L1D RFO ACCESSES:   68974092 HITS:   66227863 MISSES:    2746229
L1D PREFETCH ACCESSES:  104940423 HITS:  100594403 MISSES:    4346020
L1D WRITEBACK ACCESSES:          0 HITS:          0 MISSES:          0
L1D RQ ACCESS:  130759242
L1D RQ TO_CACHE:  110818115
L1D RQ MERGED:   19939674
L1D RQ FORWARD:          0
L1D WQ ACCESS:   69552603
L1D WQ TO_CACHE:   68974093
L1D WQ MERGED:     578510
L1D WQ FORWARD:      27439
L1I TOTAL     ACCESS:  126563667  HIT:  122325115  MISS:    4238552
L1I LOAD      ACCESS:  126563667  HIT:  122325115  MISS:    4238552
L1I RFO       ACCESS:          0  HIT:          0  MISS:          0
L1I PREFETCH  ACCESS:          0  HIT:          0  MISS:          0
L1I WRITEBACK ACCESS:          0  HIT:          0  MISS:          0
L1I PREFETCH  REQUESTED:          0  ISSUED:          0  USEFUL:          0  USELESS:          0
L1I TOTAL MSHR MERGED:    1834726
L1I LOAD MSHR MERGED:    1834726
L1I RFO MSHR MERGED:          0
L1I PREFETCH MSHR MERGED:          0
L1I WRITEBACK MSHR MERGED:          0
L1I TOTAL ACCESSES:  128398396 HITS:  122325115 MISSES:    6073281
L1I LOAD ACCESSES:  128398396 HITS:  122325115 MISSES:    6073281
L1I RFO ACCESSES:          0 HITS:          0 MISSES:          0
L1I PREFETCH ACCESSES:          0 HITS:          0 MISSES:          0
L1I WRITEBACK ACCESSES:          0 HITS:          0 MISSES:          0
L1I RQ ACCESS:  500000057
L1I RQ TO_CACHE:  128398396
L1I RQ MERGED:  371601661
L1I RQ FORWARD:          0
L1I WQ ACCESS:          0
L1I WQ TO_CACHE:          0
L1I WQ MERGED:          0
L1I WQ FORWARD:          0
L2C TOTAL     ACCESS:   14905303  HIT:   11158795  MISS:    3746508
L2C LOAD      ACCESS:    7418812  HIT:    5098839  MISS:    2319973
L2C RFO       ACCESS:     878714  HIT:     409915  MISS:     468799
L2C PREFETCH  ACCESS:    4568514  HIT:    3628029  MISS:     940485
L2C WRITEBACK ACCESS:    2039263  HIT:    2022012  MISS:      17251
L2C PREFETCH  REQUESTED:     842772  ISSUED:     842772  USEFUL:     203402  USELESS:     736789
L2C TOTAL MSHR MERGED:       7047
L2C LOAD MSHR MERGED:        784
L2C RFO MSHR MERGED:          0
L2C PREFETCH MSHR MERGED:       6263
L2C WRITEBACK MSHR MERGED:          0
L2C TOTAL ACCESSES:   14913259 HITS:   11159247 MISSES:    3754012
L2C LOAD ACCESSES:    7419020 HITS:    5099047 MISSES:    2319973
L2C RFO ACCESSES:     878813 HITS:     410014 MISSES:     468799
L2C PREFETCH ACCESSES:    4576163 HITS:    3628174 MISSES:     947989
L2C WRITEBACK ACCESSES:    2039263 HITS:    2022012 MISSES:      17251
L2C RQ ACCESS:    8297836
L2C RQ TO_CACHE:    8297529
L2C RQ MERGED:          0
L2C RQ FORWARD:          0
L2C WQ ACCESS:    2039263
L2C WQ TO_CACHE:    2039263
L2C WQ MERGED:          0
L2C WQ FORWARD:        452
LLC TOTAL     ACCESS:    4609852  HIT:    3986224  MISS:     623628
LLC LOAD      ACCESS:    2319175  HIT:    2047810  MISS:     271365
LLC RFO       ACCESS:     468789  HIT:     402649  MISS:      66140
LLC PREFETCH  ACCESS:     941599  HIT:     690321  MISS:     251278
LLC WRITEBACK ACCESS:     880289  HIT:     845444  MISS:      34845
LLC PREFETCH  REQUESTED:          0  ISSUED:          0  USEFUL:      37740  USELESS:     214179
LLC TOTAL MSHR MERGED:        100
LLC LOAD MSHR MERGED:         34
LLC RFO MSHR MERGED:          0
LLC PREFETCH MSHR MERGED:         66
LLC WRITEBACK MSHR MERGED:          0
LLC TOTAL ACCESSES:    4609988 HITS:    3986260 MISSES:     623728
LLC LOAD ACCESSES:    2319189 HITS:    2047824 MISSES:     271365
LLC RFO ACCESSES:     468799 HITS:     402659 MISSES:      66140
LLC PREFETCH ACCESSES:     941711 HITS:     690333 MISSES:     251378
LLC WRITEBACK ACCESSES:     880289 HITS:     845444 MISSES:      34845
LLC 0 RQ ACCESS:    2787988
LLC 0 RQ TO_CACHE:    2787964
LLC 0 RQ MERGED:          0
LLC 0 RQ FORWARD:          0
LLC WQ ACCESS:     880289
LLC WQ TO_CACHE:     880289
LLC WQ MERGED:          0
LLC WQ FORWARD:         36
Major fault: 0 Minor fault: 12862
CPU 0 L1D next line prefetcher final stats
CPU 0 L2C PC-based stride prefetcher final stats
All Misses: 743273
All Hits: 4683585
SD Algo Stats - Switches: 0 SRR-Repls: 319707 BRR-Repls: 0

DRAM Statistics
 CHANNEL 0
 RQ ROW_BUFFER_HIT:     125567  ROW_BUFFER_MISS:     462118
 DBUS_CONGESTED:     357788
 WQ ROW_BUFFER_HIT:      15311  ROW_BUFFER_MISS:     182195  FULL:          0

 AVG_CONGESTED_CYCLE: 13
LOADS RETIRED: 136549171
INSTR RETIRED: 500000000
