
*** ChampSim Multicore Out-of-Order Simulator ***

Warmup Instructions: 100000000
Simulation Instructions: 500000000
Number of CPUs: 1
LLC sets: 2048
LLC ways: 16
Clean RRIP Policies: 1213230212132302 Dirty RRIP Policies: 2203130222031302 PSEL Width: 10 Track Set: 4294967295 PSEL Mask: 1 Demote Mask: 3010104030101040DS Algo: 0Window size: 0
Off-chip DRAM Size: 4096 MB Channels: 1 Width: 64-bit Data Rate: 1600 MT/s

CPU 0 runs /mnt/beegfs/iconst01/spec2017/cactuBSSN.trace.gz
NOT SORTED
TRACE STRING: /mnt/beegfs/iconst01/spec2017/cactuBSSN.trace.gz
SORTED
TRACE STRING: /mnt/beegfs/iconst01/spec2017/cactuBSSN.trace.gz
INITIAL
TRACE STRING: /mnt/beegfs/iconst01/spec2017/cactuBSSN.trace.gz

champsim_seed used: 838

CPU 0 L1D next line prefetcher
CPU 0 L2C IP-based stride prefetcher
Initialize DRRIP state
Assign rand_sets[0]: 454  LLC: 2048
rand_sets[0]: 454
Assign rand_sets[1]: 1662  LLC: 2048
rand_sets[1]: 1662
Assign rand_sets[2]: 1921  LLC: 2048
rand_sets[2]: 1921
Assign rand_sets[3]: 1131  LLC: 2048
rand_sets[3]: 1131
Assign rand_sets[4]: 331  LLC: 2048
rand_sets[4]: 331
Assign rand_sets[5]: 1531  LLC: 2048
rand_sets[5]: 1531
Assign rand_sets[6]: 482  LLC: 2048
rand_sets[6]: 482
Assign rand_sets[7]: 1275  LLC: 2048
rand_sets[7]: 1275
Assign rand_sets[8]: 1876  LLC: 2048
rand_sets[8]: 1876
Assign rand_sets[9]: 2038  LLC: 2048
rand_sets[9]: 2038
Assign rand_sets[10]: 701  LLC: 2048
rand_sets[10]: 701
Assign rand_sets[11]: 479  LLC: 2048
rand_sets[11]: 479
Assign rand_sets[12]: 892  LLC: 2048
rand_sets[12]: 892
Assign rand_sets[13]: 1820  LLC: 2048
rand_sets[13]: 1820
Assign rand_sets[14]: 1505  LLC: 2048
rand_sets[14]: 1505
Assign rand_sets[15]: 1159  LLC: 2048
rand_sets[15]: 1159
Assign rand_sets[16]: 513  LLC: 2048
rand_sets[16]: 513
Assign rand_sets[17]: 703  LLC: 2048
rand_sets[17]: 703
Assign rand_sets[18]: 561  LLC: 2048
rand_sets[18]: 561
Assign rand_sets[19]: 990  LLC: 2048
rand_sets[19]: 990
Assign rand_sets[20]: 342  LLC: 2048
rand_sets[20]: 342
Assign rand_sets[21]: 882  LLC: 2048
rand_sets[21]: 882
Assign rand_sets[22]: 15  LLC: 2048
rand_sets[22]: 15
Assign rand_sets[23]: 71  LLC: 2048
rand_sets[23]: 71
Assign rand_sets[24]: 1127  LLC: 2048
rand_sets[24]: 1127
Assign rand_sets[25]: 1382  LLC: 2048
rand_sets[25]: 1382
Assign rand_sets[26]: 647  LLC: 2048
rand_sets[26]: 647
Assign rand_sets[27]: 857  LLC: 2048
rand_sets[27]: 857
Assign rand_sets[28]: 1450  LLC: 2048
rand_sets[28]: 1450
Assign rand_sets[29]: 1160  LLC: 2048
rand_sets[29]: 1160
Assign rand_sets[30]: 1852  LLC: 2048
rand_sets[30]: 1852
Assign rand_sets[31]: 1881  LLC: 2048
rand_sets[31]: 1881
Assign rand_sets[32]: 1770  LLC: 2048
rand_sets[32]: 1770
Assign rand_sets[33]: 1622  LLC: 2048
rand_sets[33]: 1622
Assign rand_sets[34]: 275  LLC: 2048
rand_sets[34]: 275
Assign rand_sets[35]: 635  LLC: 2048
rand_sets[35]: 635
Assign rand_sets[36]: 466  LLC: 2048
rand_sets[36]: 466
Assign rand_sets[37]: 1413  LLC: 2048
rand_sets[37]: 1413
Assign rand_sets[38]: 417  LLC: 2048
rand_sets[38]: 417
Assign rand_sets[39]: 472  LLC: 2048
rand_sets[39]: 472
Assign rand_sets[40]: 1340  LLC: 2048
rand_sets[40]: 1340
Assign rand_sets[41]: 852  LLC: 2048
rand_sets[41]: 852
Assign rand_sets[42]: 1365  LLC: 2048
rand_sets[42]: 1365
Assign rand_sets[43]: 47  LLC: 2048
rand_sets[43]: 47
Assign rand_sets[44]: 823  LLC: 2048
rand_sets[44]: 823
Assign rand_sets[45]: 686  LLC: 2048
rand_sets[45]: 686
Assign rand_sets[46]: 1637  LLC: 2048
rand_sets[46]: 1637
Assign rand_sets[47]: 1115  LLC: 2048
rand_sets[47]: 1115
Assign rand_sets[48]: 986  LLC: 2048
rand_sets[48]: 986
Assign rand_sets[49]: 258  LLC: 2048
rand_sets[49]: 258
Assign rand_sets[50]: 633  LLC: 2048
rand_sets[50]: 633
Assign rand_sets[51]: 920  LLC: 2048
rand_sets[51]: 920
Assign rand_sets[52]: 204  LLC: 2048
rand_sets[52]: 204
Assign rand_sets[53]: 227  LLC: 2048
rand_sets[53]: 227
Assign rand_sets[54]: 1818  LLC: 2048
rand_sets[54]: 1818
Assign rand_sets[55]: 886  LLC: 2048
rand_sets[55]: 886
Assign rand_sets[56]: 1422  LLC: 2048
rand_sets[56]: 1422
Assign rand_sets[57]: 607  LLC: 2048
rand_sets[57]: 607
Assign rand_sets[58]: 217  LLC: 2048
rand_sets[58]: 217
Assign rand_sets[59]: 1945  LLC: 2048
rand_sets[59]: 1945
Assign rand_sets[60]: 143  LLC: 2048
rand_sets[60]: 143
Assign rand_sets[61]: 1311  LLC: 2048
rand_sets[61]: 1311
Assign rand_sets[62]: 319  LLC: 2048
rand_sets[62]: 319
Assign rand_sets[63]: 1846  LLC: 2048
rand_sets[63]: 1846
 CLEAN-RRIP-POLICY-1: 1-2-1-3-2-3-0-2- CLEAN-RRIP-POLICY-2: 1-2-1-3-2-3-0-2-
 DIRTY-RRIP-POLICY-1: 2-2-0-3-1-3-0-2- DIRTY-RRIP-POLICY-2: 2-2-0-3-1-3-0-2-
 PSEL width: 10
Heartbeat CPU 0 instructions: 10000000 cycles: 6588002 heartbeat IPC: 1.51791 cumulative IPC: 1.51791 (Simulation time: 0 hr 0 min 25 sec) 
Heartbeat CPU 0 instructions: 20000000 cycles: 13179595 heartbeat IPC: 1.51708 cumulative IPC: 1.5175 (Simulation time: 0 hr 0 min 50 sec) 
Heartbeat CPU 0 instructions: 30000003 cycles: 19772915 heartbeat IPC: 1.51669 cumulative IPC: 1.51723 (Simulation time: 0 hr 1 min 15 sec) 
Heartbeat CPU 0 instructions: 40000000 cycles: 26364663 heartbeat IPC: 1.51705 cumulative IPC: 1.51718 (Simulation time: 0 hr 1 min 40 sec) 
Heartbeat CPU 0 instructions: 50000001 cycles: 32957334 heartbeat IPC: 1.51684 cumulative IPC: 1.51711 (Simulation time: 0 hr 2 min 6 sec) 
Heartbeat CPU 0 instructions: 60000000 cycles: 39556141 heartbeat IPC: 1.51543 cumulative IPC: 1.51683 (Simulation time: 0 hr 2 min 32 sec) 
Heartbeat CPU 0 instructions: 70000003 cycles: 46154508 heartbeat IPC: 1.51553 cumulative IPC: 1.51664 (Simulation time: 0 hr 2 min 57 sec) 
Heartbeat CPU 0 instructions: 80000000 cycles: 52752549 heartbeat IPC: 1.5156 cumulative IPC: 1.51651 (Simulation time: 0 hr 3 min 23 sec) 
Heartbeat CPU 0 instructions: 90000002 cycles: 59348207 heartbeat IPC: 1.51615 cumulative IPC: 1.51647 (Simulation time: 0 hr 3 min 48 sec) 
Heartbeat CPU 0 instructions: 100000000 cycles: 65943268 heartbeat IPC: 1.51629 cumulative IPC: 1.51646 (Simulation time: 0 hr 4 min 14 sec) 

Warmup complete CPU 0 instructions: 100000002 cycles: 65943269 (Simulation time: 0 hr 4 min 14 sec) 

Heartbeat CPU 0 instructions: 110000000 cycles: 79179230 heartbeat IPC: 0.755517 cumulative IPC: 0.755517 (Simulation time: 0 hr 4 min 45 sec) 
Heartbeat CPU 0 instructions: 120000000 cycles: 92380468 heartbeat IPC: 0.757505 cumulative IPC: 0.75651 (Simulation time: 0 hr 5 min 16 sec) 
Heartbeat CPU 0 instructions: 130000001 cycles: 105646472 heartbeat IPC: 0.753807 cumulative IPC: 0.755607 (Simulation time: 0 hr 5 min 47 sec) 
Heartbeat CPU 0 instructions: 140000000 cycles: 118818055 heartbeat IPC: 0.75921 cumulative IPC: 0.756504 (Simulation time: 0 hr 6 min 19 sec) 
Heartbeat CPU 0 instructions: 150000001 cycles: 131999022 heartbeat IPC: 0.75867 cumulative IPC: 0.756936 (Simulation time: 0 hr 6 min 50 sec) 
Heartbeat CPU 0 instructions: 160000000 cycles: 145226467 heartbeat IPC: 0.756004 cumulative IPC: 0.756781 (Simulation time: 0 hr 7 min 21 sec) 
Heartbeat CPU 0 instructions: 170000000 cycles: 158438694 heartbeat IPC: 0.756875 cumulative IPC: 0.756794 (Simulation time: 0 hr 7 min 52 sec) 
Heartbeat CPU 0 instructions: 180000000 cycles: 171633281 heartbeat IPC: 0.757887 cumulative IPC: 0.756931 (Simulation time: 0 hr 8 min 23 sec) 
Heartbeat CPU 0 instructions: 190000000 cycles: 184791089 heartbeat IPC: 0.760005 cumulative IPC: 0.757271 (Simulation time: 0 hr 8 min 55 sec) 
Heartbeat CPU 0 instructions: 200000000 cycles: 198041004 heartbeat IPC: 0.754722 cumulative IPC: 0.757015 (Simulation time: 0 hr 9 min 26 sec) 
Heartbeat CPU 0 instructions: 210000002 cycles: 211256956 heartbeat IPC: 0.756661 cumulative IPC: 0.756983 (Simulation time: 0 hr 9 min 57 sec) 
Heartbeat CPU 0 instructions: 220000000 cycles: 224429681 heartbeat IPC: 0.759144 cumulative IPC: 0.757163 (Simulation time: 0 hr 10 min 28 sec) 
Heartbeat CPU 0 instructions: 230000003 cycles: 237672668 heartbeat IPC: 0.755117 cumulative IPC: 0.757005 (Simulation time: 0 hr 10 min 59 sec) 
Heartbeat CPU 0 instructions: 240000000 cycles: 250858165 heartbeat IPC: 0.758409 cumulative IPC: 0.757105 (Simulation time: 0 hr 11 min 31 sec) 
Heartbeat CPU 0 instructions: 250000001 cycles: 264084055 heartbeat IPC: 0.756093 cumulative IPC: 0.757037 (Simulation time: 0 hr 12 min 2 sec) 
Heartbeat CPU 0 instructions: 260000000 cycles: 277295257 heartbeat IPC: 0.756933 cumulative IPC: 0.757031 (Simulation time: 0 hr 12 min 33 sec) 
Heartbeat CPU 0 instructions: 270000003 cycles: 290531120 heartbeat IPC: 0.755523 cumulative IPC: 0.756942 (Simulation time: 0 hr 13 min 3 sec) 
Heartbeat CPU 0 instructions: 280000000 cycles: 303733750 heartbeat IPC: 0.757425 cumulative IPC: 0.756969 (Simulation time: 0 hr 13 min 34 sec) 
Heartbeat CPU 0 instructions: 290000000 cycles: 316902112 heartbeat IPC: 0.759396 cumulative IPC: 0.757096 (Simulation time: 0 hr 14 min 5 sec) 
Heartbeat CPU 0 instructions: 300000000 cycles: 330157542 heartbeat IPC: 0.754408 cumulative IPC: 0.756961 (Simulation time: 0 hr 14 min 35 sec) 
Heartbeat CPU 0 instructions: 310000001 cycles: 343328661 heartbeat IPC: 0.759237 cumulative IPC: 0.757069 (Simulation time: 0 hr 15 min 6 sec) 
Heartbeat CPU 0 instructions: 320000000 cycles: 356518824 heartbeat IPC: 0.758141 cumulative IPC: 0.757118 (Simulation time: 0 hr 15 min 36 sec) 
Heartbeat CPU 0 instructions: 330000002 cycles: 369707083 heartbeat IPC: 0.75825 cumulative IPC: 0.757167 (Simulation time: 0 hr 16 min 7 sec) 
Heartbeat CPU 0 instructions: 340000000 cycles: 382949265 heartbeat IPC: 0.755162 cumulative IPC: 0.757083 (Simulation time: 0 hr 16 min 37 sec) 
Heartbeat CPU 0 instructions: 350000000 cycles: 396195973 heartbeat IPC: 0.754905 cumulative IPC: 0.756996 (Simulation time: 0 hr 17 min 7 sec) 
Heartbeat CPU 0 instructions: 360000000 cycles: 409411011 heartbeat IPC: 0.756714 cumulative IPC: 0.756985 (Simulation time: 0 hr 17 min 37 sec) 
Heartbeat CPU 0 instructions: 370000002 cycles: 422676371 heartbeat IPC: 0.753843 cumulative IPC: 0.756868 (Simulation time: 0 hr 18 min 6 sec) 
Heartbeat CPU 0 instructions: 380000000 cycles: 435881084 heartbeat IPC: 0.757305 cumulative IPC: 0.756884 (Simulation time: 0 hr 18 min 34 sec) 
Heartbeat CPU 0 instructions: 390000000 cycles: 449056684 heartbeat IPC: 0.758979 cumulative IPC: 0.756956 (Simulation time: 0 hr 19 min 3 sec) 
Heartbeat CPU 0 instructions: 400000000 cycles: 462247332 heartbeat IPC: 0.758113 cumulative IPC: 0.756994 (Simulation time: 0 hr 19 min 32 sec) 
Heartbeat CPU 0 instructions: 410000001 cycles: 475504162 heartbeat IPC: 0.754328 cumulative IPC: 0.756908 (Simulation time: 0 hr 20 min 1 sec) 
Heartbeat CPU 0 instructions: 420000000 cycles: 488686181 heartbeat IPC: 0.758609 cumulative IPC: 0.756961 (Simulation time: 0 hr 20 min 30 sec) 
Heartbeat CPU 0 instructions: 430000001 cycles: 501871314 heartbeat IPC: 0.75843 cumulative IPC: 0.757006 (Simulation time: 0 hr 20 min 58 sec) 
Heartbeat CPU 0 instructions: 440000000 cycles: 515040505 heartbeat IPC: 0.759348 cumulative IPC: 0.757074 (Simulation time: 0 hr 21 min 27 sec) 
Heartbeat CPU 0 instructions: 450000002 cycles: 528353197 heartbeat IPC: 0.751163 cumulative IPC: 0.756904 (Simulation time: 0 hr 21 min 56 sec) 
Heartbeat CPU 0 instructions: 460000000 cycles: 541569102 heartbeat IPC: 0.756664 cumulative IPC: 0.756898 (Simulation time: 0 hr 22 min 25 sec) 
Heartbeat CPU 0 instructions: 470000003 cycles: 554768696 heartbeat IPC: 0.757599 cumulative IPC: 0.756916 (Simulation time: 0 hr 22 min 53 sec) 
Heartbeat CPU 0 instructions: 480000000 cycles: 568006502 heartbeat IPC: 0.755412 cumulative IPC: 0.756877 (Simulation time: 0 hr 23 min 22 sec) 
Heartbeat CPU 0 instructions: 490000000 cycles: 581218446 heartbeat IPC: 0.756891 cumulative IPC: 0.756877 (Simulation time: 0 hr 23 min 51 sec) 
Heartbeat CPU 0 instructions: 500000000 cycles: 594414804 heartbeat IPC: 0.757785 cumulative IPC: 0.7569 (Simulation time: 0 hr 24 min 20 sec) 
Heartbeat CPU 0 instructions: 510000001 cycles: 607592475 heartbeat IPC: 0.75886 cumulative IPC: 0.756947 (Simulation time: 0 hr 24 min 48 sec) 
Heartbeat CPU 0 instructions: 520000000 cycles: 620870300 heartbeat IPC: 0.753135 cumulative IPC: 0.756856 (Simulation time: 0 hr 25 min 17 sec) 
Heartbeat CPU 0 instructions: 530000000 cycles: 634120486 heartbeat IPC: 0.754706 cumulative IPC: 0.756806 (Simulation time: 0 hr 25 min 46 sec) 
Heartbeat CPU 0 instructions: 540000000 cycles: 647341407 heartbeat IPC: 0.756377 cumulative IPC: 0.756796 (Simulation time: 0 hr 26 min 15 sec) 
Heartbeat CPU 0 instructions: 550000002 cycles: 660600124 heartbeat IPC: 0.754221 cumulative IPC: 0.756739 (Simulation time: 0 hr 26 min 44 sec) 
Heartbeat CPU 0 instructions: 560000000 cycles: 673789948 heartbeat IPC: 0.75816 cumulative IPC: 0.75677 (Simulation time: 0 hr 27 min 12 sec) 
Heartbeat CPU 0 instructions: 570000001 cycles: 686987859 heartbeat IPC: 0.757696 cumulative IPC: 0.756789 (Simulation time: 0 hr 27 min 41 sec) 
Heartbeat CPU 0 instructions: 580000000 cycles: 700188094 heartbeat IPC: 0.757562 cumulative IPC: 0.756806 (Simulation time: 0 hr 28 min 10 sec) 
Heartbeat CPU 0 instructions: 590000003 cycles: 713425540 heartbeat IPC: 0.755433 cumulative IPC: 0.756777 (Simulation time: 0 hr 28 min 38 sec) 
Heartbeat CPU 0 instructions: 600000000 cycles: 726677968 heartbeat IPC: 0.754578 cumulative IPC: 0.756733 (Simulation time: 0 hr 29 min 7 sec) 
Finished CPU 0 instructions: 500000000 cycles: 660734709 cumulative IPC: 0.756733 (Simulation time: 0 hr 29 min 7 sec) 

CPU 0 Branch Prediction Accuracy: 99.968% MPKI: 0.002246
Number of Branches: 3513331 Number of Mispredictions: 1123
Number of LOAD Instructions: 287251172
Number of LOAD Instructions (ROI): 287251172
Number of STORE Instructions: 51060820
Number of STORE Instructions (ROI): 51060820
Total Destination Memory Operands: 51166221
Total Destination Memory Operands (ROI): 51166221
Total Source Memory Operands: 287251172
Total Source Memory Operands (ROI): 287251172
Number of DEPENDED LOADS: 9555496
Number of DEPENDED LOADS (ROI): 9555496
Number of SQ_ADDED: 51166208
Number of SQ_ADDED (ROI): 51166208
Number of LQ_ADDED: 290419839
Number of LQ_ADDED (ROI): 290419839
Number of Instructions read from trace: 600000257

ChampSim completed all CPUs

Region of Interest Statistics

CPU 0 cumulative IPC: 0.756733 instructions: 500000000 cycles: 660734709
ITLB TOTAL     ACCESS:  108949712  HIT:  108949712  MISS:          0
ITLB LOAD      ACCESS:  108949712  HIT:  108949712  MISS:          0
ITLB RFO       ACCESS:          0  HIT:          0  MISS:          0
ITLB PREFETCH  ACCESS:          0  HIT:          0  MISS:          0
ITLB WRITEBACK ACCESS:          0  HIT:          0  MISS:          0
ITLB PREFETCH  REQUESTED:          0  ISSUED:          0  USEFUL:          0  USELESS:          0
ITLB TOTAL MSHR MERGED:          0
ITLB LOAD MSHR MERGED:          0
ITLB RFO MSHR MERGED:          0
ITLB PREFETCH MSHR MERGED:          0
ITLB WRITEBACK MSHR MERGED:          0
ITLB TOTAL ACCESSES:  108949712 HITS:  108949712 MISSES:          0
ITLB LOAD ACCESSES:  108949712 HITS:  108949712 MISSES:          0
ITLB RFO ACCESSES:          0 HITS:          0 MISSES:          0
ITLB PREFETCH ACCESSES:          0 HITS:          0 MISSES:          0
ITLB WRITEBACK ACCESSES:          0 HITS:          0 MISSES:          0
ITLB RQ ACCESS:  500000001
ITLB RQ TO_CACHE:  108949712
ITLB RQ MERGED:  391050289
ITLB RQ FORWARD:          0
ITLB WQ ACCESS:          0
ITLB WQ TO_CACHE:          0
ITLB WQ MERGED:          0
ITLB WQ FORWARD:          0
DTLB TOTAL     ACCESS:  171130884  HIT:  161114545  MISS:   10016339
DTLB LOAD      ACCESS:  143471789  HIT:  135595700  MISS:    7876089
DTLB RFO       ACCESS:   27659095  HIT:   25518845  MISS:    2140250
DTLB PREFETCH  ACCESS:          0  HIT:          0  MISS:          0
DTLB WRITEBACK ACCESS:          0  HIT:          0  MISS:          0
DTLB PREFETCH  REQUESTED:          0  ISSUED:          0  USEFUL:          0  USELESS:          0
DTLB TOTAL MSHR MERGED:     360474
DTLB LOAD MSHR MERGED:     360474
DTLB RFO MSHR MERGED:          0
DTLB PREFETCH MSHR MERGED:          0
DTLB WRITEBACK MSHR MERGED:          0
DTLB TOTAL ACCESSES:  171491358 HITS:  161114545 MISSES:   10376813
DTLB LOAD ACCESSES:  143832263 HITS:  135595700 MISSES:    8236563
DTLB RFO ACCESSES:   27659095 HITS:   25518845 MISSES:    2140250
DTLB PREFETCH ACCESSES:          0 HITS:          0 MISSES:          0
DTLB WRITEBACK ACCESSES:          0 HITS:          0 MISSES:          0
DTLB RQ ACCESS:  274072321
DTLB RQ TO_CACHE:  171491358
DTLB RQ MERGED:  102580963
DTLB RQ FORWARD:          0
DTLB WQ ACCESS:          0
DTLB WQ TO_CACHE:          0
DTLB WQ MERGED:          0
DTLB WQ FORWARD:          0
L1D TOTAL     ACCESS:  350953761  HIT:  283754519  MISS:   67199242
L1D LOAD      ACCESS:  175627199  HIT:  142587951  MISS:   33039248
L1D RFO       ACCESS:   42020260  HIT:   39214774  MISS:    2805486
L1D PREFETCH  ACCESS:  133306302  HIT:  101951794  MISS:   31354508
L1D WRITEBACK ACCESS:          0  HIT:          0  MISS:          0
L1D PREFETCH  REQUESTED:  176231162  ISSUED:  175292923  USEFUL:    2180634  USELESS:   29173876
L1D TOTAL MSHR MERGED:    1482408
L1D LOAD MSHR MERGED:     703925
L1D RFO MSHR MERGED:     348861
L1D PREFETCH MSHR MERGED:     429622
L1D WRITEBACK MSHR MERGED:          0
L1D TOTAL ACCESSES:  352548593 HITS:  283866943 MISSES:   68681650
L1D LOAD ACCESSES:  176237672 HITS:  142594461 MISSES:   33643211
L1D RFO ACCESSES:   42368442 HITS:   39214774 MISSES:    3153668
L1D PREFETCH ACCESSES:  133942479 HITS:  102057708 MISSES:   31884771
L1D WRITEBACK ACCESSES:          0 HITS:          0 MISSES:          0
L1D RQ ACCESS:  231433848
L1D RQ TO_CACHE:  176231162
L1D RQ MERGED:   55196176
L1D RQ FORWARD:          0
L1D WQ ACCESS:   42638475
L1D WQ TO_CACHE:   42368442
L1D WQ MERGED:     270033
L1D WQ FORWARD:     112424
L1I TOTAL     ACCESS:  109343195  HIT:   77827491  MISS:   31515704
L1I LOAD      ACCESS:  109343195  HIT:   77827491  MISS:   31515704
L1I RFO       ACCESS:          0  HIT:          0  MISS:          0
L1I PREFETCH  ACCESS:          0  HIT:          0  MISS:          0
L1I WRITEBACK ACCESS:          0  HIT:          0  MISS:          0
L1I PREFETCH  REQUESTED:          0  ISSUED:          0  USEFUL:          0  USELESS:          0
L1I TOTAL MSHR MERGED:   30750368
L1I LOAD MSHR MERGED:   30750368
L1I RFO MSHR MERGED:          0
L1I PREFETCH MSHR MERGED:          0
L1I WRITEBACK MSHR MERGED:          0
L1I TOTAL ACCESSES:  140093565 HITS:   77827491 MISSES:   62266074
L1I LOAD ACCESSES:  140093565 HITS:   77827491 MISSES:   62266074
L1I RFO ACCESSES:          0 HITS:          0 MISSES:          0
L1I PREFETCH ACCESSES:          0 HITS:          0 MISSES:          0
L1I WRITEBACK ACCESSES:          0 HITS:          0 MISSES:          0
L1I RQ ACCESS:  500000003
L1I RQ TO_CACHE:  140093565
L1I RQ MERGED:  359906438
L1I RQ FORWARD:          0
L1I WQ ACCESS:          0
L1I WQ TO_CACHE:          0
L1I WQ MERGED:          0
L1I WQ FORWARD:          0
L2C TOTAL     ACCESS:  113701095  HIT:  110698636  MISS:    3002459
L2C LOAD      ACCESS:   64453119  HIT:   63892538  MISS:     560581
L2C RFO       ACCESS:    2802919  HIT:    2193392  MISS:     609527
L2C PREFETCH  ACCESS:   43284073  HIT:   41457990  MISS:    1826083
L2C WRITEBACK ACCESS:    3160984  HIT:    3154716  MISS:       6268
L2C PREFETCH  REQUESTED:   15134498  ISSUED:   14620060  USEFUL:    1700969  USELESS:     125120
L2C TOTAL MSHR MERGED:      12672
L2C LOAD MSHR MERGED:          0
L2C RFO MSHR MERGED:          0
L2C PREFETCH MSHR MERGED:      12672
L2C WRITEBACK MSHR MERGED:          0
L2C TOTAL ACCESSES:  113903839 HITS:  110704500 MISSES:    3199339
L2C LOAD ACCESSES:   64454991 HITS:   63894409 MISSES:     560582
L2C RFO ACCESSES:    2804807 HITS:    2195280 MISSES:     609527
L2C PREFETCH ACCESSES:   43483057 HITS:   41460095 MISSES:    2022962
L2C WRITEBACK ACCESSES:    3160984 HITS:    3154716 MISSES:       6268
L2C RQ ACCESS:   67259799
L2C RQ TO_CACHE:   67256040
L2C RQ MERGED:          0
L2C RQ FORWARD:          0
L2C WQ ACCESS:    3160984
L2C WQ TO_CACHE:    3160984
L2C WQ MERGED:          0
L2C WQ FORWARD:       5864
LLC TOTAL     ACCESS:    3711691  HIT:    1862628  MISS:    1849063
LLC LOAD      ACCESS:     560551  HIT:     496925  MISS:      63626
LLC RFO       ACCESS:     527408  HIT:     239261  MISS:     288147
LLC PREFETCH  ACCESS:    2005181  HIT:     655789  MISS:    1349392
LLC WRITEBACK ACCESS:     618551  HIT:     470653  MISS:     147898
LLC PREFETCH  REQUESTED:          0  ISSUED:          0  USEFUL:      44082  USELESS:    1298612
LLC TOTAL MSHR MERGED:       4423
LLC LOAD MSHR MERGED:          0
LLC RFO MSHR MERGED:          0
LLC PREFETCH MSHR MERGED:       4423
LLC WRITEBACK MSHR MERGED:          0
LLC TOTAL ACCESSES:    3798348 HITS:    1944862 MISSES:    1853486
LLC LOAD ACCESSES:     560581 HITS:     496955 MISSES:      63626
LLC RFO ACCESSES:     609527 HITS:     321380 MISSES:     288147
LLC PREFETCH ACCESSES:    2009689 HITS:     655874 MISSES:    1353815
LLC WRITEBACK ACCESSES:     618551 HITS:     470653 MISSES:     147898
LLC 0 RQ ACCESS:    1170109
LLC 0 RQ TO_CACHE:    1087960
LLC 0 RQ MERGED:          0
LLC 0 RQ FORWARD:          0
LLC WQ ACCESS:     618551
LLC WQ TO_CACHE:     618551
LLC WQ MERGED:          0
LLC WQ FORWARD:      82234
Major fault: 0 Minor fault: 12800
CPU 0 L1D next line prefetcher final stats
CPU 0 L2C PC-based stride prefetcher final stats
All Misses: 2246028
All Hits: 2316613
SD Algo Stats - Switches: 0 SRR-Repls: 80929 BRR-Repls: 0

DRAM Statistics
 CHANNEL 0
 RQ ROW_BUFFER_HIT:     838029  ROW_BUFFER_MISS:     863092
 DBUS_CONGESTED:     900841
 WQ ROW_BUFFER_HIT:      30971  ROW_BUFFER_MISS:     260897  FULL:          0

 AVG_CONGESTED_CYCLE: 13
LOADS RETIRED: 239375970
INSTR RETIRED: 500000000
