
*** ChampSim Multicore Out-of-Order Simulator ***

Warmup Instructions: 100000000
Simulation Instructions: 500000000
Number of CPUs: 1
LLC sets: 2048
LLC ways: 16
Clean RRIP Policies: 1012030010120300 Dirty RRIP Policies: 22030000220300 PSEL Width: 10 Track Set: 4294967295 PSEL Mask: 1 Demote Mask: 4013021440130214DS Algo: 0Window size: 0
Off-chip DRAM Size: 4096 MB Channels: 1 Width: 64-bit Data Rate: 1600 MT/s

CPU 0 runs /mnt/beegfs/iconst01/spec2017/Blender.trace.gz
NOT SORTED
TRACE STRING: /mnt/beegfs/iconst01/spec2017/Blender.trace.gz
SORTED
TRACE STRING: /mnt/beegfs/iconst01/spec2017/Blender.trace.gz
INITIAL
TRACE STRING: /mnt/beegfs/iconst01/spec2017/Blender.trace.gz

champsim_seed used: 700

CPU 0 L1D next line prefetcher
CPU 0 L2C IP-based stride prefetcher
Initialize DRRIP state
Assign rand_sets[0]: 454  LLC: 2048
rand_sets[0]: 454
Assign rand_sets[1]: 1662  LLC: 2048
rand_sets[1]: 1662
Assign rand_sets[2]: 1921  LLC: 2048
rand_sets[2]: 1921
Assign rand_sets[3]: 1131  LLC: 2048
rand_sets[3]: 1131
Assign rand_sets[4]: 331  LLC: 2048
rand_sets[4]: 331
Assign rand_sets[5]: 1531  LLC: 2048
rand_sets[5]: 1531
Assign rand_sets[6]: 482  LLC: 2048
rand_sets[6]: 482
Assign rand_sets[7]: 1275  LLC: 2048
rand_sets[7]: 1275
Assign rand_sets[8]: 1876  LLC: 2048
rand_sets[8]: 1876
Assign rand_sets[9]: 2038  LLC: 2048
rand_sets[9]: 2038
Assign rand_sets[10]: 701  LLC: 2048
rand_sets[10]: 701
Assign rand_sets[11]: 479  LLC: 2048
rand_sets[11]: 479
Assign rand_sets[12]: 892  LLC: 2048
rand_sets[12]: 892
Assign rand_sets[13]: 1820  LLC: 2048
rand_sets[13]: 1820
Assign rand_sets[14]: 1505  LLC: 2048
rand_sets[14]: 1505
Assign rand_sets[15]: 1159  LLC: 2048
rand_sets[15]: 1159
Assign rand_sets[16]: 513  LLC: 2048
rand_sets[16]: 513
Assign rand_sets[17]: 703  LLC: 2048
rand_sets[17]: 703
Assign rand_sets[18]: 561  LLC: 2048
rand_sets[18]: 561
Assign rand_sets[19]: 990  LLC: 2048
rand_sets[19]: 990
Assign rand_sets[20]: 342  LLC: 2048
rand_sets[20]: 342
Assign rand_sets[21]: 882  LLC: 2048
rand_sets[21]: 882
Assign rand_sets[22]: 15  LLC: 2048
rand_sets[22]: 15
Assign rand_sets[23]: 71  LLC: 2048
rand_sets[23]: 71
Assign rand_sets[24]: 1127  LLC: 2048
rand_sets[24]: 1127
Assign rand_sets[25]: 1382  LLC: 2048
rand_sets[25]: 1382
Assign rand_sets[26]: 647  LLC: 2048
rand_sets[26]: 647
Assign rand_sets[27]: 857  LLC: 2048
rand_sets[27]: 857
Assign rand_sets[28]: 1450  LLC: 2048
rand_sets[28]: 1450
Assign rand_sets[29]: 1160  LLC: 2048
rand_sets[29]: 1160
Assign rand_sets[30]: 1852  LLC: 2048
rand_sets[30]: 1852
Assign rand_sets[31]: 1881  LLC: 2048
rand_sets[31]: 1881
Assign rand_sets[32]: 1770  LLC: 2048
rand_sets[32]: 1770
Assign rand_sets[33]: 1622  LLC: 2048
rand_sets[33]: 1622
Assign rand_sets[34]: 275  LLC: 2048
rand_sets[34]: 275
Assign rand_sets[35]: 635  LLC: 2048
rand_sets[35]: 635
Assign rand_sets[36]: 466  LLC: 2048
rand_sets[36]: 466
Assign rand_sets[37]: 1413  LLC: 2048
rand_sets[37]: 1413
Assign rand_sets[38]: 417  LLC: 2048
rand_sets[38]: 417
Assign rand_sets[39]: 472  LLC: 2048
rand_sets[39]: 472
Assign rand_sets[40]: 1340  LLC: 2048
rand_sets[40]: 1340
Assign rand_sets[41]: 852  LLC: 2048
rand_sets[41]: 852
Assign rand_sets[42]: 1365  LLC: 2048
rand_sets[42]: 1365
Assign rand_sets[43]: 47  LLC: 2048
rand_sets[43]: 47
Assign rand_sets[44]: 823  LLC: 2048
rand_sets[44]: 823
Assign rand_sets[45]: 686  LLC: 2048
rand_sets[45]: 686
Assign rand_sets[46]: 1637  LLC: 2048
rand_sets[46]: 1637
Assign rand_sets[47]: 1115  LLC: 2048
rand_sets[47]: 1115
Assign rand_sets[48]: 986  LLC: 2048
rand_sets[48]: 986
Assign rand_sets[49]: 258  LLC: 2048
rand_sets[49]: 258
Assign rand_sets[50]: 633  LLC: 2048
rand_sets[50]: 633
Assign rand_sets[51]: 920  LLC: 2048
rand_sets[51]: 920
Assign rand_sets[52]: 204  LLC: 2048
rand_sets[52]: 204
Assign rand_sets[53]: 227  LLC: 2048
rand_sets[53]: 227
Assign rand_sets[54]: 1818  LLC: 2048
rand_sets[54]: 1818
Assign rand_sets[55]: 886  LLC: 2048
rand_sets[55]: 886
Assign rand_sets[56]: 1422  LLC: 2048
rand_sets[56]: 1422
Assign rand_sets[57]: 607  LLC: 2048
rand_sets[57]: 607
Assign rand_sets[58]: 217  LLC: 2048
rand_sets[58]: 217
Assign rand_sets[59]: 1945  LLC: 2048
rand_sets[59]: 1945
Assign rand_sets[60]: 143  LLC: 2048
rand_sets[60]: 143
Assign rand_sets[61]: 1311  LLC: 2048
rand_sets[61]: 1311
Assign rand_sets[62]: 319  LLC: 2048
rand_sets[62]: 319
Assign rand_sets[63]: 1846  LLC: 2048
rand_sets[63]: 1846
 CLEAN-RRIP-POLICY-1: 1-0-1-2-0-3-0-0- CLEAN-RRIP-POLICY-2: 1-0-1-2-0-3-0-0-
 DIRTY-RRIP-POLICY-1: 0-0-2-2-0-3-0-0- DIRTY-RRIP-POLICY-2: 0-0-2-2-0-3-0-0-
 PSEL width: 10
Heartbeat CPU 0 instructions: 10000002 cycles: 5480873 heartbeat IPC: 1.82453 cumulative IPC: 1.82453 (Simulation time: 0 hr 0 min 12 sec) 
Heartbeat CPU 0 instructions: 20000000 cycles: 10913479 heartbeat IPC: 1.84074 cumulative IPC: 1.8326 (Simulation time: 0 hr 0 min 25 sec) 
Heartbeat CPU 0 instructions: 30000000 cycles: 16447944 heartbeat IPC: 1.80686 cumulative IPC: 1.82394 (Simulation time: 0 hr 0 min 37 sec) 
Heartbeat CPU 0 instructions: 40000000 cycles: 21899424 heartbeat IPC: 1.83436 cumulative IPC: 1.82653 (Simulation time: 0 hr 0 min 50 sec) 
Heartbeat CPU 0 instructions: 50000000 cycles: 27402196 heartbeat IPC: 1.81727 cumulative IPC: 1.82467 (Simulation time: 0 hr 1 min 3 sec) 
Heartbeat CPU 0 instructions: 60000000 cycles: 32781675 heartbeat IPC: 1.85892 cumulative IPC: 1.83029 (Simulation time: 0 hr 1 min 16 sec) 
Heartbeat CPU 0 instructions: 70000001 cycles: 38338721 heartbeat IPC: 1.79952 cumulative IPC: 1.82583 (Simulation time: 0 hr 1 min 28 sec) 
Heartbeat CPU 0 instructions: 80000000 cycles: 43799171 heartbeat IPC: 1.83135 cumulative IPC: 1.82652 (Simulation time: 0 hr 1 min 41 sec) 
Heartbeat CPU 0 instructions: 90000000 cycles: 49246931 heartbeat IPC: 1.83562 cumulative IPC: 1.82753 (Simulation time: 0 hr 1 min 54 sec) 
Heartbeat CPU 0 instructions: 100000000 cycles: 54792828 heartbeat IPC: 1.80313 cumulative IPC: 1.82506 (Simulation time: 0 hr 2 min 6 sec) 

Warmup complete CPU 0 instructions: 100000002 cycles: 54792829 (Simulation time: 0 hr 2 min 6 sec) 

Heartbeat CPU 0 instructions: 110000001 cycles: 69428143 heartbeat IPC: 0.683279 cumulative IPC: 0.683279 (Simulation time: 0 hr 2 min 24 sec) 
Heartbeat CPU 0 instructions: 120000000 cycles: 84780050 heartbeat IPC: 0.651385 cumulative IPC: 0.666951 (Simulation time: 0 hr 2 min 43 sec) 
Heartbeat CPU 0 instructions: 130000000 cycles: 99547541 heartbeat IPC: 0.677163 cumulative IPC: 0.67032 (Simulation time: 0 hr 3 min 2 sec) 
Heartbeat CPU 0 instructions: 140000000 cycles: 114046267 heartbeat IPC: 0.689716 cumulative IPC: 0.675066 (Simulation time: 0 hr 3 min 20 sec) 
Heartbeat CPU 0 instructions: 150000000 cycles: 129037150 heartbeat IPC: 0.667072 cumulative IPC: 0.673452 (Simulation time: 0 hr 3 min 38 sec) 
Heartbeat CPU 0 instructions: 160000000 cycles: 144425131 heartbeat IPC: 0.649858 cumulative IPC: 0.669402 (Simulation time: 0 hr 3 min 57 sec) 
Heartbeat CPU 0 instructions: 170000001 cycles: 159603196 heartbeat IPC: 0.658846 cumulative IPC: 0.667873 (Simulation time: 0 hr 4 min 15 sec) 
Heartbeat CPU 0 instructions: 180000000 cycles: 174855811 heartbeat IPC: 0.655625 cumulative IPC: 0.666317 (Simulation time: 0 hr 4 min 33 sec) 
Heartbeat CPU 0 instructions: 190000002 cycles: 189601120 heartbeat IPC: 0.678182 cumulative IPC: 0.667615 (Simulation time: 0 hr 4 min 52 sec) 
Heartbeat CPU 0 instructions: 200000000 cycles: 204238060 heartbeat IPC: 0.683203 cumulative IPC: 0.669141 (Simulation time: 0 hr 5 min 10 sec) 
Heartbeat CPU 0 instructions: 210000003 cycles: 219080631 heartbeat IPC: 0.673738 cumulative IPC: 0.669557 (Simulation time: 0 hr 5 min 29 sec) 
Heartbeat CPU 0 instructions: 220000000 cycles: 234054192 heartbeat IPC: 0.667844 cumulative IPC: 0.669414 (Simulation time: 0 hr 5 min 47 sec) 
Heartbeat CPU 0 instructions: 230000001 cycles: 249460914 heartbeat IPC: 0.649067 cumulative IPC: 0.667803 (Simulation time: 0 hr 6 min 6 sec) 
Heartbeat CPU 0 instructions: 240000000 cycles: 264674814 heartbeat IPC: 0.657294 cumulative IPC: 0.667042 (Simulation time: 0 hr 6 min 24 sec) 
Heartbeat CPU 0 instructions: 250000003 cycles: 279739428 heartbeat IPC: 0.663807 cumulative IPC: 0.666825 (Simulation time: 0 hr 6 min 42 sec) 
Heartbeat CPU 0 instructions: 260000000 cycles: 295596541 heartbeat IPC: 0.630632 cumulative IPC: 0.664442 (Simulation time: 0 hr 7 min 1 sec) 
Heartbeat CPU 0 instructions: 270000003 cycles: 310472964 heartbeat IPC: 0.672205 cumulative IPC: 0.664893 (Simulation time: 0 hr 7 min 20 sec) 
Heartbeat CPU 0 instructions: 280000000 cycles: 325206065 heartbeat IPC: 0.678744 cumulative IPC: 0.665648 (Simulation time: 0 hr 7 min 38 sec) 
Heartbeat CPU 0 instructions: 290000002 cycles: 339859017 heartbeat IPC: 0.682456 cumulative IPC: 0.666512 (Simulation time: 0 hr 7 min 57 sec) 
Heartbeat CPU 0 instructions: 300000000 cycles: 355590117 heartbeat IPC: 0.635683 cumulative IPC: 0.6649 (Simulation time: 0 hr 8 min 15 sec) 
Heartbeat CPU 0 instructions: 310000000 cycles: 370870626 heartbeat IPC: 0.654428 cumulative IPC: 0.664393 (Simulation time: 0 hr 8 min 34 sec) 
Heartbeat CPU 0 instructions: 320000000 cycles: 385930835 heartbeat IPC: 0.664001 cumulative IPC: 0.664376 (Simulation time: 0 hr 8 min 52 sec) 
Heartbeat CPU 0 instructions: 330000000 cycles: 402124602 heartbeat IPC: 0.617522 cumulative IPC: 0.662191 (Simulation time: 0 hr 9 min 11 sec) 
Heartbeat CPU 0 instructions: 340000000 cycles: 417023233 heartbeat IPC: 0.671203 cumulative IPC: 0.662562 (Simulation time: 0 hr 9 min 29 sec) 
Heartbeat CPU 0 instructions: 350000000 cycles: 431916682 heartbeat IPC: 0.671436 cumulative IPC: 0.662912 (Simulation time: 0 hr 9 min 47 sec) 
Heartbeat CPU 0 instructions: 360000000 cycles: 446812963 heartbeat IPC: 0.671309 cumulative IPC: 0.663231 (Simulation time: 0 hr 10 min 5 sec) 
Heartbeat CPU 0 instructions: 370000002 cycles: 462532584 heartbeat IPC: 0.636148 cumulative IPC: 0.662187 (Simulation time: 0 hr 10 min 24 sec) 
Heartbeat CPU 0 instructions: 380000000 cycles: 477636520 heartbeat IPC: 0.662079 cumulative IPC: 0.662183 (Simulation time: 0 hr 10 min 42 sec) 
Heartbeat CPU 0 instructions: 390000000 cycles: 492847223 heartbeat IPC: 0.657432 cumulative IPC: 0.662018 (Simulation time: 0 hr 11 min 1 sec) 
Heartbeat CPU 0 instructions: 400000000 cycles: 509086920 heartbeat IPC: 0.615775 cumulative IPC: 0.660365 (Simulation time: 0 hr 11 min 19 sec) 
Heartbeat CPU 0 instructions: 410000001 cycles: 524421419 heartbeat IPC: 0.652124 cumulative IPC: 0.660096 (Simulation time: 0 hr 11 min 38 sec) 
Heartbeat CPU 0 instructions: 420000000 cycles: 539455163 heartbeat IPC: 0.66517 cumulative IPC: 0.660253 (Simulation time: 0 hr 11 min 56 sec) 
Heartbeat CPU 0 instructions: 430000000 cycles: 555189237 heartbeat IPC: 0.635563 cumulative IPC: 0.659477 (Simulation time: 0 hr 12 min 14 sec) 
Heartbeat CPU 0 instructions: 440000000 cycles: 570237457 heartbeat IPC: 0.66453 cumulative IPC: 0.659625 (Simulation time: 0 hr 12 min 32 sec) 
Heartbeat CPU 0 instructions: 450000000 cycles: 585491385 heartbeat IPC: 0.655569 cumulative IPC: 0.659508 (Simulation time: 0 hr 12 min 50 sec) 
Heartbeat CPU 0 instructions: 460000000 cycles: 601633708 heartbeat IPC: 0.61949 cumulative IPC: 0.658327 (Simulation time: 0 hr 13 min 9 sec) 
Heartbeat CPU 0 instructions: 470000000 cycles: 617034808 heartbeat IPC: 0.649304 cumulative IPC: 0.65808 (Simulation time: 0 hr 13 min 26 sec) 
Heartbeat CPU 0 instructions: 480000000 cycles: 632168245 heartbeat IPC: 0.660788 cumulative IPC: 0.658151 (Simulation time: 0 hr 13 min 44 sec) 
Heartbeat CPU 0 instructions: 490000002 cycles: 647712331 heartbeat IPC: 0.643332 cumulative IPC: 0.657762 (Simulation time: 0 hr 14 min 3 sec) 
Heartbeat CPU 0 instructions: 500000000 cycles: 662791194 heartbeat IPC: 0.66318 cumulative IPC: 0.657897 (Simulation time: 0 hr 14 min 21 sec) 
Heartbeat CPU 0 instructions: 510000001 cycles: 678160539 heartbeat IPC: 0.650646 cumulative IPC: 0.657718 (Simulation time: 0 hr 14 min 39 sec) 
Heartbeat CPU 0 instructions: 520000000 cycles: 693973945 heartbeat IPC: 0.632375 cumulative IPC: 0.657091 (Simulation time: 0 hr 14 min 57 sec) 
Heartbeat CPU 0 instructions: 530000001 cycles: 709758161 heartbeat IPC: 0.633544 cumulative IPC: 0.656523 (Simulation time: 0 hr 15 min 15 sec) 
Heartbeat CPU 0 instructions: 540000000 cycles: 724604215 heartbeat IPC: 0.67358 cumulative IPC: 0.656901 (Simulation time: 0 hr 15 min 33 sec) 
Heartbeat CPU 0 instructions: 550000001 cycles: 740108428 heartbeat IPC: 0.644986 cumulative IPC: 0.656632 (Simulation time: 0 hr 15 min 52 sec) 
Heartbeat CPU 0 instructions: 560000000 cycles: 755135698 heartbeat IPC: 0.665457 cumulative IPC: 0.656821 (Simulation time: 0 hr 16 min 9 sec) 
Heartbeat CPU 0 instructions: 570000002 cycles: 770593057 heartbeat IPC: 0.646941 cumulative IPC: 0.656608 (Simulation time: 0 hr 16 min 27 sec) 
Heartbeat CPU 0 instructions: 580000000 cycles: 785893369 heartbeat IPC: 0.653581 cumulative IPC: 0.656544 (Simulation time: 0 hr 16 min 45 sec) 
Heartbeat CPU 0 instructions: 590000001 cycles: 801166250 heartbeat IPC: 0.654755 cumulative IPC: 0.656508 (Simulation time: 0 hr 17 min 3 sec) 
Heartbeat CPU 0 instructions: 600000000 cycles: 816095948 heartbeat IPC: 0.669806 cumulative IPC: 0.656769 (Simulation time: 0 hr 17 min 21 sec) 
Finished CPU 0 instructions: 500000000 cycles: 761303127 cumulative IPC: 0.656769 (Simulation time: 0 hr 17 min 21 sec) 

CPU 0 Branch Prediction Accuracy: 93.7783% MPKI: 10.0718
Number of Branches: 80940586 Number of Mispredictions: 5035908
Number of LOAD Instructions: 184238101
Number of LOAD Instructions (ROI): 184238101
Number of STORE Instructions: 33143298
Number of STORE Instructions (ROI): 33143298
Total Destination Memory Operands: 33324321
Total Destination Memory Operands (ROI): 33324321
Total Source Memory Operands: 184238101
Total Source Memory Operands (ROI): 184238101
Number of DEPENDED LOADS: 4462062
Number of DEPENDED LOADS (ROI): 4462062
Number of SQ_ADDED: 33324292
Number of SQ_ADDED (ROI): 33324292
Number of LQ_ADDED: 184864834
Number of LQ_ADDED (ROI): 184864834
Number of Instructions read from trace: 600000256

ChampSim completed all CPUs

Region of Interest Statistics

CPU 0 cumulative IPC: 0.656769 instructions: 500000000 cycles: 761303127
ITLB TOTAL     ACCESS:   77753073  HIT:   77753073  MISS:          0
ITLB LOAD      ACCESS:   77753073  HIT:   77753073  MISS:          0
ITLB RFO       ACCESS:          0  HIT:          0  MISS:          0
ITLB PREFETCH  ACCESS:          0  HIT:          0  MISS:          0
ITLB WRITEBACK ACCESS:          0  HIT:          0  MISS:          0
ITLB PREFETCH  REQUESTED:          0  ISSUED:          0  USEFUL:          0  USELESS:          0
ITLB TOTAL MSHR MERGED:          0
ITLB LOAD MSHR MERGED:          0
ITLB RFO MSHR MERGED:          0
ITLB PREFETCH MSHR MERGED:          0
ITLB WRITEBACK MSHR MERGED:          0
ITLB TOTAL ACCESSES:   77753073 HITS:   77753073 MISSES:          0
ITLB LOAD ACCESSES:   77753073 HITS:   77753073 MISSES:          0
ITLB RFO ACCESSES:          0 HITS:          0 MISSES:          0
ITLB PREFETCH ACCESSES:          0 HITS:          0 MISSES:          0
ITLB WRITEBACK ACCESSES:          0 HITS:          0 MISSES:          0
ITLB RQ ACCESS:  500000245
ITLB RQ TO_CACHE:   77753073
ITLB RQ MERGED:  422247172
ITLB RQ FORWARD:          0
ITLB WQ ACCESS:          0
ITLB WQ TO_CACHE:          0
ITLB WQ MERGED:          0
ITLB WQ FORWARD:          0
DTLB TOTAL     ACCESS:   88439360  HIT:   87302514  MISS:    1136846
DTLB LOAD      ACCESS:   66313372  HIT:   65180766  MISS:    1132606
DTLB RFO       ACCESS:   22125988  HIT:   22121748  MISS:       4240
DTLB PREFETCH  ACCESS:          0  HIT:          0  MISS:          0
DTLB WRITEBACK ACCESS:          0  HIT:          0  MISS:          0
DTLB PREFETCH  REQUESTED:          0  ISSUED:          0  USEFUL:          0  USELESS:          0
DTLB TOTAL MSHR MERGED:     135586
DTLB LOAD MSHR MERGED:     133771
DTLB RFO MSHR MERGED:       1815
DTLB PREFETCH MSHR MERGED:          0
DTLB WRITEBACK MSHR MERGED:          0
DTLB TOTAL ACCESSES:   88574946 HITS:   87302514 MISSES:    1272432
DTLB LOAD ACCESSES:   66447143 HITS:   65180766 MISSES:    1266377
DTLB RFO ACCESSES:   22127803 HITS:   22121748 MISSES:       6055
DTLB PREFETCH ACCESSES:          0 HITS:          0 MISSES:          0
DTLB WRITEBACK ACCESSES:          0 HITS:          0 MISSES:          0
DTLB RQ ACCESS:  177578627
DTLB RQ TO_CACHE:   88574946
DTLB RQ MERGED:   89003681
DTLB RQ FORWARD:          0
DTLB WQ ACCESS:          0
DTLB WQ TO_CACHE:          0
DTLB WQ MERGED:          0
DTLB WQ FORWARD:          0
L1D TOTAL     ACCESS:  142126413  HIT:  136567350  MISS:    5559063
L1D LOAD      ACCESS:   61388641  HIT:   58292856  MISS:    3095785
L1D RFO       ACCESS:   27669119  HIT:   27587305  MISS:      81814
L1D PREFETCH  ACCESS:   53068653  HIT:   50687189  MISS:    2381464
L1D WRITEBACK ACCESS:          0  HIT:          0  MISS:          0
L1D PREFETCH  REQUESTED:   61678419  ISSUED:   60760176  USEFUL:     674583  USELESS:    1706886
L1D TOTAL MSHR MERGED:    1166809
L1D LOAD MSHR MERGED:     379922
L1D RFO MSHR MERGED:     163993
L1D PREFETCH MSHR MERGED:     622894
L1D WRITEBACK MSHR MERGED:          0
L1D TOTAL ACCESSES:  143390821 HITS:  136664949 MISSES:    6725872
L1D LOAD ACCESSES:   61678429 HITS:   58292866 MISSES:    3385563
L1D RFO ACCESSES:   27829319 HITS:   27587305 MISSES:     242014
L1D PREFETCH ACCESSES:   53883073 HITS:   50784778 MISSES:    3098295
L1D WRITEBACK ACCESSES:          0 HITS:          0 MISSES:          0
L1D RQ ACCESS:  149745661
L1D RQ TO_CACHE:   61678419
L1D RQ MERGED:   88067232
L1D RQ FORWARD:          0
L1D WQ ACCESS:   27832966
L1D WQ TO_CACHE:   27829319
L1D WQ MERGED:       3647
L1D WQ FORWARD:      97599
L1I TOTAL     ACCESS:   96230044  HIT:   96070801  MISS:     159243
L1I LOAD      ACCESS:   96230044  HIT:   96070801  MISS:     159243
L1I RFO       ACCESS:          0  HIT:          0  MISS:          0
L1I PREFETCH  ACCESS:          0  HIT:          0  MISS:          0
L1I WRITEBACK ACCESS:          0  HIT:          0  MISS:          0
L1I PREFETCH  REQUESTED:          0  ISSUED:          0  USEFUL:          0  USELESS:          0
L1I TOTAL MSHR MERGED:     130479
L1I LOAD MSHR MERGED:     130479
L1I RFO MSHR MERGED:          0
L1I PREFETCH MSHR MERGED:          0
L1I WRITEBACK MSHR MERGED:          0
L1I TOTAL ACCESSES:   96360523 HITS:   96070801 MISSES:     289722
L1I LOAD ACCESSES:   96360523 HITS:   96070801 MISSES:     289722
L1I RFO ACCESSES:          0 HITS:          0 MISSES:          0
L1I PREFETCH ACCESSES:          0 HITS:          0 MISSES:          0
L1I WRITEBACK ACCESSES:          0 HITS:          0 MISSES:          0
L1I RQ ACCESS:  500000245
L1I RQ TO_CACHE:   96360523
L1I RQ MERGED:  403639722
L1I RQ FORWARD:          0
L1I WQ ACCESS:          0
L1I WQ TO_CACHE:          0
L1I WQ MERGED:          0
L1I WQ FORWARD:          0
L2C TOTAL     ACCESS:    5911896  HIT:    3063245  MISS:    2848651
L2C LOAD      ACCESS:    3164874  HIT:    1583390  MISS:    1581484
L2C RFO       ACCESS:      77946  HIT:      45097  MISS:      32849
L2C PREFETCH  ACCESS:    2525540  HIT:    1296806  MISS:    1228734
L2C WRITEBACK ACCESS:     143536  HIT:     137952  MISS:       5584
L2C PREFETCH  REQUESTED:      52723  ISSUED:      52723  USEFUL:      19047  USELESS:    1209727
L2C TOTAL MSHR MERGED:       1651
L2C LOAD MSHR MERGED:        566
L2C RFO MSHR MERGED:          0
L2C PREFETCH MSHR MERGED:       1085
L2C WRITEBACK MSHR MERGED:          0
L2C TOTAL ACCESSES:    5913641 HITS:    3063330 MISSES:    2850311
L2C LOAD ACCESSES:    3164884 HITS:    1583400 MISSES:    1581484
L2C RFO ACCESSES:      78021 HITS:      45172 MISSES:      32849
L2C PREFETCH ACCESSES:    2527200 HITS:    1296806 MISSES:    1230394
L2C WRITEBACK ACCESSES:     143536 HITS:     137952 MISSES:       5584
L2C RQ ACCESS:    3242905
L2C RQ TO_CACHE:    3242820
L2C RQ MERGED:          0
L2C RQ FORWARD:          0
L2C WQ ACCESS:     143536
L2C WQ TO_CACHE:     143536
L2C WQ MERGED:          0
L2C WQ FORWARD:         85
LLC TOTAL     ACCESS:    2892616  HIT:    1765392  MISS:    1127224
LLC LOAD      ACCESS:    1580918  HIT:    1016184  MISS:     564734
LLC RFO       ACCESS:      32842  HIT:      32300  MISS:        542
LLC PREFETCH  ACCESS:    1229309  HIT:     670598  MISS:     558711
LLC WRITEBACK ACCESS:      49547  HIT:      46310  MISS:       3237
LLC PREFETCH  REQUESTED:          0  ISSUED:          0  USEFUL:      12023  USELESS:     546853
LLC TOTAL MSHR MERGED:          0
LLC LOAD MSHR MERGED:          0
LLC RFO MSHR MERGED:          0
LLC PREFETCH MSHR MERGED:          0
LLC WRITEBACK MSHR MERGED:          0
LLC TOTAL ACCESSES:    2892623 HITS:    1765399 MISSES:    1127224
LLC LOAD ACCESSES:    1580918 HITS:    1016184 MISSES:     564734
LLC RFO ACCESSES:      32849 HITS:      32307 MISSES:        542
LLC PREFETCH ACCESSES:    1229309 HITS:     670598 MISSES:     558711
LLC WRITEBACK ACCESSES:      49547 HITS:      46310 MISSES:       3237
LLC 0 RQ ACCESS:    1613767
LLC 0 RQ TO_CACHE:    1613760
LLC 0 RQ MERGED:          0
LLC 0 RQ FORWARD:          0
LLC WQ ACCESS:      49547
LLC WQ TO_CACHE:      49547
LLC WQ MERGED:          0
LLC WQ FORWARD:          7
Major fault: 0 Minor fault: 8460
CPU 0 L1D next line prefetcher final stats
CPU 0 L2C PC-based stride prefetcher final stats
All Misses: 1344619
All Hits: 2084592
SD Algo Stats - Switches: 0 SRR-Repls: 649659 BRR-Repls: 0

DRAM Statistics
 CHANNEL 0
 RQ ROW_BUFFER_HIT:     375027  ROW_BUFFER_MISS:     748588
 DBUS_CONGESTED:     350790
 WQ ROW_BUFFER_HIT:       1035  ROW_BUFFER_MISS:       2525  FULL:          0

 AVG_CONGESTED_CYCLE: 12
LOADS RETIRED: 153532848
INSTR RETIRED: 500000000
