
*** ChampSim Multicore Out-of-Order Simulator ***

Warmup Instructions: 100000000
Simulation Instructions: 500000000
Number of CPUs: 1
LLC sets: 2048
LLC ways: 16
Clean RRIP Policies: 1012030010120300 Dirty RRIP Policies: 22030000220300 PSEL Width: 10 Track Set: 4294967295 PSEL Mask: 1 Demote Mask: 4013021440130214DS Algo: 0Window size: 0
Off-chip DRAM Size: 4096 MB Channels: 1 Width: 64-bit Data Rate: 1600 MT/s

CPU 0 runs /mnt/beegfs/iconst01/spec2017/cactuBSSN.trace.gz
NOT SORTED
TRACE STRING: /mnt/beegfs/iconst01/spec2017/cactuBSSN.trace.gz
SORTED
TRACE STRING: /mnt/beegfs/iconst01/spec2017/cactuBSSN.trace.gz
INITIAL
TRACE STRING: /mnt/beegfs/iconst01/spec2017/cactuBSSN.trace.gz

champsim_seed used: 838

CPU 0 L1D next line prefetcher
CPU 0 L2C IP-based stride prefetcher
Initialize DRRIP state
Assign rand_sets[0]: 454  LLC: 2048
rand_sets[0]: 454
Assign rand_sets[1]: 1662  LLC: 2048
rand_sets[1]: 1662
Assign rand_sets[2]: 1921  LLC: 2048
rand_sets[2]: 1921
Assign rand_sets[3]: 1131  LLC: 2048
rand_sets[3]: 1131
Assign rand_sets[4]: 331  LLC: 2048
rand_sets[4]: 331
Assign rand_sets[5]: 1531  LLC: 2048
rand_sets[5]: 1531
Assign rand_sets[6]: 482  LLC: 2048
rand_sets[6]: 482
Assign rand_sets[7]: 1275  LLC: 2048
rand_sets[7]: 1275
Assign rand_sets[8]: 1876  LLC: 2048
rand_sets[8]: 1876
Assign rand_sets[9]: 2038  LLC: 2048
rand_sets[9]: 2038
Assign rand_sets[10]: 701  LLC: 2048
rand_sets[10]: 701
Assign rand_sets[11]: 479  LLC: 2048
rand_sets[11]: 479
Assign rand_sets[12]: 892  LLC: 2048
rand_sets[12]: 892
Assign rand_sets[13]: 1820  LLC: 2048
rand_sets[13]: 1820
Assign rand_sets[14]: 1505  LLC: 2048
rand_sets[14]: 1505
Assign rand_sets[15]: 1159  LLC: 2048
rand_sets[15]: 1159
Assign rand_sets[16]: 513  LLC: 2048
rand_sets[16]: 513
Assign rand_sets[17]: 703  LLC: 2048
rand_sets[17]: 703
Assign rand_sets[18]: 561  LLC: 2048
rand_sets[18]: 561
Assign rand_sets[19]: 990  LLC: 2048
rand_sets[19]: 990
Assign rand_sets[20]: 342  LLC: 2048
rand_sets[20]: 342
Assign rand_sets[21]: 882  LLC: 2048
rand_sets[21]: 882
Assign rand_sets[22]: 15  LLC: 2048
rand_sets[22]: 15
Assign rand_sets[23]: 71  LLC: 2048
rand_sets[23]: 71
Assign rand_sets[24]: 1127  LLC: 2048
rand_sets[24]: 1127
Assign rand_sets[25]: 1382  LLC: 2048
rand_sets[25]: 1382
Assign rand_sets[26]: 647  LLC: 2048
rand_sets[26]: 647
Assign rand_sets[27]: 857  LLC: 2048
rand_sets[27]: 857
Assign rand_sets[28]: 1450  LLC: 2048
rand_sets[28]: 1450
Assign rand_sets[29]: 1160  LLC: 2048
rand_sets[29]: 1160
Assign rand_sets[30]: 1852  LLC: 2048
rand_sets[30]: 1852
Assign rand_sets[31]: 1881  LLC: 2048
rand_sets[31]: 1881
Assign rand_sets[32]: 1770  LLC: 2048
rand_sets[32]: 1770
Assign rand_sets[33]: 1622  LLC: 2048
rand_sets[33]: 1622
Assign rand_sets[34]: 275  LLC: 2048
rand_sets[34]: 275
Assign rand_sets[35]: 635  LLC: 2048
rand_sets[35]: 635
Assign rand_sets[36]: 466  LLC: 2048
rand_sets[36]: 466
Assign rand_sets[37]: 1413  LLC: 2048
rand_sets[37]: 1413
Assign rand_sets[38]: 417  LLC: 2048
rand_sets[38]: 417
Assign rand_sets[39]: 472  LLC: 2048
rand_sets[39]: 472
Assign rand_sets[40]: 1340  LLC: 2048
rand_sets[40]: 1340
Assign rand_sets[41]: 852  LLC: 2048
rand_sets[41]: 852
Assign rand_sets[42]: 1365  LLC: 2048
rand_sets[42]: 1365
Assign rand_sets[43]: 47  LLC: 2048
rand_sets[43]: 47
Assign rand_sets[44]: 823  LLC: 2048
rand_sets[44]: 823
Assign rand_sets[45]: 686  LLC: 2048
rand_sets[45]: 686
Assign rand_sets[46]: 1637  LLC: 2048
rand_sets[46]: 1637
Assign rand_sets[47]: 1115  LLC: 2048
rand_sets[47]: 1115
Assign rand_sets[48]: 986  LLC: 2048
rand_sets[48]: 986
Assign rand_sets[49]: 258  LLC: 2048
rand_sets[49]: 258
Assign rand_sets[50]: 633  LLC: 2048
rand_sets[50]: 633
Assign rand_sets[51]: 920  LLC: 2048
rand_sets[51]: 920
Assign rand_sets[52]: 204  LLC: 2048
rand_sets[52]: 204
Assign rand_sets[53]: 227  LLC: 2048
rand_sets[53]: 227
Assign rand_sets[54]: 1818  LLC: 2048
rand_sets[54]: 1818
Assign rand_sets[55]: 886  LLC: 2048
rand_sets[55]: 886
Assign rand_sets[56]: 1422  LLC: 2048
rand_sets[56]: 1422
Assign rand_sets[57]: 607  LLC: 2048
rand_sets[57]: 607
Assign rand_sets[58]: 217  LLC: 2048
rand_sets[58]: 217
Assign rand_sets[59]: 1945  LLC: 2048
rand_sets[59]: 1945
Assign rand_sets[60]: 143  LLC: 2048
rand_sets[60]: 143
Assign rand_sets[61]: 1311  LLC: 2048
rand_sets[61]: 1311
Assign rand_sets[62]: 319  LLC: 2048
rand_sets[62]: 319
Assign rand_sets[63]: 1846  LLC: 2048
rand_sets[63]: 1846
 CLEAN-RRIP-POLICY-1: 1-0-1-2-0-3-0-0- CLEAN-RRIP-POLICY-2: 1-0-1-2-0-3-0-0-
 DIRTY-RRIP-POLICY-1: 0-0-2-2-0-3-0-0- DIRTY-RRIP-POLICY-2: 0-0-2-2-0-3-0-0-
 PSEL width: 10
Heartbeat CPU 0 instructions: 10000000 cycles: 6587903 heartbeat IPC: 1.51793 cumulative IPC: 1.51793 (Simulation time: 0 hr 0 min 23 sec) 
Heartbeat CPU 0 instructions: 20000000 cycles: 13179387 heartbeat IPC: 1.51711 cumulative IPC: 1.51752 (Simulation time: 0 hr 0 min 47 sec) 
Heartbeat CPU 0 instructions: 30000003 cycles: 19772597 heartbeat IPC: 1.51671 cumulative IPC: 1.51725 (Simulation time: 0 hr 1 min 11 sec) 
Heartbeat CPU 0 instructions: 40000000 cycles: 26364150 heartbeat IPC: 1.51709 cumulative IPC: 1.51721 (Simulation time: 0 hr 1 min 35 sec) 
Heartbeat CPU 0 instructions: 50000001 cycles: 32956713 heartbeat IPC: 1.51686 cumulative IPC: 1.51714 (Simulation time: 0 hr 1 min 59 sec) 
Heartbeat CPU 0 instructions: 60000000 cycles: 39555340 heartbeat IPC: 1.51547 cumulative IPC: 1.51686 (Simulation time: 0 hr 2 min 23 sec) 
Heartbeat CPU 0 instructions: 70000003 cycles: 46153554 heartbeat IPC: 1.51556 cumulative IPC: 1.51668 (Simulation time: 0 hr 2 min 47 sec) 
Heartbeat CPU 0 instructions: 80000000 cycles: 52751557 heartbeat IPC: 1.51561 cumulative IPC: 1.51654 (Simulation time: 0 hr 3 min 10 sec) 
Heartbeat CPU 0 instructions: 90000002 cycles: 59346917 heartbeat IPC: 1.51622 cumulative IPC: 1.51651 (Simulation time: 0 hr 3 min 34 sec) 
Heartbeat CPU 0 instructions: 100000000 cycles: 65941720 heartbeat IPC: 1.51635 cumulative IPC: 1.51649 (Simulation time: 0 hr 3 min 58 sec) 

Warmup complete CPU 0 instructions: 100000002 cycles: 65941721 (Simulation time: 0 hr 3 min 58 sec) 

Heartbeat CPU 0 instructions: 110000000 cycles: 79120609 heartbeat IPC: 0.758789 cumulative IPC: 0.758789 (Simulation time: 0 hr 4 min 27 sec) 
Heartbeat CPU 0 instructions: 120000000 cycles: 92271873 heartbeat IPC: 0.760383 cumulative IPC: 0.759585 (Simulation time: 0 hr 4 min 56 sec) 
Heartbeat CPU 0 instructions: 130000001 cycles: 105474682 heartbeat IPC: 0.757415 cumulative IPC: 0.75886 (Simulation time: 0 hr 5 min 25 sec) 
Heartbeat CPU 0 instructions: 140000000 cycles: 118604041 heartbeat IPC: 0.761652 cumulative IPC: 0.759556 (Simulation time: 0 hr 5 min 54 sec) 
Heartbeat CPU 0 instructions: 150000001 cycles: 131727860 heartbeat IPC: 0.761973 cumulative IPC: 0.760038 (Simulation time: 0 hr 6 min 23 sec) 
Heartbeat CPU 0 instructions: 160000000 cycles: 144931472 heartbeat IPC: 0.757368 cumulative IPC: 0.759592 (Simulation time: 0 hr 6 min 52 sec) 
Heartbeat CPU 0 instructions: 170000000 cycles: 158072859 heartbeat IPC: 0.760955 cumulative IPC: 0.759787 (Simulation time: 0 hr 7 min 21 sec) 
Heartbeat CPU 0 instructions: 180000000 cycles: 171207415 heartbeat IPC: 0.76135 cumulative IPC: 0.759982 (Simulation time: 0 hr 7 min 50 sec) 
Heartbeat CPU 0 instructions: 190000000 cycles: 184327931 heartbeat IPC: 0.762165 cumulative IPC: 0.760224 (Simulation time: 0 hr 8 min 19 sec) 
Heartbeat CPU 0 instructions: 200000000 cycles: 197528134 heartbeat IPC: 0.757564 cumulative IPC: 0.759957 (Simulation time: 0 hr 8 min 48 sec) 
Heartbeat CPU 0 instructions: 210000002 cycles: 210681281 heartbeat IPC: 0.760274 cumulative IPC: 0.759986 (Simulation time: 0 hr 9 min 17 sec) 
Heartbeat CPU 0 instructions: 220000000 cycles: 223817339 heartbeat IPC: 0.761263 cumulative IPC: 0.760092 (Simulation time: 0 hr 9 min 46 sec) 
Heartbeat CPU 0 instructions: 230000003 cycles: 237016657 heartbeat IPC: 0.757615 cumulative IPC: 0.759901 (Simulation time: 0 hr 10 min 15 sec) 
Heartbeat CPU 0 instructions: 240000000 cycles: 250157627 heartbeat IPC: 0.760979 cumulative IPC: 0.759978 (Simulation time: 0 hr 10 min 44 sec) 
Heartbeat CPU 0 instructions: 250000001 cycles: 263332906 heartbeat IPC: 0.758997 cumulative IPC: 0.759912 (Simulation time: 0 hr 11 min 13 sec) 
Heartbeat CPU 0 instructions: 260000000 cycles: 276495027 heartbeat IPC: 0.759756 cumulative IPC: 0.759903 (Simulation time: 0 hr 11 min 42 sec) 
Heartbeat CPU 0 instructions: 270000003 cycles: 289686076 heartbeat IPC: 0.75809 cumulative IPC: 0.759796 (Simulation time: 0 hr 12 min 11 sec) 
Heartbeat CPU 0 instructions: 280000000 cycles: 302839205 heartbeat IPC: 0.760275 cumulative IPC: 0.759822 (Simulation time: 0 hr 12 min 40 sec) 
Heartbeat CPU 0 instructions: 290000000 cycles: 315975836 heartbeat IPC: 0.76123 cumulative IPC: 0.759896 (Simulation time: 0 hr 13 min 8 sec) 
Heartbeat CPU 0 instructions: 300000000 cycles: 329161624 heartbeat IPC: 0.758392 cumulative IPC: 0.759821 (Simulation time: 0 hr 13 min 37 sec) 
Heartbeat CPU 0 instructions: 310000001 cycles: 342304683 heartbeat IPC: 0.760858 cumulative IPC: 0.75987 (Simulation time: 0 hr 14 min 6 sec) 
Heartbeat CPU 0 instructions: 320000000 cycles: 355447940 heartbeat IPC: 0.760846 cumulative IPC: 0.759915 (Simulation time: 0 hr 14 min 35 sec) 
Heartbeat CPU 0 instructions: 330000002 cycles: 368605548 heartbeat IPC: 0.760017 cumulative IPC: 0.759919 (Simulation time: 0 hr 15 min 4 sec) 
Heartbeat CPU 0 instructions: 340000000 cycles: 381798138 heartbeat IPC: 0.758001 cumulative IPC: 0.759839 (Simulation time: 0 hr 15 min 33 sec) 
Heartbeat CPU 0 instructions: 350000000 cycles: 394982913 heartbeat IPC: 0.758451 cumulative IPC: 0.759783 (Simulation time: 0 hr 16 min 1 sec) 
Heartbeat CPU 0 instructions: 360000000 cycles: 408165097 heartbeat IPC: 0.7586 cumulative IPC: 0.759738 (Simulation time: 0 hr 16 min 30 sec) 
Heartbeat CPU 0 instructions: 370000002 cycles: 421374903 heartbeat IPC: 0.757014 cumulative IPC: 0.759636 (Simulation time: 0 hr 16 min 59 sec) 
Heartbeat CPU 0 instructions: 380000000 cycles: 434522911 heartbeat IPC: 0.760571 cumulative IPC: 0.75967 (Simulation time: 0 hr 17 min 28 sec) 
Heartbeat CPU 0 instructions: 390000000 cycles: 447659408 heartbeat IPC: 0.761238 cumulative IPC: 0.759724 (Simulation time: 0 hr 17 min 57 sec) 
Heartbeat CPU 0 instructions: 400000000 cycles: 460810504 heartbeat IPC: 0.760393 cumulative IPC: 0.759746 (Simulation time: 0 hr 18 min 25 sec) 
Heartbeat CPU 0 instructions: 410000001 cycles: 474004094 heartbeat IPC: 0.757944 cumulative IPC: 0.759688 (Simulation time: 0 hr 18 min 54 sec) 
Heartbeat CPU 0 instructions: 420000000 cycles: 487117788 heartbeat IPC: 0.762562 cumulative IPC: 0.759777 (Simulation time: 0 hr 19 min 23 sec) 
Heartbeat CPU 0 instructions: 430000001 cycles: 500265276 heartbeat IPC: 0.760602 cumulative IPC: 0.759802 (Simulation time: 0 hr 19 min 52 sec) 
Heartbeat CPU 0 instructions: 440000000 cycles: 513396569 heartbeat IPC: 0.76154 cumulative IPC: 0.759853 (Simulation time: 0 hr 20 min 21 sec) 
Heartbeat CPU 0 instructions: 450000002 cycles: 526629270 heartbeat IPC: 0.755704 cumulative IPC: 0.759734 (Simulation time: 0 hr 20 min 49 sec) 
Heartbeat CPU 0 instructions: 460000000 cycles: 539786789 heartbeat IPC: 0.760022 cumulative IPC: 0.759742 (Simulation time: 0 hr 21 min 18 sec) 
Heartbeat CPU 0 instructions: 470000003 cycles: 552931179 heartbeat IPC: 0.760781 cumulative IPC: 0.75977 (Simulation time: 0 hr 21 min 47 sec) 
Heartbeat CPU 0 instructions: 480000000 cycles: 566122424 heartbeat IPC: 0.758078 cumulative IPC: 0.759725 (Simulation time: 0 hr 22 min 16 sec) 
Heartbeat CPU 0 instructions: 490000000 cycles: 579267404 heartbeat IPC: 0.760747 cumulative IPC: 0.759752 (Simulation time: 0 hr 22 min 44 sec) 
Heartbeat CPU 0 instructions: 500000000 cycles: 592413363 heartbeat IPC: 0.76069 cumulative IPC: 0.759775 (Simulation time: 0 hr 23 min 13 sec) 
Heartbeat CPU 0 instructions: 510000001 cycles: 605536704 heartbeat IPC: 0.762001 cumulative IPC: 0.759829 (Simulation time: 0 hr 23 min 42 sec) 
Heartbeat CPU 0 instructions: 520000000 cycles: 618751288 heartbeat IPC: 0.75674 cumulative IPC: 0.759755 (Simulation time: 0 hr 24 min 11 sec) 
Heartbeat CPU 0 instructions: 530000000 cycles: 631915573 heartbeat IPC: 0.759631 cumulative IPC: 0.759752 (Simulation time: 0 hr 24 min 39 sec) 
Heartbeat CPU 0 instructions: 540000000 cycles: 645077766 heartbeat IPC: 0.759752 cumulative IPC: 0.759752 (Simulation time: 0 hr 25 min 8 sec) 
Heartbeat CPU 0 instructions: 550000002 cycles: 658262929 heartbeat IPC: 0.758428 cumulative IPC: 0.759723 (Simulation time: 0 hr 25 min 37 sec) 
Heartbeat CPU 0 instructions: 560000000 cycles: 671396248 heartbeat IPC: 0.761422 cumulative IPC: 0.75976 (Simulation time: 0 hr 26 min 6 sec) 
Heartbeat CPU 0 instructions: 570000001 cycles: 684534080 heartbeat IPC: 0.761161 cumulative IPC: 0.75979 (Simulation time: 0 hr 26 min 34 sec) 
Heartbeat CPU 0 instructions: 580000000 cycles: 697678168 heartbeat IPC: 0.760798 cumulative IPC: 0.759811 (Simulation time: 0 hr 27 min 3 sec) 
Heartbeat CPU 0 instructions: 590000003 cycles: 710865592 heartbeat IPC: 0.758298 cumulative IPC: 0.75978 (Simulation time: 0 hr 27 min 32 sec) 
Heartbeat CPU 0 instructions: 600000000 cycles: 724054843 heartbeat IPC: 0.758193 cumulative IPC: 0.759748 (Simulation time: 0 hr 28 min 1 sec) 
Finished CPU 0 instructions: 500000000 cycles: 658113132 cumulative IPC: 0.759748 (Simulation time: 0 hr 28 min 1 sec) 

CPU 0 Branch Prediction Accuracy: 99.968% MPKI: 0.002246
Number of Branches: 3513331 Number of Mispredictions: 1123
Number of LOAD Instructions: 287251172
Number of LOAD Instructions (ROI): 287251172
Number of STORE Instructions: 51060820
Number of STORE Instructions (ROI): 51060820
Total Destination Memory Operands: 51166221
Total Destination Memory Operands (ROI): 51166221
Total Source Memory Operands: 287251172
Total Source Memory Operands (ROI): 287251172
Number of DEPENDED LOADS: 9555330
Number of DEPENDED LOADS (ROI): 9555330
Number of SQ_ADDED: 51166208
Number of SQ_ADDED (ROI): 51166208
Number of LQ_ADDED: 290420105
Number of LQ_ADDED (ROI): 290420105
Number of Instructions read from trace: 600000257

ChampSim completed all CPUs

Region of Interest Statistics

CPU 0 cumulative IPC: 0.759748 instructions: 500000000 cycles: 658113132
ITLB TOTAL     ACCESS:  108936631  HIT:  108936631  MISS:          0
ITLB LOAD      ACCESS:  108936631  HIT:  108936631  MISS:          0
ITLB RFO       ACCESS:          0  HIT:          0  MISS:          0
ITLB PREFETCH  ACCESS:          0  HIT:          0  MISS:          0
ITLB WRITEBACK ACCESS:          0  HIT:          0  MISS:          0
ITLB PREFETCH  REQUESTED:          0  ISSUED:          0  USEFUL:          0  USELESS:          0
ITLB TOTAL MSHR MERGED:          0
ITLB LOAD MSHR MERGED:          0
ITLB RFO MSHR MERGED:          0
ITLB PREFETCH MSHR MERGED:          0
ITLB WRITEBACK MSHR MERGED:          0
ITLB TOTAL ACCESSES:  108936631 HITS:  108936631 MISSES:          0
ITLB LOAD ACCESSES:  108936631 HITS:  108936631 MISSES:          0
ITLB RFO ACCESSES:          0 HITS:          0 MISSES:          0
ITLB PREFETCH ACCESSES:          0 HITS:          0 MISSES:          0
ITLB WRITEBACK ACCESSES:          0 HITS:          0 MISSES:          0
ITLB RQ ACCESS:  500000001
ITLB RQ TO_CACHE:  108936631
ITLB RQ MERGED:  391063370
ITLB RQ FORWARD:          0
ITLB WQ ACCESS:          0
ITLB WQ TO_CACHE:          0
ITLB WQ MERGED:          0
ITLB WQ FORWARD:          0
DTLB TOTAL     ACCESS:  171122616  HIT:  161106269  MISS:   10016347
DTLB LOAD      ACCESS:  143467316  HIT:  135591219  MISS:    7876097
DTLB RFO       ACCESS:   27655300  HIT:   25515050  MISS:    2140250
DTLB PREFETCH  ACCESS:          0  HIT:          0  MISS:          0
DTLB WRITEBACK ACCESS:          0  HIT:          0  MISS:          0
DTLB PREFETCH  REQUESTED:          0  ISSUED:          0  USEFUL:          0  USELESS:          0
DTLB TOTAL MSHR MERGED:     360491
DTLB LOAD MSHR MERGED:     360491
DTLB RFO MSHR MERGED:          0
DTLB PREFETCH MSHR MERGED:          0
DTLB WRITEBACK MSHR MERGED:          0
DTLB TOTAL ACCESSES:  171483107 HITS:  161106269 MISSES:   10376838
DTLB LOAD ACCESSES:  143827807 HITS:  135591219 MISSES:    8236588
DTLB RFO ACCESSES:   27655300 HITS:   25515050 MISSES:    2140250
DTLB PREFETCH ACCESSES:          0 HITS:          0 MISSES:          0
DTLB WRITEBACK ACCESSES:          0 HITS:          0 MISSES:          0
DTLB RQ ACCESS:  274072490
DTLB RQ TO_CACHE:  171483107
DTLB RQ MERGED:  102589383
DTLB RQ FORWARD:          0
DTLB WQ ACCESS:          0
DTLB WQ TO_CACHE:          0
DTLB WQ MERGED:          0
DTLB WQ FORWARD:          0
L1D TOTAL     ACCESS:  350909401  HIT:  283723566  MISS:   67185835
L1D LOAD      ACCESS:  175625106  HIT:  142593654  MISS:   33031452
L1D RFO       ACCESS:   42019669  HIT:   39213914  MISS:    2805755
L1D PREFETCH  ACCESS:  133264626  HIT:  101915998  MISS:   31348628
L1D WRITEBACK ACCESS:          0  HIT:          0  MISS:          0
L1D PREFETCH  REQUESTED:  176227793  ISSUED:  175289427  USEFUL:    2180333  USELESS:   29168297
L1D TOTAL MSHR MERGED:    1482657
L1D LOAD MSHR MERGED:     702803
L1D RFO MSHR MERGED:     349457
L1D PREFETCH MSHR MERGED:     430397
L1D WRITEBACK MSHR MERGED:          0
L1D TOTAL ACCESSES:  352504902 HITS:  283836410 MISSES:   68668492
L1D LOAD ACCESSES:  176234469 HITS:  142600330 MISSES:   33634139
L1D RFO ACCESSES:   42368433 HITS:   39213914 MISSES:    3154519
L1D PREFETCH ACCESSES:  133902000 HITS:  102022166 MISSES:   31879834
L1D WRITEBACK ACCESSES:          0 HITS:          0 MISSES:          0
L1D RQ ACCESS:  231434017
L1D RQ TO_CACHE:  176227793
L1D RQ MERGED:   55199548
L1D RQ FORWARD:          0
L1D WQ ACCESS:   42638475
L1D WQ TO_CACHE:   42368433
L1D WQ MERGED:     270042
L1D WQ FORWARD:     112844
L1I TOTAL     ACCESS:  109327190  HIT:   77811486  MISS:   31515704
L1I LOAD      ACCESS:  109327190  HIT:   77811486  MISS:   31515704
L1I RFO       ACCESS:          0  HIT:          0  MISS:          0
L1I PREFETCH  ACCESS:          0  HIT:          0  MISS:          0
L1I WRITEBACK ACCESS:          0  HIT:          0  MISS:          0
L1I PREFETCH  REQUESTED:          0  ISSUED:          0  USEFUL:          0  USELESS:          0
L1I TOTAL MSHR MERGED:   30758540
L1I LOAD MSHR MERGED:   30758540
L1I RFO MSHR MERGED:          0
L1I PREFETCH MSHR MERGED:          0
L1I WRITEBACK MSHR MERGED:          0
L1I TOTAL ACCESSES:  140085732 HITS:   77811486 MISSES:   62274246
L1I LOAD ACCESSES:  140085732 HITS:   77811486 MISSES:   62274246
L1I RFO ACCESSES:          0 HITS:          0 MISSES:          0
L1I PREFETCH ACCESSES:          0 HITS:          0 MISSES:          0
L1I WRITEBACK ACCESSES:          0 HITS:          0 MISSES:          0
L1I RQ ACCESS:  500000003
L1I RQ TO_CACHE:  140085732
L1I RQ MERGED:  359914271
L1I RQ FORWARD:          0
L1I WQ ACCESS:          0
L1I WQ TO_CACHE:          0
L1I WQ MERGED:          0
L1I WQ FORWARD:          0
L2C TOTAL     ACCESS:  113700765  HIT:  110688645  MISS:    3012120
L2C LOAD      ACCESS:   64445134  HIT:   63875709  MISS:     569425
L2C RFO       ACCESS:    2803075  HIT:    2193776  MISS:     609299
L2C PREFETCH  ACCESS:   43291141  HIT:   41464043  MISS:    1827098
L2C WRITEBACK ACCESS:    3161415  HIT:    3155117  MISS:       6298
L2C PREFETCH  REQUESTED:   15133797  ISSUED:   14618078  USEFUL:    1701443  USELESS:     125655
L2C TOTAL MSHR MERGED:      10413
L2C LOAD MSHR MERGED:          0
L2C RFO MSHR MERGED:          0
L2C PREFETCH MSHR MERGED:      10413
L2C WRITEBACK MSHR MERGED:          0
L2C TOTAL ACCESSES:  113886225 HITS:  110694628 MISSES:    3191597
L2C LOAD ACCESSES:   64447041 HITS:   63877615 MISSES:     569426
L2C RFO ACCESSES:    2805062 HITS:    2195763 MISSES:     609299
L2C PREFETCH ACCESSES:   43472707 HITS:   41466133 MISSES:    2006574
L2C WRITEBACK ACCESSES:    3161415 HITS:    3155117 MISSES:       6298
L2C RQ ACCESS:   67252104
L2C RQ TO_CACHE:   67248211
L2C RQ MERGED:          0
L2C RQ FORWARD:          0
L2C WQ ACCESS:    3161415
L2C WQ TO_CACHE:    3161415
L2C WQ MERGED:          0
L2C WQ FORWARD:       5983
LLC TOTAL     ACCESS:    3707069  HIT:    2235096  MISS:    1471973
LLC LOAD      ACCESS:     569399  HIT:     536363  MISS:      33036
LLC RFO       ACCESS:     527287  HIT:     239187  MISS:     288100
LLC PREFETCH  ACCESS:    1992060  HIT:     929381  MISS:    1062679
LLC WRITEBACK ACCESS:     618323  HIT:     530165  MISS:      88158
LLC PREFETCH  REQUESTED:          0  ISSUED:          0  USEFUL:      81049  USELESS:     980054
LLC TOTAL MSHR MERGED:       3481
LLC LOAD MSHR MERGED:          0
LLC RFO MSHR MERGED:          0
LLC PREFETCH MSHR MERGED:       3481
LLC WRITEBACK MSHR MERGED:          0
LLC TOTAL ACCESSES:    3792669 HITS:    2317215 MISSES:    1475454
LLC LOAD ACCESSES:     569425 HITS:     536389 MISSES:      33036
LLC RFO ACCESSES:     609299 HITS:     321199 MISSES:     288100
LLC PREFETCH ACCESSES:    1995622 HITS:     929462 MISSES:    1066160
LLC WRITEBACK ACCESSES:     618323 HITS:     530165 MISSES:      88158
LLC 0 RQ ACCESS:    1178725
LLC 0 RQ TO_CACHE:    1096687
LLC 0 RQ MERGED:          0
LLC 0 RQ FORWARD:          0
LLC WQ ACCESS:     618323
LLC WQ TO_CACHE:     618323
LLC WQ MERGED:          0
LLC WQ FORWARD:      82119
Major fault: 0 Minor fault: 12800
CPU 0 L1D next line prefetcher final stats
CPU 0 L2C PC-based stride prefetcher final stats
All Misses: 1770913
All Hits: 2787220
SD Algo Stats - Switches: 0 SRR-Repls: 41205 BRR-Repls: 0

DRAM Statistics
 CHANNEL 0
 RQ ROW_BUFFER_HIT:     721775  ROW_BUFFER_MISS:     662040
 DBUS_CONGESTED:     793833
 WQ ROW_BUFFER_HIT:      38135  ROW_BUFFER_MISS:     252186  FULL:          0

 AVG_CONGESTED_CYCLE: 13
LOADS RETIRED: 239375970
INSTR RETIRED: 500000000
