
*** ChampSim Multicore Out-of-Order Simulator ***

Warmup Instructions: 100000000
Simulation Instructions: 500000000
Number of CPUs: 1
LLC sets: 2048
LLC ways: 16
Clean RRIP Policies: 1013112010131120 Dirty RRIP Policies: 2013210020132100 PSEL Width: 10 Track Set: 4294967295 PSEL Mask: 1 Demote Mask: 4340240143402401DS Algo: 0Window size: 0
Off-chip DRAM Size: 4096 MB Channels: 1 Width: 64-bit Data Rate: 1600 MT/s

CPU 0 runs /mnt/beegfs/iconst01/spec2017/Blender.trace.gz
NOT SORTED
TRACE STRING: /mnt/beegfs/iconst01/spec2017/Blender.trace.gz
SORTED
TRACE STRING: /mnt/beegfs/iconst01/spec2017/Blender.trace.gz
INITIAL
TRACE STRING: /mnt/beegfs/iconst01/spec2017/Blender.trace.gz

champsim_seed used: 700

CPU 0 L1D next line prefetcher
CPU 0 L2C IP-based stride prefetcher
Initialize DRRIP state
Assign rand_sets[0]: 454  LLC: 2048
rand_sets[0]: 454
Assign rand_sets[1]: 1662  LLC: 2048
rand_sets[1]: 1662
Assign rand_sets[2]: 1921  LLC: 2048
rand_sets[2]: 1921
Assign rand_sets[3]: 1131  LLC: 2048
rand_sets[3]: 1131
Assign rand_sets[4]: 331  LLC: 2048
rand_sets[4]: 331
Assign rand_sets[5]: 1531  LLC: 2048
rand_sets[5]: 1531
Assign rand_sets[6]: 482  LLC: 2048
rand_sets[6]: 482
Assign rand_sets[7]: 1275  LLC: 2048
rand_sets[7]: 1275
Assign rand_sets[8]: 1876  LLC: 2048
rand_sets[8]: 1876
Assign rand_sets[9]: 2038  LLC: 2048
rand_sets[9]: 2038
Assign rand_sets[10]: 701  LLC: 2048
rand_sets[10]: 701
Assign rand_sets[11]: 479  LLC: 2048
rand_sets[11]: 479
Assign rand_sets[12]: 892  LLC: 2048
rand_sets[12]: 892
Assign rand_sets[13]: 1820  LLC: 2048
rand_sets[13]: 1820
Assign rand_sets[14]: 1505  LLC: 2048
rand_sets[14]: 1505
Assign rand_sets[15]: 1159  LLC: 2048
rand_sets[15]: 1159
Assign rand_sets[16]: 513  LLC: 2048
rand_sets[16]: 513
Assign rand_sets[17]: 703  LLC: 2048
rand_sets[17]: 703
Assign rand_sets[18]: 561  LLC: 2048
rand_sets[18]: 561
Assign rand_sets[19]: 990  LLC: 2048
rand_sets[19]: 990
Assign rand_sets[20]: 342  LLC: 2048
rand_sets[20]: 342
Assign rand_sets[21]: 882  LLC: 2048
rand_sets[21]: 882
Assign rand_sets[22]: 15  LLC: 2048
rand_sets[22]: 15
Assign rand_sets[23]: 71  LLC: 2048
rand_sets[23]: 71
Assign rand_sets[24]: 1127  LLC: 2048
rand_sets[24]: 1127
Assign rand_sets[25]: 1382  LLC: 2048
rand_sets[25]: 1382
Assign rand_sets[26]: 647  LLC: 2048
rand_sets[26]: 647
Assign rand_sets[27]: 857  LLC: 2048
rand_sets[27]: 857
Assign rand_sets[28]: 1450  LLC: 2048
rand_sets[28]: 1450
Assign rand_sets[29]: 1160  LLC: 2048
rand_sets[29]: 1160
Assign rand_sets[30]: 1852  LLC: 2048
rand_sets[30]: 1852
Assign rand_sets[31]: 1881  LLC: 2048
rand_sets[31]: 1881
Assign rand_sets[32]: 1770  LLC: 2048
rand_sets[32]: 1770
Assign rand_sets[33]: 1622  LLC: 2048
rand_sets[33]: 1622
Assign rand_sets[34]: 275  LLC: 2048
rand_sets[34]: 275
Assign rand_sets[35]: 635  LLC: 2048
rand_sets[35]: 635
Assign rand_sets[36]: 466  LLC: 2048
rand_sets[36]: 466
Assign rand_sets[37]: 1413  LLC: 2048
rand_sets[37]: 1413
Assign rand_sets[38]: 417  LLC: 2048
rand_sets[38]: 417
Assign rand_sets[39]: 472  LLC: 2048
rand_sets[39]: 472
Assign rand_sets[40]: 1340  LLC: 2048
rand_sets[40]: 1340
Assign rand_sets[41]: 852  LLC: 2048
rand_sets[41]: 852
Assign rand_sets[42]: 1365  LLC: 2048
rand_sets[42]: 1365
Assign rand_sets[43]: 47  LLC: 2048
rand_sets[43]: 47
Assign rand_sets[44]: 823  LLC: 2048
rand_sets[44]: 823
Assign rand_sets[45]: 686  LLC: 2048
rand_sets[45]: 686
Assign rand_sets[46]: 1637  LLC: 2048
rand_sets[46]: 1637
Assign rand_sets[47]: 1115  LLC: 2048
rand_sets[47]: 1115
Assign rand_sets[48]: 986  LLC: 2048
rand_sets[48]: 986
Assign rand_sets[49]: 258  LLC: 2048
rand_sets[49]: 258
Assign rand_sets[50]: 633  LLC: 2048
rand_sets[50]: 633
Assign rand_sets[51]: 920  LLC: 2048
rand_sets[51]: 920
Assign rand_sets[52]: 204  LLC: 2048
rand_sets[52]: 204
Assign rand_sets[53]: 227  LLC: 2048
rand_sets[53]: 227
Assign rand_sets[54]: 1818  LLC: 2048
rand_sets[54]: 1818
Assign rand_sets[55]: 886  LLC: 2048
rand_sets[55]: 886
Assign rand_sets[56]: 1422  LLC: 2048
rand_sets[56]: 1422
Assign rand_sets[57]: 607  LLC: 2048
rand_sets[57]: 607
Assign rand_sets[58]: 217  LLC: 2048
rand_sets[58]: 217
Assign rand_sets[59]: 1945  LLC: 2048
rand_sets[59]: 1945
Assign rand_sets[60]: 143  LLC: 2048
rand_sets[60]: 143
Assign rand_sets[61]: 1311  LLC: 2048
rand_sets[61]: 1311
Assign rand_sets[62]: 319  LLC: 2048
rand_sets[62]: 319
Assign rand_sets[63]: 1846  LLC: 2048
rand_sets[63]: 1846
 CLEAN-RRIP-POLICY-1: 1-0-1-3-1-1-2-0- CLEAN-RRIP-POLICY-2: 1-0-1-3-1-1-2-0-
 DIRTY-RRIP-POLICY-1: 2-0-1-3-2-1-0-0- DIRTY-RRIP-POLICY-2: 2-0-1-3-2-1-0-0-
 PSEL width: 10
Heartbeat CPU 0 instructions: 10000002 cycles: 5480930 heartbeat IPC: 1.82451 cumulative IPC: 1.82451 (Simulation time: 0 hr 0 min 13 sec) 
Heartbeat CPU 0 instructions: 20000000 cycles: 10913532 heartbeat IPC: 1.84074 cumulative IPC: 1.83259 (Simulation time: 0 hr 0 min 26 sec) 
Heartbeat CPU 0 instructions: 30000000 cycles: 16447985 heartbeat IPC: 1.80686 cumulative IPC: 1.82393 (Simulation time: 0 hr 0 min 39 sec) 
Heartbeat CPU 0 instructions: 40000000 cycles: 21899954 heartbeat IPC: 1.8342 cumulative IPC: 1.82649 (Simulation time: 0 hr 0 min 53 sec) 
Heartbeat CPU 0 instructions: 50000000 cycles: 27403417 heartbeat IPC: 1.81704 cumulative IPC: 1.82459 (Simulation time: 0 hr 1 min 6 sec) 
Heartbeat CPU 0 instructions: 60000000 cycles: 32783508 heartbeat IPC: 1.8587 cumulative IPC: 1.83019 (Simulation time: 0 hr 1 min 19 sec) 
Heartbeat CPU 0 instructions: 70000001 cycles: 38341228 heartbeat IPC: 1.7993 cumulative IPC: 1.82571 (Simulation time: 0 hr 1 min 32 sec) 
Heartbeat CPU 0 instructions: 80000000 cycles: 43802372 heartbeat IPC: 1.83112 cumulative IPC: 1.82639 (Simulation time: 0 hr 1 min 45 sec) 
Heartbeat CPU 0 instructions: 90000000 cycles: 49251013 heartbeat IPC: 1.83532 cumulative IPC: 1.82737 (Simulation time: 0 hr 1 min 59 sec) 
Heartbeat CPU 0 instructions: 100000000 cycles: 54797720 heartbeat IPC: 1.80287 cumulative IPC: 1.82489 (Simulation time: 0 hr 2 min 12 sec) 

Warmup complete CPU 0 instructions: 100000002 cycles: 54797721 (Simulation time: 0 hr 2 min 12 sec) 

Heartbeat CPU 0 instructions: 110000001 cycles: 69750636 heartbeat IPC: 0.668766 cumulative IPC: 0.668766 (Simulation time: 0 hr 2 min 31 sec) 
Heartbeat CPU 0 instructions: 120000000 cycles: 85528231 heartbeat IPC: 0.63381 cumulative IPC: 0.650819 (Simulation time: 0 hr 2 min 51 sec) 
Heartbeat CPU 0 instructions: 130000000 cycles: 100615352 heartbeat IPC: 0.662817 cumulative IPC: 0.65477 (Simulation time: 0 hr 3 min 11 sec) 
Heartbeat CPU 0 instructions: 140000000 cycles: 115471189 heartbeat IPC: 0.673136 cumulative IPC: 0.659267 (Simulation time: 0 hr 3 min 30 sec) 
Heartbeat CPU 0 instructions: 150000000 cycles: 130927807 heartbeat IPC: 0.646972 cumulative IPC: 0.656771 (Simulation time: 0 hr 3 min 49 sec) 
Heartbeat CPU 0 instructions: 160000000 cycles: 146786041 heartbeat IPC: 0.630587 cumulative IPC: 0.652257 (Simulation time: 0 hr 4 min 9 sec) 
Heartbeat CPU 0 instructions: 170000001 cycles: 162372358 heartbeat IPC: 0.641588 cumulative IPC: 0.650711 (Simulation time: 0 hr 4 min 29 sec) 
Heartbeat CPU 0 instructions: 180000000 cycles: 178027315 heartbeat IPC: 0.638775 cumulative IPC: 0.649195 (Simulation time: 0 hr 4 min 48 sec) 
Heartbeat CPU 0 instructions: 190000002 cycles: 193109133 heartbeat IPC: 0.66305 cumulative IPC: 0.650706 (Simulation time: 0 hr 5 min 8 sec) 
Heartbeat CPU 0 instructions: 200000000 cycles: 208038648 heartbeat IPC: 0.669814 cumulative IPC: 0.652567 (Simulation time: 0 hr 5 min 27 sec) 
Heartbeat CPU 0 instructions: 210000003 cycles: 223195521 heartbeat IPC: 0.659767 cumulative IPC: 0.653215 (Simulation time: 0 hr 5 min 47 sec) 
Heartbeat CPU 0 instructions: 220000000 cycles: 238524585 heartbeat IPC: 0.652355 cumulative IPC: 0.653143 (Simulation time: 0 hr 6 min 7 sec) 
Heartbeat CPU 0 instructions: 230000001 cycles: 254394049 heartbeat IPC: 0.630141 cumulative IPC: 0.651315 (Simulation time: 0 hr 6 min 27 sec) 
Heartbeat CPU 0 instructions: 240000000 cycles: 270104788 heartbeat IPC: 0.636507 cumulative IPC: 0.650234 (Simulation time: 0 hr 6 min 46 sec) 
Heartbeat CPU 0 instructions: 250000003 cycles: 285566171 heartbeat IPC: 0.646773 cumulative IPC: 0.650002 (Simulation time: 0 hr 7 min 5 sec) 
Heartbeat CPU 0 instructions: 260000000 cycles: 301894612 heartbeat IPC: 0.612428 cumulative IPC: 0.647519 (Simulation time: 0 hr 7 min 25 sec) 
Heartbeat CPU 0 instructions: 270000003 cycles: 317103178 heartbeat IPC: 0.657524 cumulative IPC: 0.648099 (Simulation time: 0 hr 7 min 45 sec) 
Heartbeat CPU 0 instructions: 280000000 cycles: 332183934 heartbeat IPC: 0.663097 cumulative IPC: 0.648915 (Simulation time: 0 hr 8 min 4 sec) 
Heartbeat CPU 0 instructions: 290000002 cycles: 347213212 heartbeat IPC: 0.665368 cumulative IPC: 0.64976 (Simulation time: 0 hr 8 min 24 sec) 
Heartbeat CPU 0 instructions: 300000000 cycles: 363431278 heartbeat IPC: 0.616596 cumulative IPC: 0.648018 (Simulation time: 0 hr 8 min 44 sec) 
Heartbeat CPU 0 instructions: 310000000 cycles: 379170129 heartbeat IPC: 0.63537 cumulative IPC: 0.647404 (Simulation time: 0 hr 9 min 4 sec) 
Heartbeat CPU 0 instructions: 320000000 cycles: 394660123 heartbeat IPC: 0.645578 cumulative IPC: 0.647321 (Simulation time: 0 hr 9 min 23 sec) 
Heartbeat CPU 0 instructions: 330000000 cycles: 411399579 heartbeat IPC: 0.597391 cumulative IPC: 0.644977 (Simulation time: 0 hr 9 min 43 sec) 
Heartbeat CPU 0 instructions: 340000000 cycles: 426690009 heartbeat IPC: 0.654004 cumulative IPC: 0.645348 (Simulation time: 0 hr 10 min 2 sec) 
Heartbeat CPU 0 instructions: 350000000 cycles: 441927971 heartbeat IPC: 0.656256 cumulative IPC: 0.645777 (Simulation time: 0 hr 10 min 22 sec) 
Heartbeat CPU 0 instructions: 360000000 cycles: 457221717 heartbeat IPC: 0.653862 cumulative IPC: 0.646085 (Simulation time: 0 hr 10 min 41 sec) 
Heartbeat CPU 0 instructions: 370000002 cycles: 473508711 heartbeat IPC: 0.613987 cumulative IPC: 0.644836 (Simulation time: 0 hr 11 min 1 sec) 
Heartbeat CPU 0 instructions: 380000000 cycles: 489163460 heartbeat IPC: 0.638784 cumulative IPC: 0.644618 (Simulation time: 0 hr 11 min 20 sec) 
Heartbeat CPU 0 instructions: 390000003 cycles: 504788143 heartbeat IPC: 0.640013 cumulative IPC: 0.644458 (Simulation time: 0 hr 11 min 40 sec) 
Heartbeat CPU 0 instructions: 400000000 cycles: 521615037 heartbeat IPC: 0.594287 cumulative IPC: 0.64265 (Simulation time: 0 hr 12 min 0 sec) 
Heartbeat CPU 0 instructions: 410000001 cycles: 537395975 heartbeat IPC: 0.633676 cumulative IPC: 0.642356 (Simulation time: 0 hr 12 min 19 sec) 
Heartbeat CPU 0 instructions: 420000000 cycles: 552832487 heartbeat IPC: 0.647815 cumulative IPC: 0.642525 (Simulation time: 0 hr 12 min 38 sec) 
Heartbeat CPU 0 instructions: 430000000 cycles: 569144423 heartbeat IPC: 0.613048 cumulative IPC: 0.641591 (Simulation time: 0 hr 12 min 58 sec) 
Heartbeat CPU 0 instructions: 440000000 cycles: 584673354 heartbeat IPC: 0.643959 cumulative IPC: 0.64166 (Simulation time: 0 hr 13 min 17 sec) 
Heartbeat CPU 0 instructions: 450000000 cycles: 600371318 heartbeat IPC: 0.637025 cumulative IPC: 0.641527 (Simulation time: 0 hr 13 min 36 sec) 
Heartbeat CPU 0 instructions: 460000000 cycles: 617046358 heartbeat IPC: 0.599699 cumulative IPC: 0.640286 (Simulation time: 0 hr 13 min 56 sec) 
Heartbeat CPU 0 instructions: 470000000 cycles: 632900266 heartbeat IPC: 0.630759 cumulative IPC: 0.640025 (Simulation time: 0 hr 14 min 15 sec) 
Heartbeat CPU 0 instructions: 480000000 cycles: 648459432 heartbeat IPC: 0.642708 cumulative IPC: 0.640095 (Simulation time: 0 hr 14 min 34 sec) 
Heartbeat CPU 0 instructions: 490000002 cycles: 664544466 heartbeat IPC: 0.621696 cumulative IPC: 0.63961 (Simulation time: 0 hr 14 min 54 sec) 
Heartbeat CPU 0 instructions: 500000000 cycles: 680153454 heartbeat IPC: 0.640656 cumulative IPC: 0.639636 (Simulation time: 0 hr 15 min 13 sec) 
Heartbeat CPU 0 instructions: 510000001 cycles: 696041875 heartbeat IPC: 0.629389 cumulative IPC: 0.639382 (Simulation time: 0 hr 15 min 32 sec) 
Heartbeat CPU 0 instructions: 520000000 cycles: 712361658 heartbeat IPC: 0.612753 cumulative IPC: 0.638721 (Simulation time: 0 hr 15 min 51 sec) 
Heartbeat CPU 0 instructions: 530000001 cycles: 728656845 heartbeat IPC: 0.613678 cumulative IPC: 0.638116 (Simulation time: 0 hr 16 min 11 sec) 
Heartbeat CPU 0 instructions: 540000000 cycles: 743899272 heartbeat IPC: 0.656063 cumulative IPC: 0.638513 (Simulation time: 0 hr 16 min 30 sec) 
Heartbeat CPU 0 instructions: 550000001 cycles: 759929758 heartbeat IPC: 0.623811 cumulative IPC: 0.638178 (Simulation time: 0 hr 16 min 49 sec) 
Heartbeat CPU 0 instructions: 560000000 cycles: 775407613 heartbeat IPC: 0.646084 cumulative IPC: 0.638348 (Simulation time: 0 hr 17 min 8 sec) 
Heartbeat CPU 0 instructions: 570000002 cycles: 791410451 heartbeat IPC: 0.624889 cumulative IPC: 0.638056 (Simulation time: 0 hr 17 min 27 sec) 
Heartbeat CPU 0 instructions: 580000000 cycles: 807185690 heartbeat IPC: 0.633905 cumulative IPC: 0.637969 (Simulation time: 0 hr 17 min 46 sec) 
Heartbeat CPU 0 instructions: 590000001 cycles: 822895737 heartbeat IPC: 0.636535 cumulative IPC: 0.637939 (Simulation time: 0 hr 18 min 6 sec) 
Heartbeat CPU 0 instructions: 600000000 cycles: 838233213 heartbeat IPC: 0.651998 cumulative IPC: 0.638215 (Simulation time: 0 hr 18 min 25 sec) 
Finished CPU 0 instructions: 500000000 cycles: 783435500 cumulative IPC: 0.638215 (Simulation time: 0 hr 18 min 25 sec) 

CPU 0 Branch Prediction Accuracy: 93.7783% MPKI: 10.0718
Number of Branches: 80940586 Number of Mispredictions: 5035908
Number of LOAD Instructions: 184238101
Number of LOAD Instructions (ROI): 184238101
Number of STORE Instructions: 33143298
Number of STORE Instructions (ROI): 33143298
Total Destination Memory Operands: 33324321
Total Destination Memory Operands (ROI): 33324321
Total Source Memory Operands: 184238101
Total Source Memory Operands (ROI): 184238101
Number of DEPENDED LOADS: 4459843
Number of DEPENDED LOADS (ROI): 4459843
Number of SQ_ADDED: 33324292
Number of SQ_ADDED (ROI): 33324292
Number of LQ_ADDED: 184895176
Number of LQ_ADDED (ROI): 184895176
Number of Instructions read from trace: 600000256

ChampSim completed all CPUs

Region of Interest Statistics

CPU 0 cumulative IPC: 0.638215 instructions: 500000000 cycles: 783435500
ITLB TOTAL     ACCESS:   77763492  HIT:   77763492  MISS:          0
ITLB LOAD      ACCESS:   77763492  HIT:   77763492  MISS:          0
ITLB RFO       ACCESS:          0  HIT:          0  MISS:          0
ITLB PREFETCH  ACCESS:          0  HIT:          0  MISS:          0
ITLB WRITEBACK ACCESS:          0  HIT:          0  MISS:          0
ITLB PREFETCH  REQUESTED:          0  ISSUED:          0  USEFUL:          0  USELESS:          0
ITLB TOTAL MSHR MERGED:          0
ITLB LOAD MSHR MERGED:          0
ITLB RFO MSHR MERGED:          0
ITLB PREFETCH MSHR MERGED:          0
ITLB WRITEBACK MSHR MERGED:          0
ITLB TOTAL ACCESSES:   77763492 HITS:   77763492 MISSES:          0
ITLB LOAD ACCESSES:   77763492 HITS:   77763492 MISSES:          0
ITLB RFO ACCESSES:          0 HITS:          0 MISSES:          0
ITLB PREFETCH ACCESSES:          0 HITS:          0 MISSES:          0
ITLB WRITEBACK ACCESSES:          0 HITS:          0 MISSES:          0
ITLB RQ ACCESS:  500000245
ITLB RQ TO_CACHE:   77763492
ITLB RQ MERGED:  422236753
ITLB RQ FORWARD:          0
ITLB WQ ACCESS:          0
ITLB WQ TO_CACHE:          0
ITLB WQ MERGED:          0
ITLB WQ FORWARD:          0
DTLB TOTAL     ACCESS:   88447556  HIT:   87310705  MISS:    1136851
DTLB LOAD      ACCESS:   66320673  HIT:   65188062  MISS:    1132611
DTLB RFO       ACCESS:   22126883  HIT:   22122643  MISS:       4240
DTLB PREFETCH  ACCESS:          0  HIT:          0  MISS:          0
DTLB WRITEBACK ACCESS:          0  HIT:          0  MISS:          0
DTLB PREFETCH  REQUESTED:          0  ISSUED:          0  USEFUL:          0  USELESS:          0
DTLB TOTAL MSHR MERGED:     135697
DTLB LOAD MSHR MERGED:     133884
DTLB RFO MSHR MERGED:       1813
DTLB PREFETCH MSHR MERGED:          0
DTLB WRITEBACK MSHR MERGED:          0
DTLB TOTAL ACCESSES:   88583253 HITS:   87310705 MISSES:    1272548
DTLB LOAD ACCESSES:   66454557 HITS:   65188062 MISSES:    1266495
DTLB RFO ACCESSES:   22128696 HITS:   22122643 MISSES:       6053
DTLB PREFETCH ACCESSES:          0 HITS:          0 MISSES:          0
DTLB WRITEBACK ACCESSES:          0 HITS:          0 MISSES:          0
DTLB RQ ACCESS:  177580963
DTLB RQ TO_CACHE:   88583253
DTLB RQ MERGED:   88997710
DTLB RQ FORWARD:          0
DTLB WQ ACCESS:          0
DTLB WQ TO_CACHE:          0
DTLB WQ MERGED:          0
DTLB WQ FORWARD:          0
L1D TOTAL     ACCESS:  142098052  HIT:  136539020  MISS:    5559032
L1D LOAD      ACCESS:   61394163  HIT:   58284943  MISS:    3109220
L1D RFO       ACCESS:   27669769  HIT:   27588076  MISS:      81693
L1D PREFETCH  ACCESS:   53034120  HIT:   50666001  MISS:    2368119
L1D WRITEBACK ACCESS:          0  HIT:          0  MISS:          0
L1D PREFETCH  REQUESTED:   61687727  ISSUED:   60769463  USEFUL:     661253  USELESS:    1706871
L1D TOTAL MSHR MERGED:    1211858
L1D LOAD MSHR MERGED:     397202
L1D RFO MSHR MERGED:     163397
L1D PREFETCH MSHR MERGED:     651259
L1D WRITEBACK MSHR MERGED:          0
L1D TOTAL ACCESSES:  143407527 HITS:  136636637 MISSES:    6770890
L1D LOAD ACCESSES:   61687758 HITS:   58284974 MISSES:    3402784
L1D RFO ACCESSES:   27829363 HITS:   27588076 MISSES:     241287
L1D PREFETCH ACCESSES:   53890406 HITS:   50763587 MISSES:    3126819
L1D WRITEBACK ACCESSES:          0 HITS:          0 MISSES:          0
L1D RQ ACCESS:  149747997
L1D RQ TO_CACHE:   61687727
L1D RQ MERGED:   88060239
L1D RQ FORWARD:          0
L1D WQ ACCESS:   27832966
L1D WQ TO_CACHE:   27829363
L1D WQ MERGED:       3603
L1D WQ FORWARD:      97617
L1I TOTAL     ACCESS:   96236170  HIT:   96077157  MISS:     159013
L1I LOAD      ACCESS:   96236170  HIT:   96077157  MISS:     159013
L1I RFO       ACCESS:          0  HIT:          0  MISS:          0
L1I PREFETCH  ACCESS:          0  HIT:          0  MISS:          0
L1I WRITEBACK ACCESS:          0  HIT:          0  MISS:          0
L1I PREFETCH  REQUESTED:          0  ISSUED:          0  USEFUL:          0  USELESS:          0
L1I TOTAL MSHR MERGED:     132998
L1I LOAD MSHR MERGED:     132998
L1I RFO MSHR MERGED:          0
L1I PREFETCH MSHR MERGED:          0
L1I WRITEBACK MSHR MERGED:          0
L1I TOTAL ACCESSES:   96369168 HITS:   96077157 MISSES:     292011
L1I LOAD ACCESSES:   96369168 HITS:   96077157 MISSES:     292011
L1I RFO ACCESSES:          0 HITS:          0 MISSES:          0
L1I PREFETCH ACCESSES:          0 HITS:          0 MISSES:          0
L1I WRITEBACK ACCESSES:          0 HITS:          0 MISSES:          0
L1I RQ ACCESS:  500000245
L1I RQ TO_CACHE:   96369168
L1I RQ MERGED:  403631077
L1I RQ FORWARD:          0
L1I WQ ACCESS:          0
L1I WQ TO_CACHE:          0
L1I WQ MERGED:          0
L1I WQ FORWARD:          0
L2C TOTAL     ACCESS:    5910839  HIT:    3062459  MISS:    2848380
L2C LOAD      ACCESS:    3164585  HIT:    1583054  MISS:    1581531
L2C RFO       ACCESS:      77814  HIT:      45010  MISS:      32804
L2C PREFETCH  ACCESS:    2524916  HIT:    1296456  MISS:    1228460
L2C WRITEBACK ACCESS:     143524  HIT:     137939  MISS:       5585
L2C PREFETCH  REQUESTED:      52733  ISSUED:      52733  USEFUL:      18782  USELESS:    1209718
L2C TOTAL MSHR MERGED:       2421
L2C LOAD MSHR MERGED:        859
L2C RFO MSHR MERGED:          0
L2C PREFETCH MSHR MERGED:       1562
L2C WRITEBACK MSHR MERGED:          0
L2C TOTAL ACCESSES:    5913378 HITS:    3062545 MISSES:    2850833
L2C LOAD ACCESSES:    3164595 HITS:    1583064 MISSES:    1581531
L2C RFO ACCESSES:      77890 HITS:      45086 MISSES:      32804
L2C PREFETCH ACCESSES:    2527369 HITS:    1296456 MISSES:    1230913
L2C WRITEBACK ACCESSES:     143524 HITS:     137939 MISSES:       5585
L2C RQ ACCESS:    3242485
L2C RQ TO_CACHE:    3242399
L2C RQ MERGED:          0
L2C RQ FORWARD:          0
L2C WQ ACCESS:     143524
L2C WQ TO_CACHE:     143524
L2C WQ MERGED:          0
L2C WQ FORWARD:         86
LLC TOTAL     ACCESS:    2892367  HIT:    1401229  MISS:    1491138
LLC LOAD      ACCESS:    1580672  HIT:     852902  MISS:     727770
LLC RFO       ACCESS:      32798  HIT:      31056  MISS:       1742
LLC PREFETCH  ACCESS:    1229351  HIT:     476619  MISS:     752732
LLC WRITEBACK ACCESS:      49546  HIT:      40652  MISS:       8894
LLC PREFETCH  REQUESTED:          0  ISSUED:          0  USEFUL:       2965  USELESS:     749757
LLC TOTAL MSHR MERGED:          0
LLC LOAD MSHR MERGED:          0
LLC RFO MSHR MERGED:          0
LLC PREFETCH MSHR MERGED:          0
LLC WRITEBACK MSHR MERGED:          0
LLC TOTAL ACCESSES:    2892373 HITS:    1401235 MISSES:    1491138
LLC LOAD ACCESSES:    1580672 HITS:     852902 MISSES:     727770
LLC RFO ACCESSES:      32804 HITS:      31062 MISSES:       1742
LLC PREFETCH ACCESSES:    1229351 HITS:     476619 MISSES:     752732
LLC WRITEBACK ACCESSES:      49546 HITS:      40652 MISSES:       8894
LLC 0 RQ ACCESS:    1613476
LLC 0 RQ TO_CACHE:    1613470
LLC 0 RQ MERGED:          0
LLC 0 RQ FORWARD:          0
LLC WQ ACCESS:      49546
LLC WQ TO_CACHE:      49546
LLC WQ MERGED:          0
LLC WQ FORWARD:          6
Major fault: 0 Minor fault: 8460
CPU 0 L1D next line prefetcher final stats
CPU 0 L2C PC-based stride prefetcher final stats
All Misses: 1778649
All Hits: 1650313
SD Algo Stats - Switches: 0 SRR-Repls: 828204 BRR-Repls: 0

DRAM Statistics
 CHANNEL 0
 RQ ROW_BUFFER_HIT:     517512  ROW_BUFFER_MISS:     962742
 DBUS_CONGESTED:     434273
 WQ ROW_BUFFER_HIT:       2971  ROW_BUFFER_MISS:       6918  FULL:          0

 AVG_CONGESTED_CYCLE: 12
LOADS RETIRED: 153532848
INSTR RETIRED: 500000000
