
*** ChampSim Multicore Out-of-Order Simulator ***

Warmup Instructions: 100000000
Simulation Instructions: 500000000
Number of CPUs: 1
LLC sets: 2048
LLC ways: 16
Clean RRIP Policies: 1013112010131120 Dirty RRIP Policies: 2013210020132100 PSEL Width: 10 Track Set: 4294967295 PSEL Mask: 1 Demote Mask: 4340240143402401DS Algo: 0Window size: 0
Off-chip DRAM Size: 4096 MB Channels: 1 Width: 64-bit Data Rate: 1600 MT/s

CPU 0 runs /mnt/beegfs/iconst01/spec2017/cactuBSSN.trace.gz
NOT SORTED
TRACE STRING: /mnt/beegfs/iconst01/spec2017/cactuBSSN.trace.gz
SORTED
TRACE STRING: /mnt/beegfs/iconst01/spec2017/cactuBSSN.trace.gz
INITIAL
TRACE STRING: /mnt/beegfs/iconst01/spec2017/cactuBSSN.trace.gz

champsim_seed used: 838

CPU 0 L1D next line prefetcher
CPU 0 L2C IP-based stride prefetcher
Initialize DRRIP state
Assign rand_sets[0]: 454  LLC: 2048
rand_sets[0]: 454
Assign rand_sets[1]: 1662  LLC: 2048
rand_sets[1]: 1662
Assign rand_sets[2]: 1921  LLC: 2048
rand_sets[2]: 1921
Assign rand_sets[3]: 1131  LLC: 2048
rand_sets[3]: 1131
Assign rand_sets[4]: 331  LLC: 2048
rand_sets[4]: 331
Assign rand_sets[5]: 1531  LLC: 2048
rand_sets[5]: 1531
Assign rand_sets[6]: 482  LLC: 2048
rand_sets[6]: 482
Assign rand_sets[7]: 1275  LLC: 2048
rand_sets[7]: 1275
Assign rand_sets[8]: 1876  LLC: 2048
rand_sets[8]: 1876
Assign rand_sets[9]: 2038  LLC: 2048
rand_sets[9]: 2038
Assign rand_sets[10]: 701  LLC: 2048
rand_sets[10]: 701
Assign rand_sets[11]: 479  LLC: 2048
rand_sets[11]: 479
Assign rand_sets[12]: 892  LLC: 2048
rand_sets[12]: 892
Assign rand_sets[13]: 1820  LLC: 2048
rand_sets[13]: 1820
Assign rand_sets[14]: 1505  LLC: 2048
rand_sets[14]: 1505
Assign rand_sets[15]: 1159  LLC: 2048
rand_sets[15]: 1159
Assign rand_sets[16]: 513  LLC: 2048
rand_sets[16]: 513
Assign rand_sets[17]: 703  LLC: 2048
rand_sets[17]: 703
Assign rand_sets[18]: 561  LLC: 2048
rand_sets[18]: 561
Assign rand_sets[19]: 990  LLC: 2048
rand_sets[19]: 990
Assign rand_sets[20]: 342  LLC: 2048
rand_sets[20]: 342
Assign rand_sets[21]: 882  LLC: 2048
rand_sets[21]: 882
Assign rand_sets[22]: 15  LLC: 2048
rand_sets[22]: 15
Assign rand_sets[23]: 71  LLC: 2048
rand_sets[23]: 71
Assign rand_sets[24]: 1127  LLC: 2048
rand_sets[24]: 1127
Assign rand_sets[25]: 1382  LLC: 2048
rand_sets[25]: 1382
Assign rand_sets[26]: 647  LLC: 2048
rand_sets[26]: 647
Assign rand_sets[27]: 857  LLC: 2048
rand_sets[27]: 857
Assign rand_sets[28]: 1450  LLC: 2048
rand_sets[28]: 1450
Assign rand_sets[29]: 1160  LLC: 2048
rand_sets[29]: 1160
Assign rand_sets[30]: 1852  LLC: 2048
rand_sets[30]: 1852
Assign rand_sets[31]: 1881  LLC: 2048
rand_sets[31]: 1881
Assign rand_sets[32]: 1770  LLC: 2048
rand_sets[32]: 1770
Assign rand_sets[33]: 1622  LLC: 2048
rand_sets[33]: 1622
Assign rand_sets[34]: 275  LLC: 2048
rand_sets[34]: 275
Assign rand_sets[35]: 635  LLC: 2048
rand_sets[35]: 635
Assign rand_sets[36]: 466  LLC: 2048
rand_sets[36]: 466
Assign rand_sets[37]: 1413  LLC: 2048
rand_sets[37]: 1413
Assign rand_sets[38]: 417  LLC: 2048
rand_sets[38]: 417
Assign rand_sets[39]: 472  LLC: 2048
rand_sets[39]: 472
Assign rand_sets[40]: 1340  LLC: 2048
rand_sets[40]: 1340
Assign rand_sets[41]: 852  LLC: 2048
rand_sets[41]: 852
Assign rand_sets[42]: 1365  LLC: 2048
rand_sets[42]: 1365
Assign rand_sets[43]: 47  LLC: 2048
rand_sets[43]: 47
Assign rand_sets[44]: 823  LLC: 2048
rand_sets[44]: 823
Assign rand_sets[45]: 686  LLC: 2048
rand_sets[45]: 686
Assign rand_sets[46]: 1637  LLC: 2048
rand_sets[46]: 1637
Assign rand_sets[47]: 1115  LLC: 2048
rand_sets[47]: 1115
Assign rand_sets[48]: 986  LLC: 2048
rand_sets[48]: 986
Assign rand_sets[49]: 258  LLC: 2048
rand_sets[49]: 258
Assign rand_sets[50]: 633  LLC: 2048
rand_sets[50]: 633
Assign rand_sets[51]: 920  LLC: 2048
rand_sets[51]: 920
Assign rand_sets[52]: 204  LLC: 2048
rand_sets[52]: 204
Assign rand_sets[53]: 227  LLC: 2048
rand_sets[53]: 227
Assign rand_sets[54]: 1818  LLC: 2048
rand_sets[54]: 1818
Assign rand_sets[55]: 886  LLC: 2048
rand_sets[55]: 886
Assign rand_sets[56]: 1422  LLC: 2048
rand_sets[56]: 1422
Assign rand_sets[57]: 607  LLC: 2048
rand_sets[57]: 607
Assign rand_sets[58]: 217  LLC: 2048
rand_sets[58]: 217
Assign rand_sets[59]: 1945  LLC: 2048
rand_sets[59]: 1945
Assign rand_sets[60]: 143  LLC: 2048
rand_sets[60]: 143
Assign rand_sets[61]: 1311  LLC: 2048
rand_sets[61]: 1311
Assign rand_sets[62]: 319  LLC: 2048
rand_sets[62]: 319
Assign rand_sets[63]: 1846  LLC: 2048
rand_sets[63]: 1846
 CLEAN-RRIP-POLICY-1: 1-0-1-3-1-1-2-0- CLEAN-RRIP-POLICY-2: 1-0-1-3-1-1-2-0-
 DIRTY-RRIP-POLICY-1: 2-0-1-3-2-1-0-0- DIRTY-RRIP-POLICY-2: 2-0-1-3-2-1-0-0-
 PSEL width: 10
Heartbeat CPU 0 instructions: 10000000 cycles: 6588007 heartbeat IPC: 1.51791 cumulative IPC: 1.51791 (Simulation time: 0 hr 0 min 24 sec) 
Heartbeat CPU 0 instructions: 20000000 cycles: 13179662 heartbeat IPC: 1.51707 cumulative IPC: 1.51749 (Simulation time: 0 hr 0 min 49 sec) 
Heartbeat CPU 0 instructions: 30000003 cycles: 19773107 heartbeat IPC: 1.51666 cumulative IPC: 1.51721 (Simulation time: 0 hr 1 min 13 sec) 
Heartbeat CPU 0 instructions: 40000000 cycles: 26364918 heartbeat IPC: 1.51703 cumulative IPC: 1.51717 (Simulation time: 0 hr 1 min 38 sec) 
Heartbeat CPU 0 instructions: 50000001 cycles: 32957603 heartbeat IPC: 1.51683 cumulative IPC: 1.5171 (Simulation time: 0 hr 2 min 3 sec) 
Heartbeat CPU 0 instructions: 60000000 cycles: 39556420 heartbeat IPC: 1.51542 cumulative IPC: 1.51682 (Simulation time: 0 hr 2 min 28 sec) 
Heartbeat CPU 0 instructions: 70000003 cycles: 46154786 heartbeat IPC: 1.51553 cumulative IPC: 1.51664 (Simulation time: 0 hr 2 min 52 sec) 
Heartbeat CPU 0 instructions: 80000000 cycles: 52752852 heartbeat IPC: 1.5156 cumulative IPC: 1.51651 (Simulation time: 0 hr 3 min 17 sec) 
Heartbeat CPU 0 instructions: 90000002 cycles: 59348486 heartbeat IPC: 1.51615 cumulative IPC: 1.51647 (Simulation time: 0 hr 3 min 42 sec) 
Heartbeat CPU 0 instructions: 100000000 cycles: 65943500 heartbeat IPC: 1.5163 cumulative IPC: 1.51645 (Simulation time: 0 hr 4 min 7 sec) 

Warmup complete CPU 0 instructions: 100000002 cycles: 65943501 (Simulation time: 0 hr 4 min 7 sec) 

Heartbeat CPU 0 instructions: 110000000 cycles: 79203514 heartbeat IPC: 0.754147 cumulative IPC: 0.754147 (Simulation time: 0 hr 4 min 37 sec) 
Heartbeat CPU 0 instructions: 120000000 cycles: 92408986 heartbeat IPC: 0.757262 cumulative IPC: 0.755701 (Simulation time: 0 hr 5 min 8 sec) 
Heartbeat CPU 0 instructions: 130000001 cycles: 105691260 heartbeat IPC: 0.752883 cumulative IPC: 0.754759 (Simulation time: 0 hr 5 min 39 sec) 
Heartbeat CPU 0 instructions: 140000000 cycles: 118886804 heartbeat IPC: 0.757832 cumulative IPC: 0.755525 (Simulation time: 0 hr 6 min 9 sec) 
Heartbeat CPU 0 instructions: 150000001 cycles: 132078340 heartbeat IPC: 0.758062 cumulative IPC: 0.756031 (Simulation time: 0 hr 6 min 39 sec) 
Heartbeat CPU 0 instructions: 160000000 cycles: 145320209 heartbeat IPC: 0.75518 cumulative IPC: 0.755889 (Simulation time: 0 hr 7 min 10 sec) 
Heartbeat CPU 0 instructions: 170000000 cycles: 158537084 heartbeat IPC: 0.756608 cumulative IPC: 0.755992 (Simulation time: 0 hr 7 min 41 sec) 
Heartbeat CPU 0 instructions: 180000000 cycles: 171748125 heartbeat IPC: 0.756943 cumulative IPC: 0.756111 (Simulation time: 0 hr 8 min 11 sec) 
Heartbeat CPU 0 instructions: 190000000 cycles: 184916299 heartbeat IPC: 0.759407 cumulative IPC: 0.756475 (Simulation time: 0 hr 8 min 42 sec) 
Heartbeat CPU 0 instructions: 200000000 cycles: 198187159 heartbeat IPC: 0.753531 cumulative IPC: 0.75618 (Simulation time: 0 hr 9 min 12 sec) 
Heartbeat CPU 0 instructions: 210000002 cycles: 211407519 heartbeat IPC: 0.756409 cumulative IPC: 0.756201 (Simulation time: 0 hr 9 min 43 sec) 
Heartbeat CPU 0 instructions: 220000000 cycles: 224593474 heartbeat IPC: 0.758383 cumulative IPC: 0.756382 (Simulation time: 0 hr 10 min 13 sec) 
Heartbeat CPU 0 instructions: 230000003 cycles: 237846667 heartbeat IPC: 0.754535 cumulative IPC: 0.75624 (Simulation time: 0 hr 10 min 44 sec) 
Heartbeat CPU 0 instructions: 240000000 cycles: 251046782 heartbeat IPC: 0.757569 cumulative IPC: 0.756334 (Simulation time: 0 hr 11 min 14 sec) 
Heartbeat CPU 0 instructions: 250000001 cycles: 264281628 heartbeat IPC: 0.755581 cumulative IPC: 0.756284 (Simulation time: 0 hr 11 min 45 sec) 
Heartbeat CPU 0 instructions: 260000000 cycles: 277493381 heartbeat IPC: 0.756902 cumulative IPC: 0.756323 (Simulation time: 0 hr 12 min 15 sec) 
Heartbeat CPU 0 instructions: 270000003 cycles: 290741821 heartbeat IPC: 0.754806 cumulative IPC: 0.756233 (Simulation time: 0 hr 12 min 45 sec) 
Heartbeat CPU 0 instructions: 280000000 cycles: 303964693 heartbeat IPC: 0.756265 cumulative IPC: 0.756235 (Simulation time: 0 hr 13 min 15 sec) 
Heartbeat CPU 0 instructions: 290000000 cycles: 317146302 heartbeat IPC: 0.758633 cumulative IPC: 0.756361 (Simulation time: 0 hr 13 min 45 sec) 
Heartbeat CPU 0 instructions: 300000000 cycles: 330413741 heartbeat IPC: 0.753725 cumulative IPC: 0.756229 (Simulation time: 0 hr 14 min 15 sec) 
Heartbeat CPU 0 instructions: 310000001 cycles: 343591872 heartbeat IPC: 0.758833 cumulative IPC: 0.756352 (Simulation time: 0 hr 14 min 45 sec) 
Heartbeat CPU 0 instructions: 320000000 cycles: 356783192 heartbeat IPC: 0.758074 cumulative IPC: 0.75643 (Simulation time: 0 hr 15 min 15 sec) 
Heartbeat CPU 0 instructions: 330000002 cycles: 369997504 heartbeat IPC: 0.756755 cumulative IPC: 0.756445 (Simulation time: 0 hr 15 min 45 sec) 
Heartbeat CPU 0 instructions: 340000000 cycles: 383256846 heartbeat IPC: 0.754185 cumulative IPC: 0.75635 (Simulation time: 0 hr 16 min 15 sec) 
Heartbeat CPU 0 instructions: 350000000 cycles: 396523642 heartbeat IPC: 0.753761 cumulative IPC: 0.756246 (Simulation time: 0 hr 16 min 45 sec) 
Heartbeat CPU 0 instructions: 360000000 cycles: 409743840 heartbeat IPC: 0.756418 cumulative IPC: 0.756253 (Simulation time: 0 hr 17 min 15 sec) 
Heartbeat CPU 0 instructions: 370000002 cycles: 423025600 heartbeat IPC: 0.752912 cumulative IPC: 0.756129 (Simulation time: 0 hr 17 min 45 sec) 
Heartbeat CPU 0 instructions: 380000000 cycles: 436244935 heartbeat IPC: 0.756468 cumulative IPC: 0.756141 (Simulation time: 0 hr 18 min 15 sec) 
Heartbeat CPU 0 instructions: 390000000 cycles: 449424437 heartbeat IPC: 0.758754 cumulative IPC: 0.756231 (Simulation time: 0 hr 18 min 45 sec) 
Heartbeat CPU 0 instructions: 400000000 cycles: 462620983 heartbeat IPC: 0.757774 cumulative IPC: 0.756282 (Simulation time: 0 hr 19 min 14 sec) 
Heartbeat CPU 0 instructions: 410000001 cycles: 475874468 heartbeat IPC: 0.754519 cumulative IPC: 0.756225 (Simulation time: 0 hr 19 min 44 sec) 
Heartbeat CPU 0 instructions: 420000000 cycles: 489049540 heartbeat IPC: 0.759009 cumulative IPC: 0.756312 (Simulation time: 0 hr 20 min 14 sec) 
Heartbeat CPU 0 instructions: 430000001 cycles: 502239257 heartbeat IPC: 0.758166 cumulative IPC: 0.756368 (Simulation time: 0 hr 20 min 44 sec) 
Heartbeat CPU 0 instructions: 440000000 cycles: 515411455 heartbeat IPC: 0.759175 cumulative IPC: 0.75645 (Simulation time: 0 hr 21 min 14 sec) 
Heartbeat CPU 0 instructions: 450000002 cycles: 528730934 heartbeat IPC: 0.75078 cumulative IPC: 0.756287 (Simulation time: 0 hr 21 min 44 sec) 
Heartbeat CPU 0 instructions: 460000000 cycles: 541944672 heartbeat IPC: 0.756788 cumulative IPC: 0.756301 (Simulation time: 0 hr 22 min 13 sec) 
Heartbeat CPU 0 instructions: 470000003 cycles: 555139480 heartbeat IPC: 0.757874 cumulative IPC: 0.756343 (Simulation time: 0 hr 22 min 43 sec) 
Heartbeat CPU 0 instructions: 480000000 cycles: 568384064 heartbeat IPC: 0.755025 cumulative IPC: 0.756308 (Simulation time: 0 hr 23 min 13 sec) 
Heartbeat CPU 0 instructions: 490000000 cycles: 581606324 heartbeat IPC: 0.7563 cumulative IPC: 0.756308 (Simulation time: 0 hr 23 min 43 sec) 
Heartbeat CPU 0 instructions: 500000000 cycles: 594796083 heartbeat IPC: 0.758164 cumulative IPC: 0.756354 (Simulation time: 0 hr 24 min 13 sec) 
Heartbeat CPU 0 instructions: 510000001 cycles: 607984038 heartbeat IPC: 0.758268 cumulative IPC: 0.756401 (Simulation time: 0 hr 24 min 42 sec) 
Heartbeat CPU 0 instructions: 520000000 cycles: 621268941 heartbeat IPC: 0.752734 cumulative IPC: 0.756313 (Simulation time: 0 hr 25 min 12 sec) 
Heartbeat CPU 0 instructions: 530000000 cycles: 634518569 heartbeat IPC: 0.754738 cumulative IPC: 0.756277 (Simulation time: 0 hr 25 min 42 sec) 
Heartbeat CPU 0 instructions: 540000000 cycles: 647749998 heartbeat IPC: 0.755776 cumulative IPC: 0.756265 (Simulation time: 0 hr 26 min 12 sec) 
Heartbeat CPU 0 instructions: 550000002 cycles: 661019166 heartbeat IPC: 0.753627 cumulative IPC: 0.756206 (Simulation time: 0 hr 26 min 42 sec) 
Heartbeat CPU 0 instructions: 560000000 cycles: 674215768 heartbeat IPC: 0.757771 cumulative IPC: 0.75624 (Simulation time: 0 hr 27 min 12 sec) 
Heartbeat CPU 0 instructions: 570000001 cycles: 687430826 heartbeat IPC: 0.756713 cumulative IPC: 0.75625 (Simulation time: 0 hr 27 min 41 sec) 
Heartbeat CPU 0 instructions: 580000000 cycles: 700645323 heartbeat IPC: 0.756745 cumulative IPC: 0.756261 (Simulation time: 0 hr 28 min 11 sec) 
Heartbeat CPU 0 instructions: 590000003 cycles: 713878382 heartbeat IPC: 0.755683 cumulative IPC: 0.756249 (Simulation time: 0 hr 28 min 40 sec) 
Heartbeat CPU 0 instructions: 600000000 cycles: 727147912 heartbeat IPC: 0.753606 cumulative IPC: 0.756196 (Simulation time: 0 hr 29 min 9 sec) 
Finished CPU 0 instructions: 500000000 cycles: 661204421 cumulative IPC: 0.756196 (Simulation time: 0 hr 29 min 9 sec) 

CPU 0 Branch Prediction Accuracy: 99.968% MPKI: 0.002246
Number of Branches: 3513331 Number of Mispredictions: 1123
Number of LOAD Instructions: 287251172
Number of LOAD Instructions (ROI): 287251172
Number of STORE Instructions: 51060820
Number of STORE Instructions (ROI): 51060820
Total Destination Memory Operands: 51166221
Total Destination Memory Operands (ROI): 51166221
Total Source Memory Operands: 287251172
Total Source Memory Operands (ROI): 287251172
Number of DEPENDED LOADS: 9554419
Number of DEPENDED LOADS (ROI): 9554419
Number of SQ_ADDED: 51166208
Number of SQ_ADDED (ROI): 51166208
Number of LQ_ADDED: 290420886
Number of LQ_ADDED (ROI): 290420886
Number of Instructions read from trace: 600000257

ChampSim completed all CPUs

Region of Interest Statistics

CPU 0 cumulative IPC: 0.756196 instructions: 500000000 cycles: 661204421
ITLB TOTAL     ACCESS:  108966394  HIT:  108966394  MISS:          0
ITLB LOAD      ACCESS:  108966394  HIT:  108966394  MISS:          0
ITLB RFO       ACCESS:          0  HIT:          0  MISS:          0
ITLB PREFETCH  ACCESS:          0  HIT:          0  MISS:          0
ITLB WRITEBACK ACCESS:          0  HIT:          0  MISS:          0
ITLB PREFETCH  REQUESTED:          0  ISSUED:          0  USEFUL:          0  USELESS:          0
ITLB TOTAL MSHR MERGED:          0
ITLB LOAD MSHR MERGED:          0
ITLB RFO MSHR MERGED:          0
ITLB PREFETCH MSHR MERGED:          0
ITLB WRITEBACK MSHR MERGED:          0
ITLB TOTAL ACCESSES:  108966394 HITS:  108966394 MISSES:          0
ITLB LOAD ACCESSES:  108966394 HITS:  108966394 MISSES:          0
ITLB RFO ACCESSES:          0 HITS:          0 MISSES:          0
ITLB PREFETCH ACCESSES:          0 HITS:          0 MISSES:          0
ITLB WRITEBACK ACCESSES:          0 HITS:          0 MISSES:          0
ITLB RQ ACCESS:  500000001
ITLB RQ TO_CACHE:  108966394
ITLB RQ MERGED:  391033607
ITLB RQ FORWARD:          0
ITLB WQ ACCESS:          0
ITLB WQ TO_CACHE:          0
ITLB WQ MERGED:          0
ITLB WQ FORWARD:          0
DTLB TOTAL     ACCESS:  171133169  HIT:  161116842  MISS:   10016327
DTLB LOAD      ACCESS:  143472740  HIT:  135596663  MISS:    7876077
DTLB RFO       ACCESS:   27660429  HIT:   25520179  MISS:    2140250
DTLB PREFETCH  ACCESS:          0  HIT:          0  MISS:          0
DTLB WRITEBACK ACCESS:          0  HIT:          0  MISS:          0
DTLB PREFETCH  REQUESTED:          0  ISSUED:          0  USEFUL:          0  USELESS:          0
DTLB TOTAL MSHR MERGED:     360502
DTLB LOAD MSHR MERGED:     360502
DTLB RFO MSHR MERGED:          0
DTLB PREFETCH MSHR MERGED:          0
DTLB WRITEBACK MSHR MERGED:          0
DTLB TOTAL ACCESSES:  171493671 HITS:  161116842 MISSES:   10376829
DTLB LOAD ACCESSES:  143833242 HITS:  135596663 MISSES:    8236579
DTLB RFO ACCESSES:   27660429 HITS:   25520179 MISSES:    2140250
DTLB PREFETCH ACCESSES:          0 HITS:          0 MISSES:          0
DTLB WRITEBACK ACCESSES:          0 HITS:          0 MISSES:          0
DTLB RQ ACCESS:  274073402
DTLB RQ TO_CACHE:  171493671
DTLB RQ MERGED:  102579731
DTLB RQ FORWARD:          0
DTLB WQ ACCESS:          0
DTLB WQ TO_CACHE:          0
DTLB WQ MERGED:          0
DTLB WQ FORWARD:          0
L1D TOTAL     ACCESS:  350962694  HIT:  283760851  MISS:   67201843
L1D LOAD      ACCESS:  175624819  HIT:  142584033  MISS:   33040786
L1D RFO       ACCESS:   42020193  HIT:   39214695  MISS:    2805498
L1D PREFETCH  ACCESS:  133317682  HIT:  101962123  MISS:   31355559
L1D WRITEBACK ACCESS:          0  HIT:          0  MISS:          0
L1D PREFETCH  REQUESTED:  176229402  ISSUED:  175291025  USEFUL:    2180676  USELESS:   29174885
L1D TOTAL MSHR MERGED:    1483700
L1D LOAD MSHR MERGED:     704517
L1D RFO MSHR MERGED:     348927
L1D PREFETCH MSHR MERGED:     430256
L1D WRITEBACK MSHR MERGED:          0
L1D TOTAL ACCESSES:  352558413 HITS:  283872870 MISSES:   68685543
L1D LOAD ACCESSES:  176235591 HITS:  142590222 MISSES:   33645369
L1D RFO ACCESSES:   42368443 HITS:   39214695 MISSES:    3153748
L1D PREFETCH ACCESSES:  133954379 HITS:  102067953 MISSES:   31886426
L1D WRITEBACK ACCESSES:          0 HITS:          0 MISSES:          0
L1D RQ ACCESS:  231434929
L1D RQ TO_CACHE:  176229402
L1D RQ MERGED:   55199338
L1D RQ FORWARD:          0
L1D WQ ACCESS:   42638475
L1D WQ TO_CACHE:   42368443
L1D WQ MERGED:     270032
L1D WQ FORWARD:     112019
L1I TOTAL     ACCESS:  109355687  HIT:   77839983  MISS:   31515704
L1I LOAD      ACCESS:  109355687  HIT:   77839983  MISS:   31515704
L1I RFO       ACCESS:          0  HIT:          0  MISS:          0
L1I PREFETCH  ACCESS:          0  HIT:          0  MISS:          0
L1I WRITEBACK ACCESS:          0  HIT:          0  MISS:          0
L1I PREFETCH  REQUESTED:          0  ISSUED:          0  USEFUL:          0  USELESS:          0
L1I TOTAL MSHR MERGED:   30754361
L1I LOAD MSHR MERGED:   30754361
L1I RFO MSHR MERGED:          0
L1I PREFETCH MSHR MERGED:          0
L1I WRITEBACK MSHR MERGED:          0
L1I TOTAL ACCESSES:  140110050 HITS:   77839983 MISSES:   62270067
L1I LOAD ACCESSES:  140110050 HITS:   77839983 MISSES:   62270067
L1I RFO ACCESSES:          0 HITS:          0 MISSES:          0
L1I PREFETCH ACCESSES:          0 HITS:          0 MISSES:          0
L1I WRITEBACK ACCESSES:          0 HITS:          0 MISSES:          0
L1I RQ ACCESS:  500000003
L1I RQ TO_CACHE:  140110050
L1I RQ MERGED:  359889953
L1I RQ FORWARD:          0
L1I WQ ACCESS:          0
L1I WQ TO_CACHE:          0
L1I WQ MERGED:          0
L1I WQ FORWARD:          0
L2C TOTAL     ACCESS:  113705440  HIT:  110708931  MISS:    2996509
L2C LOAD      ACCESS:   64454712  HIT:   63897283  MISS:     557429
L2C RFO       ACCESS:    2802939  HIT:    2194481  MISS:     608458
L2C PREFETCH  ACCESS:   43286831  HIT:   41462457  MISS:    1824374
L2C WRITEBACK ACCESS:    3160958  HIT:    3154710  MISS:       6248
L2C PREFETCH  REQUESTED:   15134651  ISSUED:   14620394  USEFUL:    1699791  USELESS:     124596
L2C TOTAL MSHR MERGED:      12602
L2C LOAD MSHR MERGED:          0
L2C RFO MSHR MERGED:          0
L2C PREFETCH MSHR MERGED:      12602
L2C WRITEBACK MSHR MERGED:          0
L2C TOTAL ACCESSES:  113905166 HITS:  110714769 MISSES:    3190397
L2C LOAD ACCESSES:   64456557 HITS:   63899127 MISSES:     557430
L2C RFO ACCESSES:    2804821 HITS:    2196363 MISSES:     608458
L2C PREFETCH ACCESSES:   43482830 HITS:   41464569 MISSES:    2018261
L2C WRITEBACK ACCESSES:    3160958 HITS:    3154710 MISSES:       6248
L2C RQ ACCESS:   67261379
L2C RQ TO_CACHE:   67257653
L2C RQ MERGED:          0
L2C RQ FORWARD:          0
L2C WQ ACCESS:    3160958
L2C WQ TO_CACHE:    3160958
L2C WQ MERGED:          0
L2C WQ FORWARD:       5838
LLC TOTAL     ACCESS:    3702435  HIT:    2002370  MISS:    1700065
LLC LOAD      ACCESS:     557398  HIT:     483465  MISS:      73933
LLC RFO       ACCESS:     526797  HIT:     238273  MISS:     288524
LLC PREFETCH  ACCESS:    2000814  HIT:     679848  MISS:    1320966
LLC WRITEBACK ACCESS:     617426  HIT:     600784  MISS:      16642
LLC PREFETCH  REQUESTED:          0  ISSUED:          0  USEFUL:      44577  USELESS:    1271941
LLC TOTAL MSHR MERGED:       4201
LLC LOAD MSHR MERGED:          0
LLC RFO MSHR MERGED:          0
LLC PREFETCH MSHR MERGED:       4201
LLC WRITEBACK MSHR MERGED:          0
LLC TOTAL ACCESSES:    3788414 HITS:    2084148 MISSES:    1704266
LLC LOAD ACCESSES:     557429 HITS:     483496 MISSES:      73933
LLC RFO ACCESSES:     608458 HITS:     319934 MISSES:     288524
LLC PREFETCH ACCESSES:    2005101 HITS:     679934 MISSES:    1325167
LLC WRITEBACK ACCESSES:     617426 HITS:     600784 MISSES:      16642
LLC 0 RQ ACCESS:    1165888
LLC 0 RQ TO_CACHE:    1084196
LLC 0 RQ MERGED:          0
LLC 0 RQ FORWARD:          0
LLC WQ ACCESS:     617426
LLC WQ TO_CACHE:     617426
LLC WQ MERGED:          0
LLC WQ FORWARD:      81778
Major fault: 0 Minor fault: 12800
CPU 0 L1D next line prefetcher final stats
CPU 0 L2C PC-based stride prefetcher final stats
All Misses: 2062846
All Hits: 2490508
SD Algo Stats - Switches: 3 SRR-Repls: 74041 BRR-Repls: 20247

DRAM Statistics
 CHANNEL 0
 RQ ROW_BUFFER_HIT:     827226  ROW_BUFFER_MISS:     855811
 DBUS_CONGESTED:     896787
 WQ ROW_BUFFER_HIT:      36635  ROW_BUFFER_MISS:     267351  FULL:          0

 AVG_CONGESTED_CYCLE: 13
LOADS RETIRED: 239375970
INSTR RETIRED: 500000000
