
*** ChampSim Multicore Out-of-Order Simulator ***

Warmup Instructions: 100000000
Simulation Instructions: 500000000
Number of CPUs: 1
LLC sets: 2048
LLC ways: 16
Clean RRIP Policies: 1013112010131120 Dirty RRIP Policies: 2013210020132100 PSEL Width: 10 Track Set: 4294967295 PSEL Mask: 1 Demote Mask: 4340240143402401DS Algo: 0Window size: 0
Off-chip DRAM Size: 4096 MB Channels: 1 Width: 64-bit Data Rate: 1600 MT/s

CPU 0 runs /mnt/beegfs/iconst01/spec2017/Lbm.trace.gz
NOT SORTED
TRACE STRING: /mnt/beegfs/iconst01/spec2017/Lbm.trace.gz
SORTED
TRACE STRING: /mnt/beegfs/iconst01/spec2017/Lbm.trace.gz
INITIAL
TRACE STRING: /mnt/beegfs/iconst01/spec2017/Lbm.trace.gz

champsim_seed used: 283

CPU 0 L1D next line prefetcher
CPU 0 L2C IP-based stride prefetcher
Initialize DRRIP state
Assign rand_sets[0]: 454  LLC: 2048
rand_sets[0]: 454
Assign rand_sets[1]: 1662  LLC: 2048
rand_sets[1]: 1662
Assign rand_sets[2]: 1921  LLC: 2048
rand_sets[2]: 1921
Assign rand_sets[3]: 1131  LLC: 2048
rand_sets[3]: 1131
Assign rand_sets[4]: 331  LLC: 2048
rand_sets[4]: 331
Assign rand_sets[5]: 1531  LLC: 2048
rand_sets[5]: 1531
Assign rand_sets[6]: 482  LLC: 2048
rand_sets[6]: 482
Assign rand_sets[7]: 1275  LLC: 2048
rand_sets[7]: 1275
Assign rand_sets[8]: 1876  LLC: 2048
rand_sets[8]: 1876
Assign rand_sets[9]: 2038  LLC: 2048
rand_sets[9]: 2038
Assign rand_sets[10]: 701  LLC: 2048
rand_sets[10]: 701
Assign rand_sets[11]: 479  LLC: 2048
rand_sets[11]: 479
Assign rand_sets[12]: 892  LLC: 2048
rand_sets[12]: 892
Assign rand_sets[13]: 1820  LLC: 2048
rand_sets[13]: 1820
Assign rand_sets[14]: 1505  LLC: 2048
rand_sets[14]: 1505
Assign rand_sets[15]: 1159  LLC: 2048
rand_sets[15]: 1159
Assign rand_sets[16]: 513  LLC: 2048
rand_sets[16]: 513
Assign rand_sets[17]: 703  LLC: 2048
rand_sets[17]: 703
Assign rand_sets[18]: 561  LLC: 2048
rand_sets[18]: 561
Assign rand_sets[19]: 990  LLC: 2048
rand_sets[19]: 990
Assign rand_sets[20]: 342  LLC: 2048
rand_sets[20]: 342
Assign rand_sets[21]: 882  LLC: 2048
rand_sets[21]: 882
Assign rand_sets[22]: 15  LLC: 2048
rand_sets[22]: 15
Assign rand_sets[23]: 71  LLC: 2048
rand_sets[23]: 71
Assign rand_sets[24]: 1127  LLC: 2048
rand_sets[24]: 1127
Assign rand_sets[25]: 1382  LLC: 2048
rand_sets[25]: 1382
Assign rand_sets[26]: 647  LLC: 2048
rand_sets[26]: 647
Assign rand_sets[27]: 857  LLC: 2048
rand_sets[27]: 857
Assign rand_sets[28]: 1450  LLC: 2048
rand_sets[28]: 1450
Assign rand_sets[29]: 1160  LLC: 2048
rand_sets[29]: 1160
Assign rand_sets[30]: 1852  LLC: 2048
rand_sets[30]: 1852
Assign rand_sets[31]: 1881  LLC: 2048
rand_sets[31]: 1881
Assign rand_sets[32]: 1770  LLC: 2048
rand_sets[32]: 1770
Assign rand_sets[33]: 1622  LLC: 2048
rand_sets[33]: 1622
Assign rand_sets[34]: 275  LLC: 2048
rand_sets[34]: 275
Assign rand_sets[35]: 635  LLC: 2048
rand_sets[35]: 635
Assign rand_sets[36]: 466  LLC: 2048
rand_sets[36]: 466
Assign rand_sets[37]: 1413  LLC: 2048
rand_sets[37]: 1413
Assign rand_sets[38]: 417  LLC: 2048
rand_sets[38]: 417
Assign rand_sets[39]: 472  LLC: 2048
rand_sets[39]: 472
Assign rand_sets[40]: 1340  LLC: 2048
rand_sets[40]: 1340
Assign rand_sets[41]: 852  LLC: 2048
rand_sets[41]: 852
Assign rand_sets[42]: 1365  LLC: 2048
rand_sets[42]: 1365
Assign rand_sets[43]: 47  LLC: 2048
rand_sets[43]: 47
Assign rand_sets[44]: 823  LLC: 2048
rand_sets[44]: 823
Assign rand_sets[45]: 686  LLC: 2048
rand_sets[45]: 686
Assign rand_sets[46]: 1637  LLC: 2048
rand_sets[46]: 1637
Assign rand_sets[47]: 1115  LLC: 2048
rand_sets[47]: 1115
Assign rand_sets[48]: 986  LLC: 2048
rand_sets[48]: 986
Assign rand_sets[49]: 258  LLC: 2048
rand_sets[49]: 258
Assign rand_sets[50]: 633  LLC: 2048
rand_sets[50]: 633
Assign rand_sets[51]: 920  LLC: 2048
rand_sets[51]: 920
Assign rand_sets[52]: 204  LLC: 2048
rand_sets[52]: 204
Assign rand_sets[53]: 227  LLC: 2048
rand_sets[53]: 227
Assign rand_sets[54]: 1818  LLC: 2048
rand_sets[54]: 1818
Assign rand_sets[55]: 886  LLC: 2048
rand_sets[55]: 886
Assign rand_sets[56]: 1422  LLC: 2048
rand_sets[56]: 1422
Assign rand_sets[57]: 607  LLC: 2048
rand_sets[57]: 607
Assign rand_sets[58]: 217  LLC: 2048
rand_sets[58]: 217
Assign rand_sets[59]: 1945  LLC: 2048
rand_sets[59]: 1945
Assign rand_sets[60]: 143  LLC: 2048
rand_sets[60]: 143
Assign rand_sets[61]: 1311  LLC: 2048
rand_sets[61]: 1311
Assign rand_sets[62]: 319  LLC: 2048
rand_sets[62]: 319
Assign rand_sets[63]: 1846  LLC: 2048
rand_sets[63]: 1846
 CLEAN-RRIP-POLICY-1: 1-0-1-3-1-1-2-0- CLEAN-RRIP-POLICY-2: 1-0-1-3-1-1-2-0-
 DIRTY-RRIP-POLICY-1: 2-0-1-3-2-1-0-0- DIRTY-RRIP-POLICY-2: 2-0-1-3-2-1-0-0-
 PSEL width: 10
Heartbeat CPU 0 instructions: 10000000 cycles: 4321558 heartbeat IPC: 2.31398 cumulative IPC: 2.31398 (Simulation time: 0 hr 0 min 18 sec) 
Heartbeat CPU 0 instructions: 20000000 cycles: 8643636 heartbeat IPC: 2.3137 cumulative IPC: 2.31384 (Simulation time: 0 hr 0 min 36 sec) 
Heartbeat CPU 0 instructions: 30000000 cycles: 12965480 heartbeat IPC: 2.31383 cumulative IPC: 2.31384 (Simulation time: 0 hr 0 min 54 sec) 
Heartbeat CPU 0 instructions: 40000000 cycles: 17291381 heartbeat IPC: 2.31166 cumulative IPC: 2.31329 (Simulation time: 0 hr 1 min 12 sec) 
Heartbeat CPU 0 instructions: 50000000 cycles: 21613386 heartbeat IPC: 2.31374 cumulative IPC: 2.31338 (Simulation time: 0 hr 1 min 30 sec) 
Heartbeat CPU 0 instructions: 60000000 cycles: 25935337 heartbeat IPC: 2.31377 cumulative IPC: 2.31345 (Simulation time: 0 hr 1 min 47 sec) 
Heartbeat CPU 0 instructions: 70000000 cycles: 30256880 heartbeat IPC: 2.31399 cumulative IPC: 2.31352 (Simulation time: 0 hr 2 min 5 sec) 
Heartbeat CPU 0 instructions: 80000000 cycles: 34583142 heartbeat IPC: 2.31146 cumulative IPC: 2.31327 (Simulation time: 0 hr 2 min 23 sec) 
Heartbeat CPU 0 instructions: 90000003 cycles: 38905278 heartbeat IPC: 2.31367 cumulative IPC: 2.31331 (Simulation time: 0 hr 2 min 41 sec) 
Heartbeat CPU 0 instructions: 100000000 cycles: 43226860 heartbeat IPC: 2.31397 cumulative IPC: 2.31338 (Simulation time: 0 hr 2 min 59 sec) 

Warmup complete CPU 0 instructions: 100000001 cycles: 43226861 (Simulation time: 0 hr 2 min 59 sec) 

Heartbeat CPU 0 instructions: 110000000 cycles: 57967715 heartbeat IPC: 0.678387 cumulative IPC: 0.678387 (Simulation time: 0 hr 3 min 25 sec) 
Heartbeat CPU 0 instructions: 120000000 cycles: 72862508 heartbeat IPC: 0.671376 cumulative IPC: 0.674863 (Simulation time: 0 hr 3 min 52 sec) 
Heartbeat CPU 0 instructions: 130000000 cycles: 87716045 heartbeat IPC: 0.67324 cumulative IPC: 0.674321 (Simulation time: 0 hr 4 min 18 sec) 
Heartbeat CPU 0 instructions: 140000000 cycles: 102478663 heartbeat IPC: 0.677387 cumulative IPC: 0.675085 (Simulation time: 0 hr 4 min 44 sec) 
Heartbeat CPU 0 instructions: 150000003 cycles: 116861337 heartbeat IPC: 0.695281 cumulative IPC: 0.67903 (Simulation time: 0 hr 5 min 10 sec) 
Heartbeat CPU 0 instructions: 160000000 cycles: 131414822 heartbeat IPC: 0.68712 cumulative IPC: 0.680365 (Simulation time: 0 hr 5 min 36 sec) 
Heartbeat CPU 0 instructions: 170000002 cycles: 146223989 heartbeat IPC: 0.675258 cumulative IPC: 0.679631 (Simulation time: 0 hr 6 min 2 sec) 
Heartbeat CPU 0 instructions: 180000000 cycles: 161065131 heartbeat IPC: 0.673802 cumulative IPC: 0.678897 (Simulation time: 0 hr 6 min 28 sec) 
Heartbeat CPU 0 instructions: 190000003 cycles: 178940909 heartbeat IPC: 0.559416 cumulative IPC: 0.663159 (Simulation time: 0 hr 6 min 57 sec) 
Heartbeat CPU 0 instructions: 200000000 cycles: 200298103 heartbeat IPC: 0.468226 cumulative IPC: 0.636654 (Simulation time: 0 hr 7 min 30 sec) 
Heartbeat CPU 0 instructions: 210000001 cycles: 214990047 heartbeat IPC: 0.680645 cumulative IPC: 0.640417 (Simulation time: 0 hr 7 min 56 sec) 
Heartbeat CPU 0 instructions: 220000000 cycles: 229641000 heartbeat IPC: 0.682549 cumulative IPC: 0.643728 (Simulation time: 0 hr 8 min 22 sec) 
Heartbeat CPU 0 instructions: 230000001 cycles: 244618013 heartbeat IPC: 0.66769 cumulative IPC: 0.64551 (Simulation time: 0 hr 8 min 48 sec) 
Heartbeat CPU 0 instructions: 240000000 cycles: 259514618 heartbeat IPC: 0.671294 cumulative IPC: 0.647286 (Simulation time: 0 hr 9 min 15 sec) 
Heartbeat CPU 0 instructions: 250000000 cycles: 274701321 heartbeat IPC: 0.658471 cumulative IPC: 0.64802 (Simulation time: 0 hr 9 min 41 sec) 
Heartbeat CPU 0 instructions: 260000000 cycles: 289949109 heartbeat IPC: 0.655833 cumulative IPC: 0.648503 (Simulation time: 0 hr 10 min 8 sec) 
Heartbeat CPU 0 instructions: 270000002 cycles: 305621487 heartbeat IPC: 0.638065 cumulative IPC: 0.647879 (Simulation time: 0 hr 10 min 35 sec) 
Heartbeat CPU 0 instructions: 280000000 cycles: 321390098 heartbeat IPC: 0.634171 cumulative IPC: 0.647102 (Simulation time: 0 hr 11 min 2 sec) 
Heartbeat CPU 0 instructions: 290000003 cycles: 337783512 heartbeat IPC: 0.610001 cumulative IPC: 0.645037 (Simulation time: 0 hr 11 min 29 sec) 
Heartbeat CPU 0 instructions: 300000000 cycles: 353525127 heartbeat IPC: 0.635259 cumulative IPC: 0.644541 (Simulation time: 0 hr 11 min 57 sec) 
Heartbeat CPU 0 instructions: 310000000 cycles: 370199102 heartbeat IPC: 0.599737 cumulative IPC: 0.642256 (Simulation time: 0 hr 12 min 24 sec) 
Heartbeat CPU 0 instructions: 320000000 cycles: 386547311 heartbeat IPC: 0.611688 cumulative IPC: 0.640801 (Simulation time: 0 hr 12 min 51 sec) 
Heartbeat CPU 0 instructions: 330000002 cycles: 402331099 heartbeat IPC: 0.633562 cumulative IPC: 0.640483 (Simulation time: 0 hr 13 min 18 sec) 
Heartbeat CPU 0 instructions: 340000000 cycles: 418960574 heartbeat IPC: 0.601342 cumulative IPC: 0.63875 (Simulation time: 0 hr 13 min 45 sec) 
Heartbeat CPU 0 instructions: 350000001 cycles: 434657739 heartbeat IPC: 0.637058 cumulative IPC: 0.638682 (Simulation time: 0 hr 14 min 12 sec) 
Heartbeat CPU 0 instructions: 360000000 cycles: 450763887 heartbeat IPC: 0.620881 cumulative IPC: 0.637979 (Simulation time: 0 hr 14 min 39 sec) 
Heartbeat CPU 0 instructions: 370000000 cycles: 466279571 heartbeat IPC: 0.644509 cumulative IPC: 0.638218 (Simulation time: 0 hr 15 min 5 sec) 
Heartbeat CPU 0 instructions: 380000000 cycles: 481902566 heartbeat IPC: 0.640082 cumulative IPC: 0.638285 (Simulation time: 0 hr 15 min 32 sec) 
Heartbeat CPU 0 instructions: 390000000 cycles: 497010420 heartbeat IPC: 0.661907 cumulative IPC: 0.639071 (Simulation time: 0 hr 15 min 58 sec) 
Heartbeat CPU 0 instructions: 400000000 cycles: 512272649 heartbeat IPC: 0.655212 cumulative IPC: 0.639596 (Simulation time: 0 hr 16 min 24 sec) 
Heartbeat CPU 0 instructions: 410000000 cycles: 527147793 heartbeat IPC: 0.672262 cumulative IPC: 0.640601 (Simulation time: 0 hr 16 min 50 sec) 
Heartbeat CPU 0 instructions: 420000000 cycles: 541977509 heartbeat IPC: 0.674322 cumulative IPC: 0.641603 (Simulation time: 0 hr 17 min 15 sec) 
Heartbeat CPU 0 instructions: 430000002 cycles: 556496593 heartbeat IPC: 0.688749 cumulative IPC: 0.642937 (Simulation time: 0 hr 17 min 41 sec) 
Heartbeat CPU 0 instructions: 440000000 cycles: 571011799 heartbeat IPC: 0.688933 cumulative IPC: 0.644202 (Simulation time: 0 hr 18 min 6 sec) 
Heartbeat CPU 0 instructions: 450000000 cycles: 585961539 heartbeat IPC: 0.668908 cumulative IPC: 0.644882 (Simulation time: 0 hr 18 min 32 sec) 
Heartbeat CPU 0 instructions: 460000000 cycles: 600927142 heartbeat IPC: 0.668199 cumulative IPC: 0.645508 (Simulation time: 0 hr 18 min 58 sec) 
Heartbeat CPU 0 instructions: 470000000 cycles: 615836755 heartbeat IPC: 0.670708 cumulative IPC: 0.646164 (Simulation time: 0 hr 19 min 23 sec) 
Heartbeat CPU 0 instructions: 480000000 cycles: 630296686 heartbeat IPC: 0.691566 cumulative IPC: 0.647282 (Simulation time: 0 hr 19 min 49 sec) 
Heartbeat CPU 0 instructions: 490000001 cycles: 645223630 heartbeat IPC: 0.66993 cumulative IPC: 0.647844 (Simulation time: 0 hr 20 min 15 sec) 
Heartbeat CPU 0 instructions: 500000000 cycles: 659941320 heartbeat IPC: 0.679454 cumulative IPC: 0.648598 (Simulation time: 0 hr 20 min 40 sec) 
Heartbeat CPU 0 instructions: 510000002 cycles: 674645998 heartbeat IPC: 0.680056 cumulative IPC: 0.649331 (Simulation time: 0 hr 21 min 6 sec) 
Heartbeat CPU 0 instructions: 520000000 cycles: 689044314 heartbeat IPC: 0.694526 cumulative IPC: 0.650339 (Simulation time: 0 hr 21 min 31 sec) 
Heartbeat CPU 0 instructions: 530000001 cycles: 703733643 heartbeat IPC: 0.680766 cumulative IPC: 0.651015 (Simulation time: 0 hr 21 min 57 sec) 
Heartbeat CPU 0 instructions: 540000000 cycles: 718472267 heartbeat IPC: 0.678489 cumulative IPC: 0.651615 (Simulation time: 0 hr 22 min 22 sec) 
Heartbeat CPU 0 instructions: 550000003 cycles: 733202862 heartbeat IPC: 0.678859 cumulative IPC: 0.652197 (Simulation time: 0 hr 22 min 48 sec) 
Heartbeat CPU 0 instructions: 560000000 cycles: 748627152 heartbeat IPC: 0.648328 cumulative IPC: 0.652112 (Simulation time: 0 hr 23 min 14 sec) 
Heartbeat CPU 0 instructions: 570000001 cycles: 763399786 heartbeat IPC: 0.676927 cumulative IPC: 0.652621 (Simulation time: 0 hr 23 min 40 sec) 
Heartbeat CPU 0 instructions: 580000000 cycles: 778215056 heartbeat IPC: 0.674979 cumulative IPC: 0.653072 (Simulation time: 0 hr 24 min 5 sec) 
Heartbeat CPU 0 instructions: 590000003 cycles: 792310950 heartbeat IPC: 0.709427 cumulative IPC: 0.654132 (Simulation time: 0 hr 24 min 30 sec) 
Heartbeat CPU 0 instructions: 600000000 cycles: 806958640 heartbeat IPC: 0.682701 cumulative IPC: 0.65468 (Simulation time: 0 hr 24 min 56 sec) 
Finished CPU 0 instructions: 500000000 cycles: 763731787 cumulative IPC: 0.65468 (Simulation time: 0 hr 24 min 56 sec) 

CPU 0 Branch Prediction Accuracy: 99.5915% MPKI: 0.037126
Number of Branches: 4544106 Number of Mispredictions: 18563
Number of LOAD Instructions: 149787067
Number of LOAD Instructions (ROI): 149787067
Number of STORE Instructions: 77239062
Number of STORE Instructions (ROI): 77239062
Total Destination Memory Operands: 77239062
Total Destination Memory Operands (ROI): 77239062
Total Source Memory Operands: 149787067
Total Source Memory Operands (ROI): 149787067
Number of DEPENDED LOADS: 19254584
Number of DEPENDED LOADS (ROI): 19254584
Number of SQ_ADDED: 77239036
Number of SQ_ADDED (ROI): 77239036
Number of LQ_ADDED: 149787020
Number of LQ_ADDED (ROI): 149787020
Number of Instructions read from trace: 600000256

ChampSim completed all CPUs

Region of Interest Statistics

CPU 0 cumulative IPC: 0.65468 instructions: 500000000 cycles: 763731787
ITLB TOTAL     ACCESS:   86452488  HIT:   86452487  MISS:          1
ITLB LOAD      ACCESS:   86452488  HIT:   86452487  MISS:          1
ITLB RFO       ACCESS:          0  HIT:          0  MISS:          0
ITLB PREFETCH  ACCESS:          0  HIT:          0  MISS:          0
ITLB WRITEBACK ACCESS:          0  HIT:          0  MISS:          0
ITLB PREFETCH  REQUESTED:          0  ISSUED:          0  USEFUL:          0  USELESS:          0
ITLB TOTAL MSHR MERGED:          1
ITLB LOAD MSHR MERGED:          1
ITLB RFO MSHR MERGED:          0
ITLB PREFETCH MSHR MERGED:          0
ITLB WRITEBACK MSHR MERGED:          0
ITLB TOTAL ACCESSES:   86452489 HITS:   86452487 MISSES:          2
ITLB LOAD ACCESSES:   86452489 HITS:   86452487 MISSES:          2
ITLB RFO ACCESSES:          0 HITS:          0 MISSES:          0
ITLB PREFETCH ACCESSES:          0 HITS:          0 MISSES:          0
ITLB WRITEBACK ACCESSES:          0 HITS:          0 MISSES:          0
ITLB RQ ACCESS:  500000002
ITLB RQ TO_CACHE:   86452489
ITLB RQ MERGED:  413547513
ITLB RQ FORWARD:          0
ITLB WQ ACCESS:          0
ITLB WQ TO_CACHE:          0
ITLB WQ MERGED:          0
ITLB WQ FORWARD:          0
DTLB TOTAL     ACCESS:   98095071  HIT:   97909810  MISS:     185261
DTLB LOAD      ACCESS:   55034656  HIT:   54988345  MISS:      46311
DTLB RFO       ACCESS:   43060415  HIT:   42921465  MISS:     138950
DTLB PREFETCH  ACCESS:          0  HIT:          0  MISS:          0
DTLB WRITEBACK ACCESS:          0  HIT:          0  MISS:          0
DTLB PREFETCH  REQUESTED:          0  ISSUED:          0  USEFUL:          0  USELESS:          0
DTLB TOTAL MSHR MERGED:      83597
DTLB LOAD MSHR MERGED:      83592
DTLB RFO MSHR MERGED:          5
DTLB PREFETCH MSHR MERGED:          0
DTLB WRITEBACK MSHR MERGED:          0
DTLB TOTAL ACCESSES:   98178668 HITS:   97909810 MISSES:     268858
DTLB LOAD ACCESSES:   55118248 HITS:   54988345 MISSES:     129903
DTLB RFO ACCESSES:   43060420 HITS:   42921465 MISSES:     138955
DTLB PREFETCH ACCESSES:          0 HITS:          0 MISSES:          0
DTLB WRITEBACK ACCESSES:          0 HITS:          0 MISSES:          0
DTLB RQ ACCESS:  173627943
DTLB RQ TO_CACHE:   98178668
DTLB RQ MERGED:   75449275
DTLB RQ FORWARD:          0
DTLB WQ ACCESS:          0
DTLB WQ TO_CACHE:          0
DTLB WQ MERGED:          0
DTLB WQ FORWARD:          0
L1D TOTAL     ACCESS:  164448825  HIT:  144876256  MISS:   19572569
L1D LOAD      ACCESS:   60444651  HIT:   58593244  MISS:    1851407
L1D RFO       ACCESS:   64512552  HIT:   47910417  MISS:   16602135
L1D PREFETCH  ACCESS:   39491622  HIT:   38372595  MISS:    1119027
L1D WRITEBACK ACCESS:          0  HIT:          0  MISS:          0
L1D PREFETCH  REQUESTED:   61580523  ISSUED:   61289155  USEFUL:    1117107  USELESS:       1921
L1D TOTAL MSHR MERGED:    3474166
L1D LOAD MSHR MERGED:    1206559
L1D RFO MSHR MERGED:      11028
L1D PREFETCH MSHR MERGED:    2256579
L1D WRITEBACK MSHR MERGED:          0
L1D TOTAL ACCESSES:  168517164 HITS:  145470429 MISSES:   23046735
L1D LOAD ACCESSES:   61868107 HITS:   58880828 MISSES:    2987279
L1D RFO ACCESSES:   64523543 HITS:   47910417 MISSES:   16613126
L1D PREFETCH ACCESSES:   42125514 HITS:   38679184 MISSES:    3446330
L1D WRITEBACK ACCESSES:          0 HITS:          0 MISSES:          0
L1D RQ ACCESS:  109086628
L1D RQ TO_CACHE:   61580523
L1D RQ MERGED:   47218521
L1D RQ FORWARD:          0
L1D WQ ACCESS:   64541313
L1D WQ TO_CACHE:   64523544
L1D WQ MERGED:      17769
L1D WQ FORWARD:     594173
L1I TOTAL     ACCESS:  107760992  HIT:  107760984  MISS:          8
L1I LOAD      ACCESS:  107760992  HIT:  107760984  MISS:          8
L1I RFO       ACCESS:          0  HIT:          0  MISS:          0
L1I PREFETCH  ACCESS:          0  HIT:          0  MISS:          0
L1I WRITEBACK ACCESS:          0  HIT:          0  MISS:          0
L1I PREFETCH  REQUESTED:          0  ISSUED:          0  USEFUL:          0  USELESS:          0
L1I TOTAL MSHR MERGED:          3
L1I LOAD MSHR MERGED:          3
L1I RFO MSHR MERGED:          0
L1I PREFETCH MSHR MERGED:          0
L1I WRITEBACK MSHR MERGED:          0
L1I TOTAL ACCESSES:  107760995 HITS:  107760984 MISSES:         11
L1I LOAD ACCESSES:  107760995 HITS:  107760984 MISSES:         11
L1I RFO ACCESSES:          0 HITS:          0 MISSES:          0
L1I PREFETCH ACCESSES:          0 HITS:          0 MISSES:          0
L1I WRITEBACK ACCESSES:          0 HITS:          0 MISSES:          0
L1I RQ ACCESS:  500000007
L1I RQ TO_CACHE:  107760995
L1I RQ MERGED:  392239012
L1I RQ FORWARD:          0
L1I WQ ACCESS:          0
L1I WQ TO_CACHE:          0
L1I WQ MERGED:          0
L1I WQ FORWARD:          0
L2C TOTAL     ACCESS:   36779014  HIT:   24821428  MISS:   11957586
L2C LOAD      ACCESS:    1780728  HIT:     244812  MISS:    1535916
L2C RFO       ACCESS:   16602097  HIT:    7610724  MISS:    8991373
L2C PREFETCH  ACCESS:    1793999  HIT:     364927  MISS:    1429072
L2C WRITEBACK ACCESS:   16602190  HIT:   16600965  MISS:       1225
L2C PREFETCH  REQUESTED:     812521  ISSUED:     812521  USEFUL:     242479  USELESS:    1186874
L2C TOTAL MSHR MERGED:       2444
L2C LOAD MSHR MERGED:        562
L2C RFO MSHR MERGED:          0
L2C PREFETCH MSHR MERGED:       1882
L2C WRITEBACK MSHR MERGED:          0
L2C TOTAL ACCESSES:   36987233 HITS:   24821430 MISSES:   12165803
L2C LOAD ACCESSES:    1780728 HITS:     244812 MISSES:    1535916
L2C RFO ACCESSES:   16602098 HITS:    7610726 MISSES:    8991372
L2C PREFETCH ACCESSES:    2002217 HITS:     364927 MISSES:    1637290
L2C WRITEBACK ACCESSES:   16602190 HITS:   16600965 MISSES:       1225
L2C RQ ACCESS:   18382826
L2C RQ TO_CACHE:   18382824
L2C RQ MERGED:          0
L2C RQ FORWARD:          0
L2C WQ ACCESS:   16602190
L2C WQ TO_CACHE:   16602190
L2C WQ MERGED:          0
L2C WQ FORWARD:          2
LLC TOTAL     ACCESS:   21150940  HIT:    5280157  MISS:   15870783
LLC LOAD      ACCESS:    1535354  HIT:      74362  MISS:    1460992
LLC RFO       ACCESS:    8991367  HIT:     131387  MISS:    8859980
LLC PREFETCH  ACCESS:    1632025  HIT:     127714  MISS:    1504311
LLC WRITEBACK ACCESS:    8992194  HIT:    4946694  MISS:    4045500
LLC PREFETCH  REQUESTED:          0  ISSUED:          0  USEFUL:      74232  USELESS:    1429950
LLC TOTAL MSHR MERGED:       3021
LLC LOAD MSHR MERGED:        235
LLC RFO MSHR MERGED:          0
LLC PREFETCH MSHR MERGED:       2786
LLC WRITEBACK MSHR MERGED:          0
LLC TOTAL ACCESSES:   21153968 HITS:    5280164 MISSES:   15873804
LLC LOAD ACCESSES:    1535354 HITS:      74362 MISSES:    1460992
LLC RFO ACCESSES:    8991372 HITS:     131393 MISSES:    8859979
LLC PREFETCH ACCESSES:    1635048 HITS:     127715 MISSES:    1507333
LLC WRITEBACK ACCESSES:    8992194 HITS:    4946694 MISSES:    4045500
LLC 0 RQ ACCESS:   10526726
LLC 0 RQ TO_CACHE:   10526720
LLC 0 RQ MERGED:          0
LLC 0 RQ FORWARD:          0
LLC WQ ACCESS:    8992194
LLC WQ TO_CACHE:    8992194
LLC WQ MERGED:          0
LLC WQ FORWARD:          7
Major fault: 0 Minor fault: 102360
CPU 0 L1D next line prefetcher final stats
CPU 0 L2C PC-based stride prefetcher final stats
All Misses: 18907881
All Hits: 6218570
SD Algo Stats - Switches: 0 SRR-Repls: 1639595 BRR-Repls: 0

DRAM Statistics
 CHANNEL 0
 RQ ROW_BUFFER_HIT:    3525116  ROW_BUFFER_MISS:    8299998
 DBUS_CONGESTED:   14350185
 WQ ROW_BUFFER_HIT:     978129  ROW_BUFFER_MISS:    7947376  FULL:          0

 AVG_CONGESTED_CYCLE: 13
LOADS RETIRED: 124982196
INSTR RETIRED: 500000000
