
*** ChampSim Multicore Out-of-Order Simulator ***

Warmup Instructions: 100000000
Simulation Instructions: 500000000
Number of CPUs: 1
LLC sets: 2048
LLC ways: 16
Clean RRIP Policies: 1013112010131120 Dirty RRIP Policies: 2013210020132100 PSEL Width: 10 Track Set: 4294967295 PSEL Mask: 1 Demote Mask: 4340240143402401DS Algo: 0Window size: 0
Off-chip DRAM Size: 4096 MB Channels: 1 Width: 64-bit Data Rate: 1600 MT/s

CPU 0 runs /mnt/beegfs/iconst01/spec2017/x264.trace.gz
NOT SORTED
TRACE STRING: /mnt/beegfs/iconst01/spec2017/x264.trace.gz
SORTED
TRACE STRING: /mnt/beegfs/iconst01/spec2017/x264.trace.gz
INITIAL
TRACE STRING: /mnt/beegfs/iconst01/spec2017/x264.trace.gz

champsim_seed used: 276

CPU 0 L1D next line prefetcher
CPU 0 L2C IP-based stride prefetcher
Initialize DRRIP state
Assign rand_sets[0]: 454  LLC: 2048
rand_sets[0]: 454
Assign rand_sets[1]: 1662  LLC: 2048
rand_sets[1]: 1662
Assign rand_sets[2]: 1921  LLC: 2048
rand_sets[2]: 1921
Assign rand_sets[3]: 1131  LLC: 2048
rand_sets[3]: 1131
Assign rand_sets[4]: 331  LLC: 2048
rand_sets[4]: 331
Assign rand_sets[5]: 1531  LLC: 2048
rand_sets[5]: 1531
Assign rand_sets[6]: 482  LLC: 2048
rand_sets[6]: 482
Assign rand_sets[7]: 1275  LLC: 2048
rand_sets[7]: 1275
Assign rand_sets[8]: 1876  LLC: 2048
rand_sets[8]: 1876
Assign rand_sets[9]: 2038  LLC: 2048
rand_sets[9]: 2038
Assign rand_sets[10]: 701  LLC: 2048
rand_sets[10]: 701
Assign rand_sets[11]: 479  LLC: 2048
rand_sets[11]: 479
Assign rand_sets[12]: 892  LLC: 2048
rand_sets[12]: 892
Assign rand_sets[13]: 1820  LLC: 2048
rand_sets[13]: 1820
Assign rand_sets[14]: 1505  LLC: 2048
rand_sets[14]: 1505
Assign rand_sets[15]: 1159  LLC: 2048
rand_sets[15]: 1159
Assign rand_sets[16]: 513  LLC: 2048
rand_sets[16]: 513
Assign rand_sets[17]: 703  LLC: 2048
rand_sets[17]: 703
Assign rand_sets[18]: 561  LLC: 2048
rand_sets[18]: 561
Assign rand_sets[19]: 990  LLC: 2048
rand_sets[19]: 990
Assign rand_sets[20]: 342  LLC: 2048
rand_sets[20]: 342
Assign rand_sets[21]: 882  LLC: 2048
rand_sets[21]: 882
Assign rand_sets[22]: 15  LLC: 2048
rand_sets[22]: 15
Assign rand_sets[23]: 71  LLC: 2048
rand_sets[23]: 71
Assign rand_sets[24]: 1127  LLC: 2048
rand_sets[24]: 1127
Assign rand_sets[25]: 1382  LLC: 2048
rand_sets[25]: 1382
Assign rand_sets[26]: 647  LLC: 2048
rand_sets[26]: 647
Assign rand_sets[27]: 857  LLC: 2048
rand_sets[27]: 857
Assign rand_sets[28]: 1450  LLC: 2048
rand_sets[28]: 1450
Assign rand_sets[29]: 1160  LLC: 2048
rand_sets[29]: 1160
Assign rand_sets[30]: 1852  LLC: 2048
rand_sets[30]: 1852
Assign rand_sets[31]: 1881  LLC: 2048
rand_sets[31]: 1881
Assign rand_sets[32]: 1770  LLC: 2048
rand_sets[32]: 1770
Assign rand_sets[33]: 1622  LLC: 2048
rand_sets[33]: 1622
Assign rand_sets[34]: 275  LLC: 2048
rand_sets[34]: 275
Assign rand_sets[35]: 635  LLC: 2048
rand_sets[35]: 635
Assign rand_sets[36]: 466  LLC: 2048
rand_sets[36]: 466
Assign rand_sets[37]: 1413  LLC: 2048
rand_sets[37]: 1413
Assign rand_sets[38]: 417  LLC: 2048
rand_sets[38]: 417
Assign rand_sets[39]: 472  LLC: 2048
rand_sets[39]: 472
Assign rand_sets[40]: 1340  LLC: 2048
rand_sets[40]: 1340
Assign rand_sets[41]: 852  LLC: 2048
rand_sets[41]: 852
Assign rand_sets[42]: 1365  LLC: 2048
rand_sets[42]: 1365
Assign rand_sets[43]: 47  LLC: 2048
rand_sets[43]: 47
Assign rand_sets[44]: 823  LLC: 2048
rand_sets[44]: 823
Assign rand_sets[45]: 686  LLC: 2048
rand_sets[45]: 686
Assign rand_sets[46]: 1637  LLC: 2048
rand_sets[46]: 1637
Assign rand_sets[47]: 1115  LLC: 2048
rand_sets[47]: 1115
Assign rand_sets[48]: 986  LLC: 2048
rand_sets[48]: 986
Assign rand_sets[49]: 258  LLC: 2048
rand_sets[49]: 258
Assign rand_sets[50]: 633  LLC: 2048
rand_sets[50]: 633
Assign rand_sets[51]: 920  LLC: 2048
rand_sets[51]: 920
Assign rand_sets[52]: 204  LLC: 2048
rand_sets[52]: 204
Assign rand_sets[53]: 227  LLC: 2048
rand_sets[53]: 227
Assign rand_sets[54]: 1818  LLC: 2048
rand_sets[54]: 1818
Assign rand_sets[55]: 886  LLC: 2048
rand_sets[55]: 886
Assign rand_sets[56]: 1422  LLC: 2048
rand_sets[56]: 1422
Assign rand_sets[57]: 607  LLC: 2048
rand_sets[57]: 607
Assign rand_sets[58]: 217  LLC: 2048
rand_sets[58]: 217
Assign rand_sets[59]: 1945  LLC: 2048
rand_sets[59]: 1945
Assign rand_sets[60]: 143  LLC: 2048
rand_sets[60]: 143
Assign rand_sets[61]: 1311  LLC: 2048
rand_sets[61]: 1311
Assign rand_sets[62]: 319  LLC: 2048
rand_sets[62]: 319
Assign rand_sets[63]: 1846  LLC: 2048
rand_sets[63]: 1846
 CLEAN-RRIP-POLICY-1: 1-0-1-3-1-1-2-0- CLEAN-RRIP-POLICY-2: 1-0-1-3-1-1-2-0-
 DIRTY-RRIP-POLICY-1: 2-0-1-3-2-1-0-0- DIRTY-RRIP-POLICY-2: 2-0-1-3-2-1-0-0-
 PSEL width: 10
Heartbeat CPU 0 instructions: 10000000 cycles: 4124759 heartbeat IPC: 2.42438 cumulative IPC: 2.42438 (Simulation time: 0 hr 0 min 14 sec) 
Heartbeat CPU 0 instructions: 20000000 cycles: 8233861 heartbeat IPC: 2.43362 cumulative IPC: 2.42899 (Simulation time: 0 hr 0 min 27 sec) 
Heartbeat CPU 0 instructions: 30000003 cycles: 12464693 heartbeat IPC: 2.3636 cumulative IPC: 2.4068 (Simulation time: 0 hr 0 min 40 sec) 
Heartbeat CPU 0 instructions: 40000000 cycles: 16636681 heartbeat IPC: 2.39694 cumulative IPC: 2.40433 (Simulation time: 0 hr 0 min 54 sec) 
Heartbeat CPU 0 instructions: 50000000 cycles: 20699193 heartbeat IPC: 2.46153 cumulative IPC: 2.41555 (Simulation time: 0 hr 1 min 7 sec) 
Heartbeat CPU 0 instructions: 60000000 cycles: 25022734 heartbeat IPC: 2.31292 cumulative IPC: 2.39782 (Simulation time: 0 hr 1 min 20 sec) 
Heartbeat CPU 0 instructions: 70000000 cycles: 29371154 heartbeat IPC: 2.29969 cumulative IPC: 2.38329 (Simulation time: 0 hr 1 min 33 sec) 
Heartbeat CPU 0 instructions: 80000000 cycles: 33721326 heartbeat IPC: 2.29876 cumulative IPC: 2.37239 (Simulation time: 0 hr 1 min 46 sec) 
Heartbeat CPU 0 instructions: 90000002 cycles: 38032359 heartbeat IPC: 2.31963 cumulative IPC: 2.36641 (Simulation time: 0 hr 1 min 59 sec) 
Heartbeat CPU 0 instructions: 100000000 cycles: 42329323 heartbeat IPC: 2.32722 cumulative IPC: 2.36243 (Simulation time: 0 hr 2 min 13 sec) 

Warmup complete CPU 0 instructions: 100000001 cycles: 42329324 (Simulation time: 0 hr 2 min 13 sec) 

Heartbeat CPU 0 instructions: 110000001 cycles: 49414340 heartbeat IPC: 1.41143 cumulative IPC: 1.41143 (Simulation time: 0 hr 2 min 30 sec) 
Heartbeat CPU 0 instructions: 120000000 cycles: 58957374 heartbeat IPC: 1.04788 cumulative IPC: 1.20279 (Simulation time: 0 hr 2 min 49 sec) 
Heartbeat CPU 0 instructions: 130000000 cycles: 63781201 heartbeat IPC: 2.07304 cumulative IPC: 1.39848 (Simulation time: 0 hr 3 min 6 sec) 
Heartbeat CPU 0 instructions: 140000000 cycles: 68683785 heartbeat IPC: 2.03974 cumulative IPC: 1.51777 (Simulation time: 0 hr 3 min 22 sec) 
Heartbeat CPU 0 instructions: 150000002 cycles: 75521195 heartbeat IPC: 1.46254 cumulative IPC: 1.50639 (Simulation time: 0 hr 3 min 40 sec) 
Heartbeat CPU 0 instructions: 160000000 cycles: 83366039 heartbeat IPC: 1.27472 cumulative IPC: 1.46211 (Simulation time: 0 hr 3 min 58 sec) 
Heartbeat CPU 0 instructions: 170000000 cycles: 90782020 heartbeat IPC: 1.34844 cumulative IPC: 1.44471 (Simulation time: 0 hr 4 min 15 sec) 
Heartbeat CPU 0 instructions: 180000000 cycles: 98096505 heartbeat IPC: 1.36715 cumulative IPC: 1.43454 (Simulation time: 0 hr 4 min 32 sec) 
Heartbeat CPU 0 instructions: 190000002 cycles: 105280632 heartbeat IPC: 1.39196 cumulative IPC: 1.42968 (Simulation time: 0 hr 4 min 49 sec) 
Heartbeat CPU 0 instructions: 200000000 cycles: 112527213 heartbeat IPC: 1.37996 cumulative IPC: 1.42454 (Simulation time: 0 hr 5 min 6 sec) 
Heartbeat CPU 0 instructions: 210000000 cycles: 119409252 heartbeat IPC: 1.45306 cumulative IPC: 1.42709 (Simulation time: 0 hr 5 min 23 sec) 
Heartbeat CPU 0 instructions: 220000000 cycles: 126189810 heartbeat IPC: 1.4748 cumulative IPC: 1.43095 (Simulation time: 0 hr 5 min 39 sec) 
Heartbeat CPU 0 instructions: 230000003 cycles: 132925756 heartbeat IPC: 1.48457 cumulative IPC: 1.43494 (Simulation time: 0 hr 5 min 56 sec) 
Heartbeat CPU 0 instructions: 240000000 cycles: 139688499 heartbeat IPC: 1.47869 cumulative IPC: 1.43797 (Simulation time: 0 hr 6 min 12 sec) 
Heartbeat CPU 0 instructions: 250000001 cycles: 146427035 heartbeat IPC: 1.484 cumulative IPC: 1.44095 (Simulation time: 0 hr 6 min 29 sec) 
Heartbeat CPU 0 instructions: 260000000 cycles: 153146171 heartbeat IPC: 1.48829 cumulative IPC: 1.44382 (Simulation time: 0 hr 6 min 45 sec) 
Heartbeat CPU 0 instructions: 270000001 cycles: 160141327 heartbeat IPC: 1.42956 cumulative IPC: 1.44298 (Simulation time: 0 hr 7 min 2 sec) 
Heartbeat CPU 0 instructions: 280000000 cycles: 167691479 heartbeat IPC: 1.32448 cumulative IPC: 1.43584 (Simulation time: 0 hr 7 min 20 sec) 
Heartbeat CPU 0 instructions: 290000000 cycles: 175637599 heartbeat IPC: 1.25848 cumulative IPC: 1.42527 (Simulation time: 0 hr 7 min 37 sec) 
Heartbeat CPU 0 instructions: 300000000 cycles: 183827787 heartbeat IPC: 1.22097 cumulative IPC: 1.41344 (Simulation time: 0 hr 7 min 55 sec) 
Heartbeat CPU 0 instructions: 310000002 cycles: 192162038 heartbeat IPC: 1.19987 cumulative IPC: 1.40156 (Simulation time: 0 hr 8 min 13 sec) 
Heartbeat CPU 0 instructions: 320000000 cycles: 202125016 heartbeat IPC: 1.00372 cumulative IPC: 1.37676 (Simulation time: 0 hr 8 min 33 sec) 
Heartbeat CPU 0 instructions: 330000002 cycles: 206773135 heartbeat IPC: 2.15141 cumulative IPC: 1.39865 (Simulation time: 0 hr 8 min 50 sec) 
Heartbeat CPU 0 instructions: 340000000 cycles: 211989413 heartbeat IPC: 1.91708 cumulative IPC: 1.41459 (Simulation time: 0 hr 9 min 7 sec) 
Heartbeat CPU 0 instructions: 350000000 cycles: 219219436 heartbeat IPC: 1.38312 cumulative IPC: 1.41331 (Simulation time: 0 hr 9 min 25 sec) 
Heartbeat CPU 0 instructions: 360000000 cycles: 226897287 heartbeat IPC: 1.30245 cumulative IPC: 1.4087 (Simulation time: 0 hr 9 min 42 sec) 
Heartbeat CPU 0 instructions: 370000000 cycles: 234315037 heartbeat IPC: 1.34812 cumulative IPC: 1.40635 (Simulation time: 0 hr 9 min 59 sec) 
Heartbeat CPU 0 instructions: 380000000 cycles: 241599806 heartbeat IPC: 1.37273 cumulative IPC: 1.40513 (Simulation time: 0 hr 10 min 17 sec) 
Heartbeat CPU 0 instructions: 390000000 cycles: 249730741 heartbeat IPC: 1.22987 cumulative IPC: 1.39825 (Simulation time: 0 hr 10 min 35 sec) 
Heartbeat CPU 0 instructions: 400000000 cycles: 257955105 heartbeat IPC: 1.2159 cumulative IPC: 1.3913 (Simulation time: 0 hr 10 min 53 sec) 
Heartbeat CPU 0 instructions: 410000001 cycles: 265800054 heartbeat IPC: 1.27471 cumulative IPC: 1.38721 (Simulation time: 0 hr 11 min 10 sec) 
Heartbeat CPU 0 instructions: 420000000 cycles: 273874949 heartbeat IPC: 1.23841 cumulative IPC: 1.38202 (Simulation time: 0 hr 11 min 28 sec) 
Heartbeat CPU 0 instructions: 430000001 cycles: 282160830 heartbeat IPC: 1.20687 cumulative IPC: 1.37597 (Simulation time: 0 hr 11 min 46 sec) 
Heartbeat CPU 0 instructions: 440000000 cycles: 290220231 heartbeat IPC: 1.24079 cumulative IPC: 1.37157 (Simulation time: 0 hr 12 min 4 sec) 
Heartbeat CPU 0 instructions: 450000001 cycles: 298117102 heartbeat IPC: 1.26632 cumulative IPC: 1.36832 (Simulation time: 0 hr 12 min 22 sec) 
Heartbeat CPU 0 instructions: 460000000 cycles: 308019243 heartbeat IPC: 1.00988 cumulative IPC: 1.35496 (Simulation time: 0 hr 12 min 41 sec) 
Heartbeat CPU 0 instructions: 470000002 cycles: 312657943 heartbeat IPC: 2.15578 cumulative IPC: 1.3687 (Simulation time: 0 hr 12 min 58 sec) 
Heartbeat CPU 0 instructions: 480000000 cycles: 317897032 heartbeat IPC: 1.90873 cumulative IPC: 1.37897 (Simulation time: 0 hr 13 min 14 sec) 
Heartbeat CPU 0 instructions: 490000001 cycles: 325218301 heartbeat IPC: 1.36588 cumulative IPC: 1.37863 (Simulation time: 0 hr 13 min 33 sec) 
Heartbeat CPU 0 instructions: 500000000 cycles: 333948371 heartbeat IPC: 1.14547 cumulative IPC: 1.37165 (Simulation time: 0 hr 13 min 53 sec) 
Heartbeat CPU 0 instructions: 510000002 cycles: 342679599 heartbeat IPC: 1.14531 cumulative IPC: 1.36507 (Simulation time: 0 hr 14 min 13 sec) 
Heartbeat CPU 0 instructions: 520000000 cycles: 351407829 heartbeat IPC: 1.14571 cumulative IPC: 1.35888 (Simulation time: 0 hr 14 min 33 sec) 
Heartbeat CPU 0 instructions: 530000000 cycles: 360116355 heartbeat IPC: 1.1483 cumulative IPC: 1.35311 (Simulation time: 0 hr 14 min 53 sec) 
Heartbeat CPU 0 instructions: 540000000 cycles: 368370165 heartbeat IPC: 1.21156 cumulative IPC: 1.34952 (Simulation time: 0 hr 15 min 12 sec) 
Heartbeat CPU 0 instructions: 550000000 cycles: 375409557 heartbeat IPC: 1.42058 cumulative IPC: 1.35103 (Simulation time: 0 hr 15 min 29 sec) 
Heartbeat CPU 0 instructions: 560000000 cycles: 382030586 heartbeat IPC: 1.51034 cumulative IPC: 1.35413 (Simulation time: 0 hr 15 min 46 sec) 
Heartbeat CPU 0 instructions: 570000002 cycles: 388626029 heartbeat IPC: 1.5162 cumulative IPC: 1.35722 (Simulation time: 0 hr 16 min 3 sec) 
Heartbeat CPU 0 instructions: 580000000 cycles: 395274458 heartbeat IPC: 1.50411 cumulative IPC: 1.35998 (Simulation time: 0 hr 16 min 20 sec) 
Heartbeat CPU 0 instructions: 590000002 cycles: 401963800 heartbeat IPC: 1.49492 cumulative IPC: 1.36249 (Simulation time: 0 hr 16 min 37 sec) 
Heartbeat CPU 0 instructions: 600000000 cycles: 408787116 heartbeat IPC: 1.46556 cumulative IPC: 1.36441 (Simulation time: 0 hr 16 min 54 sec) 
Finished CPU 0 instructions: 500000000 cycles: 366457800 cumulative IPC: 1.36441 (Simulation time: 0 hr 16 min 54 sec) 

CPU 0 Branch Prediction Accuracy: 93.4682% MPKI: 2.44079
Number of Branches: 18683822 Number of Mispredictions: 1220394
Number of LOAD Instructions: 142551610
Number of LOAD Instructions (ROI): 142551610
Number of STORE Instructions: 44807454
Number of STORE Instructions (ROI): 44807454
Total Destination Memory Operands: 48357071
Total Destination Memory Operands (ROI): 48357071
Total Source Memory Operands: 142551610
Total Source Memory Operands (ROI): 142551610
Number of DEPENDED LOADS: 7394123
Number of DEPENDED LOADS (ROI): 7394123
Number of SQ_ADDED: 48357051
Number of SQ_ADDED (ROI): 48357051
Number of LQ_ADDED: 157220547
Number of LQ_ADDED (ROI): 157220547
Number of Instructions read from trace: 600000256

ChampSim completed all CPUs

Region of Interest Statistics

CPU 0 cumulative IPC: 1.36441 instructions: 500000000 cycles: 366457800
ITLB TOTAL     ACCESS:   88182720  HIT:   88182651  MISS:         69
ITLB LOAD      ACCESS:   88182720  HIT:   88182651  MISS:         69
ITLB RFO       ACCESS:          0  HIT:          0  MISS:          0
ITLB PREFETCH  ACCESS:          0  HIT:          0  MISS:          0
ITLB WRITEBACK ACCESS:          0  HIT:          0  MISS:          0
ITLB PREFETCH  REQUESTED:          0  ISSUED:          0  USEFUL:          0  USELESS:          0
ITLB TOTAL MSHR MERGED:         85
ITLB LOAD MSHR MERGED:         85
ITLB RFO MSHR MERGED:          0
ITLB PREFETCH MSHR MERGED:          0
ITLB WRITEBACK MSHR MERGED:          0
ITLB TOTAL ACCESSES:   88182805 HITS:   88182651 MISSES:        154
ITLB LOAD ACCESSES:   88182805 HITS:   88182651 MISSES:        154
ITLB RFO ACCESSES:          0 HITS:          0 MISSES:          0
ITLB PREFETCH ACCESSES:          0 HITS:          0 MISSES:          0
ITLB WRITEBACK ACCESSES:          0 HITS:          0 MISSES:          0
ITLB RQ ACCESS:  500000000
ITLB RQ TO_CACHE:   88182805
ITLB RQ MERGED:  411817195
ITLB RQ FORWARD:          0
ITLB WQ ACCESS:          0
ITLB WQ TO_CACHE:          0
ITLB WQ MERGED:          0
ITLB WQ FORWARD:          0
DTLB TOTAL     ACCESS:   88204437  HIT:   88077021  MISS:     127416
DTLB LOAD      ACCESS:   59486118  HIT:   59393655  MISS:      92463
DTLB RFO       ACCESS:   28718319  HIT:   28683366  MISS:      34953
DTLB PREFETCH  ACCESS:          0  HIT:          0  MISS:          0
DTLB WRITEBACK ACCESS:          0  HIT:          0  MISS:          0
DTLB PREFETCH  REQUESTED:          0  ISSUED:          0  USEFUL:          0  USELESS:          0
DTLB TOTAL MSHR MERGED:     140995
DTLB LOAD MSHR MERGED:     107641
DTLB RFO MSHR MERGED:      33354
DTLB PREFETCH MSHR MERGED:          0
DTLB WRITEBACK MSHR MERGED:          0
DTLB TOTAL ACCESSES:   88345432 HITS:   88077021 MISSES:     268411
DTLB LOAD ACCESSES:   59593759 HITS:   59393655 MISSES:     200104
DTLB RFO ACCESSES:   28751673 HITS:   28683366 MISSES:      68307
DTLB PREFETCH ACCESSES:          0 HITS:          0 MISSES:          0
DTLB WRITEBACK ACCESSES:          0 HITS:          0 MISSES:          0
DTLB RQ ACCESS:  154559769
DTLB RQ TO_CACHE:   88345432
DTLB RQ MERGED:   66214337
DTLB RQ FORWARD:          0
DTLB WQ ACCESS:          0
DTLB WQ TO_CACHE:          0
DTLB WQ MERGED:          0
DTLB WQ FORWARD:          0
L1D TOTAL     ACCESS:  127960433  HIT:  124735389  MISS:    3225044
L1D LOAD      ACCESS:   53172076  HIT:   51976674  MISS:    1195402
L1D RFO       ACCESS:   37349924  HIT:   36735754  MISS:     614170
L1D PREFETCH  ACCESS:   37438433  HIT:   36022961  MISS:    1415472
L1D WRITEBACK ACCESS:          0  HIT:          0  MISS:          0
L1D PREFETCH  REQUESTED:   53657429  ISSUED:   52456279  USEFUL:     352017  USELESS:    1063420
L1D TOTAL MSHR MERGED:    2918482
L1D LOAD MSHR MERGED:     524149
L1D RFO MSHR MERGED:    1604636
L1D PREFETCH MSHR MERGED:     789697
L1D WRITEBACK MSHR MERGED:          0
L1D TOTAL ACCESSES:  130913803 HITS:  124770277 MISSES:    6143526
L1D LOAD ACCESSES:   53660327 HITS:   51979572 MISSES:    1680755
L1D RFO ACCESSES:   38952890 HITS:   36735754 MISSES:    2217136
L1D PREFETCH ACCESSES:   38300586 HITS:   36054951 MISSES:    2245635
L1D WRITEBACK ACCESSES:          0 HITS:          0 MISSES:          0
L1D RQ ACCESS:  113714877
L1D RQ TO_CACHE:   53657429
L1D RQ MERGED:   60054550
L1D RQ FORWARD:          0
L1D WQ ACCESS:   40844891
L1D WQ TO_CACHE:   38952890
L1D WQ MERGED:    1892001
L1D WQ FORWARD:      34888
L1I TOTAL     ACCESS:  108370978  HIT:  107811852  MISS:     559126
L1I LOAD      ACCESS:  108370978  HIT:  107811852  MISS:     559126
L1I RFO       ACCESS:          0  HIT:          0  MISS:          0
L1I PREFETCH  ACCESS:          0  HIT:          0  MISS:          0
L1I WRITEBACK ACCESS:          0  HIT:          0  MISS:          0
L1I PREFETCH  REQUESTED:          0  ISSUED:          0  USEFUL:          0  USELESS:          0
L1I TOTAL MSHR MERGED:     527785
L1I LOAD MSHR MERGED:     527785
L1I RFO MSHR MERGED:          0
L1I PREFETCH MSHR MERGED:          0
L1I WRITEBACK MSHR MERGED:          0
L1I TOTAL ACCESSES:  108898763 HITS:  107811852 MISSES:    1086911
L1I LOAD ACCESSES:  108898763 HITS:  107811852 MISSES:    1086911
L1I RFO ACCESSES:          0 HITS:          0 MISSES:          0
L1I PREFETCH ACCESSES:          0 HITS:          0 MISSES:          0
L1I WRITEBACK ACCESSES:          0 HITS:          0 MISSES:          0
L1I RQ ACCESS:  500000002
L1I RQ TO_CACHE:  108898763
L1I RQ MERGED:  391101239
L1I RQ FORWARD:          0
L1I WQ ACCESS:          0
L1I WQ TO_CACHE:          0
L1I WQ MERGED:          0
L1I WQ FORWARD:          0
L2C TOTAL     ACCESS:    4691815  HIT:    3866269  MISS:     825546
L2C LOAD      ACCESS:    1715625  HIT:    1562951  MISS:     152674
L2C RFO       ACCESS:     611054  HIT:     421086  MISS:     189968
L2C PREFETCH  ACCESS:    1662255  HIT:    1181540  MISS:     480715
L2C WRITEBACK ACCESS:     702881  HIT:     700692  MISS:       2189
L2C PREFETCH  REQUESTED:     256414  ISSUED:     256414  USEFUL:     173266  USELESS:     308115
L2C TOTAL MSHR MERGED:      13213
L2C LOAD MSHR MERGED:       4045
L2C RFO MSHR MERGED:          0
L2C PREFETCH MSHR MERGED:       9168
L2C WRITEBACK MSHR MERGED:          0
L2C TOTAL ACCESSES:    4711629 HITS:    3867891 MISSES:     843738
L2C LOAD ACCESSES:    1715732 HITS:    1563058 MISSES:     152674
L2C RFO ACCESSES:     612500 HITS:     422532 MISSES:     189968
L2C PREFETCH ACCESSES:    1680516 HITS:    1181609 MISSES:     498907
L2C WRITEBACK ACCESSES:     702881 HITS:     700692 MISSES:       2189
L2C RQ ACCESS:    2328232
L2C RQ TO_CACHE:    2326679
L2C RQ MERGED:          0
L2C RQ FORWARD:          0
L2C WQ ACCESS:     702881
L2C WQ TO_CACHE:     702881
L2C WQ MERGED:          0
L2C WQ FORWARD:       1622
LLC TOTAL     ACCESS:    1047146  HIT:     401458  MISS:     645688
LLC LOAD      ACCESS:     148625  HIT:      82910  MISS:      65715
LLC RFO       ACCESS:     189961  HIT:       7068  MISS:     182893
LLC PREFETCH  ACCESS:     487675  HIT:     123105  MISS:     364570
LLC WRITEBACK ACCESS:     220885  HIT:     188375  MISS:      32510
LLC PREFETCH  REQUESTED:          0  ISSUED:          0  USEFUL:       2131  USELESS:     363555
LLC TOTAL MSHR MERGED:       1368
LLC LOAD MSHR MERGED:        431
LLC RFO MSHR MERGED:          0
LLC PREFETCH MSHR MERGED:        937
LLC WRITEBACK MSHR MERGED:          0
LLC TOTAL ACCESSES:    1048525 HITS:     401469 MISSES:     647056
LLC LOAD ACCESSES:     148629 HITS:      82914 MISSES:      65715
LLC RFO ACCESSES:     189968 HITS:       7075 MISSES:     182893
LLC PREFETCH ACCESSES:     489043 HITS:     123105 MISSES:     365938
LLC WRITEBACK ACCESSES:     220885 HITS:     188375 MISSES:      32510
LLC 0 RQ ACCESS:     338597
LLC 0 RQ TO_CACHE:     338586
LLC 0 RQ MERGED:          0
LLC 0 RQ FORWARD:          0
LLC WQ ACCESS:     220885
LLC WQ TO_CACHE:     220885
LLC WQ MERGED:          0
LLC WQ FORWARD:         11
Major fault: 0 Minor fault: 6811
CPU 0 L1D next line prefetcher final stats
CPU 0 L2C PC-based stride prefetcher final stats
All Misses: 759445
All Hits: 494684
SD Algo Stats - Switches: 0 SRR-Repls: 75557 BRR-Repls: 0

DRAM Statistics
 CHANNEL 0
 RQ ROW_BUFFER_HIT:     309631  ROW_BUFFER_MISS:     303497
 DBUS_CONGESTED:     421106
 WQ ROW_BUFFER_HIT:      18913  ROW_BUFFER_MISS:     198215  FULL:          0

 AVG_CONGESTED_CYCLE: 13
LOADS RETIRED: 119922929
INSTR RETIRED: 500000000
