
*** ChampSim Multicore Out-of-Order Simulator ***

Warmup Instructions: 100000000
Simulation Instructions: 500000000
Number of CPUs: 1
LLC sets: 2048
LLC ways: 16
Clean RRIP Policies: 1013112010131120 Dirty RRIP Policies: 2013210020132100 PSEL Width: 10 Track Set: 4294967295 PSEL Mask: 1 Demote Mask: 4340240143402401DS Algo: 0Window size: 0
Off-chip DRAM Size: 4096 MB Channels: 1 Width: 64-bit Data Rate: 1600 MT/s

CPU 0 runs /mnt/beegfs/iconst01/spec2017/Xz.trace.gz
NOT SORTED
TRACE STRING: /mnt/beegfs/iconst01/spec2017/Xz.trace.gz
SORTED
TRACE STRING: /mnt/beegfs/iconst01/spec2017/Xz.trace.gz
INITIAL
TRACE STRING: /mnt/beegfs/iconst01/spec2017/Xz.trace.gz

champsim_seed used: 210

CPU 0 L1D next line prefetcher
CPU 0 L2C IP-based stride prefetcher
Initialize DRRIP state
Assign rand_sets[0]: 454  LLC: 2048
rand_sets[0]: 454
Assign rand_sets[1]: 1662  LLC: 2048
rand_sets[1]: 1662
Assign rand_sets[2]: 1921  LLC: 2048
rand_sets[2]: 1921
Assign rand_sets[3]: 1131  LLC: 2048
rand_sets[3]: 1131
Assign rand_sets[4]: 331  LLC: 2048
rand_sets[4]: 331
Assign rand_sets[5]: 1531  LLC: 2048
rand_sets[5]: 1531
Assign rand_sets[6]: 482  LLC: 2048
rand_sets[6]: 482
Assign rand_sets[7]: 1275  LLC: 2048
rand_sets[7]: 1275
Assign rand_sets[8]: 1876  LLC: 2048
rand_sets[8]: 1876
Assign rand_sets[9]: 2038  LLC: 2048
rand_sets[9]: 2038
Assign rand_sets[10]: 701  LLC: 2048
rand_sets[10]: 701
Assign rand_sets[11]: 479  LLC: 2048
rand_sets[11]: 479
Assign rand_sets[12]: 892  LLC: 2048
rand_sets[12]: 892
Assign rand_sets[13]: 1820  LLC: 2048
rand_sets[13]: 1820
Assign rand_sets[14]: 1505  LLC: 2048
rand_sets[14]: 1505
Assign rand_sets[15]: 1159  LLC: 2048
rand_sets[15]: 1159
Assign rand_sets[16]: 513  LLC: 2048
rand_sets[16]: 513
Assign rand_sets[17]: 703  LLC: 2048
rand_sets[17]: 703
Assign rand_sets[18]: 561  LLC: 2048
rand_sets[18]: 561
Assign rand_sets[19]: 990  LLC: 2048
rand_sets[19]: 990
Assign rand_sets[20]: 342  LLC: 2048
rand_sets[20]: 342
Assign rand_sets[21]: 882  LLC: 2048
rand_sets[21]: 882
Assign rand_sets[22]: 15  LLC: 2048
rand_sets[22]: 15
Assign rand_sets[23]: 71  LLC: 2048
rand_sets[23]: 71
Assign rand_sets[24]: 1127  LLC: 2048
rand_sets[24]: 1127
Assign rand_sets[25]: 1382  LLC: 2048
rand_sets[25]: 1382
Assign rand_sets[26]: 647  LLC: 2048
rand_sets[26]: 647
Assign rand_sets[27]: 857  LLC: 2048
rand_sets[27]: 857
Assign rand_sets[28]: 1450  LLC: 2048
rand_sets[28]: 1450
Assign rand_sets[29]: 1160  LLC: 2048
rand_sets[29]: 1160
Assign rand_sets[30]: 1852  LLC: 2048
rand_sets[30]: 1852
Assign rand_sets[31]: 1881  LLC: 2048
rand_sets[31]: 1881
Assign rand_sets[32]: 1770  LLC: 2048
rand_sets[32]: 1770
Assign rand_sets[33]: 1622  LLC: 2048
rand_sets[33]: 1622
Assign rand_sets[34]: 275  LLC: 2048
rand_sets[34]: 275
Assign rand_sets[35]: 635  LLC: 2048
rand_sets[35]: 635
Assign rand_sets[36]: 466  LLC: 2048
rand_sets[36]: 466
Assign rand_sets[37]: 1413  LLC: 2048
rand_sets[37]: 1413
Assign rand_sets[38]: 417  LLC: 2048
rand_sets[38]: 417
Assign rand_sets[39]: 472  LLC: 2048
rand_sets[39]: 472
Assign rand_sets[40]: 1340  LLC: 2048
rand_sets[40]: 1340
Assign rand_sets[41]: 852  LLC: 2048
rand_sets[41]: 852
Assign rand_sets[42]: 1365  LLC: 2048
rand_sets[42]: 1365
Assign rand_sets[43]: 47  LLC: 2048
rand_sets[43]: 47
Assign rand_sets[44]: 823  LLC: 2048
rand_sets[44]: 823
Assign rand_sets[45]: 686  LLC: 2048
rand_sets[45]: 686
Assign rand_sets[46]: 1637  LLC: 2048
rand_sets[46]: 1637
Assign rand_sets[47]: 1115  LLC: 2048
rand_sets[47]: 1115
Assign rand_sets[48]: 986  LLC: 2048
rand_sets[48]: 986
Assign rand_sets[49]: 258  LLC: 2048
rand_sets[49]: 258
Assign rand_sets[50]: 633  LLC: 2048
rand_sets[50]: 633
Assign rand_sets[51]: 920  LLC: 2048
rand_sets[51]: 920
Assign rand_sets[52]: 204  LLC: 2048
rand_sets[52]: 204
Assign rand_sets[53]: 227  LLC: 2048
rand_sets[53]: 227
Assign rand_sets[54]: 1818  LLC: 2048
rand_sets[54]: 1818
Assign rand_sets[55]: 886  LLC: 2048
rand_sets[55]: 886
Assign rand_sets[56]: 1422  LLC: 2048
rand_sets[56]: 1422
Assign rand_sets[57]: 607  LLC: 2048
rand_sets[57]: 607
Assign rand_sets[58]: 217  LLC: 2048
rand_sets[58]: 217
Assign rand_sets[59]: 1945  LLC: 2048
rand_sets[59]: 1945
Assign rand_sets[60]: 143  LLC: 2048
rand_sets[60]: 143
Assign rand_sets[61]: 1311  LLC: 2048
rand_sets[61]: 1311
Assign rand_sets[62]: 319  LLC: 2048
rand_sets[62]: 319
Assign rand_sets[63]: 1846  LLC: 2048
rand_sets[63]: 1846
 CLEAN-RRIP-POLICY-1: 1-0-1-3-1-1-2-0- CLEAN-RRIP-POLICY-2: 1-0-1-3-1-1-2-0-
 DIRTY-RRIP-POLICY-1: 2-0-1-3-2-1-0-0- DIRTY-RRIP-POLICY-2: 2-0-1-3-2-1-0-0-
 PSEL width: 10
Heartbeat CPU 0 instructions: 10000000 cycles: 4305270 heartbeat IPC: 2.32273 cumulative IPC: 2.32273 (Simulation time: 0 hr 0 min 12 sec) 
Heartbeat CPU 0 instructions: 20000000 cycles: 8617100 heartbeat IPC: 2.3192 cumulative IPC: 2.32097 (Simulation time: 0 hr 0 min 24 sec) 
Heartbeat CPU 0 instructions: 30000003 cycles: 13160978 heartbeat IPC: 2.20076 cumulative IPC: 2.27947 (Simulation time: 0 hr 0 min 36 sec) 
Heartbeat CPU 0 instructions: 40000000 cycles: 17515471 heartbeat IPC: 2.29648 cumulative IPC: 2.2837 (Simulation time: 0 hr 0 min 49 sec) 
Heartbeat CPU 0 instructions: 50000001 cycles: 21878333 heartbeat IPC: 2.29207 cumulative IPC: 2.28537 (Simulation time: 0 hr 1 min 0 sec) 
Heartbeat CPU 0 instructions: 60000000 cycles: 26178570 heartbeat IPC: 2.32545 cumulative IPC: 2.29195 (Simulation time: 0 hr 1 min 12 sec) 
Heartbeat CPU 0 instructions: 70000001 cycles: 30244477 heartbeat IPC: 2.45948 cumulative IPC: 2.31447 (Simulation time: 0 hr 1 min 23 sec) 
Heartbeat CPU 0 instructions: 80000000 cycles: 34523307 heartbeat IPC: 2.33709 cumulative IPC: 2.31728 (Simulation time: 0 hr 1 min 35 sec) 
Heartbeat CPU 0 instructions: 90000001 cycles: 38739946 heartbeat IPC: 2.37156 cumulative IPC: 2.32318 (Simulation time: 0 hr 1 min 46 sec) 
Heartbeat CPU 0 instructions: 100000000 cycles: 42980404 heartbeat IPC: 2.35824 cumulative IPC: 2.32664 (Simulation time: 0 hr 1 min 57 sec) 

Warmup complete CPU 0 instructions: 100000001 cycles: 42980405 (Simulation time: 0 hr 1 min 57 sec) 

Heartbeat CPU 0 instructions: 110000000 cycles: 53144723 heartbeat IPC: 0.983834 cumulative IPC: 0.983834 (Simulation time: 0 hr 2 min 15 sec) 
Heartbeat CPU 0 instructions: 120000000 cycles: 63826640 heartbeat IPC: 0.936162 cumulative IPC: 0.959406 (Simulation time: 0 hr 2 min 32 sec) 
Heartbeat CPU 0 instructions: 130000001 cycles: 74482448 heartbeat IPC: 0.938455 cumulative IPC: 0.952319 (Simulation time: 0 hr 2 min 50 sec) 
Heartbeat CPU 0 instructions: 140000000 cycles: 84210073 heartbeat IPC: 1.028 cumulative IPC: 0.970175 (Simulation time: 0 hr 3 min 7 sec) 
Heartbeat CPU 0 instructions: 150000001 cycles: 94569239 heartbeat IPC: 0.965329 cumulative IPC: 0.969202 (Simulation time: 0 hr 3 min 25 sec) 
Heartbeat CPU 0 instructions: 160000000 cycles: 104682402 heartbeat IPC: 0.98881 cumulative IPC: 0.972416 (Simulation time: 0 hr 3 min 42 sec) 
Heartbeat CPU 0 instructions: 170000000 cycles: 114400823 heartbeat IPC: 1.02897 cumulative IPC: 0.980112 (Simulation time: 0 hr 3 min 59 sec) 
Heartbeat CPU 0 instructions: 180000000 cycles: 125022667 heartbeat IPC: 0.941456 cumulative IPC: 0.975107 (Simulation time: 0 hr 4 min 17 sec) 
Heartbeat CPU 0 instructions: 190000001 cycles: 135347660 heartbeat IPC: 0.968524 cumulative IPC: 0.974371 (Simulation time: 0 hr 4 min 34 sec) 
Heartbeat CPU 0 instructions: 200000000 cycles: 146015941 heartbeat IPC: 0.937358 cumulative IPC: 0.970539 (Simulation time: 0 hr 4 min 52 sec) 
Heartbeat CPU 0 instructions: 210000002 cycles: 158604550 heartbeat IPC: 0.794369 cumulative IPC: 0.951358 (Simulation time: 0 hr 5 min 11 sec) 
Heartbeat CPU 0 instructions: 220000000 cycles: 171282880 heartbeat IPC: 0.788747 cumulative IPC: 0.93529 (Simulation time: 0 hr 5 min 30 sec) 
Heartbeat CPU 0 instructions: 230000000 cycles: 183601098 heartbeat IPC: 0.811806 cumulative IPC: 0.924473 (Simulation time: 0 hr 5 min 49 sec) 
Heartbeat CPU 0 instructions: 240000000 cycles: 195877822 heartbeat IPC: 0.81455 cumulative IPC: 0.915647 (Simulation time: 0 hr 6 min 8 sec) 
Heartbeat CPU 0 instructions: 250000000 cycles: 207988446 heartbeat IPC: 0.825721 cumulative IPC: 0.909047 (Simulation time: 0 hr 6 min 26 sec) 
Heartbeat CPU 0 instructions: 260000000 cycles: 219660484 heartbeat IPC: 0.856748 cumulative IPC: 0.905592 (Simulation time: 0 hr 6 min 45 sec) 
Heartbeat CPU 0 instructions: 270000003 cycles: 231685811 heartbeat IPC: 0.831578 cumulative IPC: 0.900875 (Simulation time: 0 hr 7 min 3 sec) 
Heartbeat CPU 0 instructions: 280000000 cycles: 243350216 heartbeat IPC: 0.857309 cumulative IPC: 0.898339 (Simulation time: 0 hr 7 min 22 sec) 
Heartbeat CPU 0 instructions: 290000002 cycles: 255041059 heartbeat IPC: 0.85537 cumulative IPC: 0.89597 (Simulation time: 0 hr 7 min 40 sec) 
Heartbeat CPU 0 instructions: 300000000 cycles: 267636173 heartbeat IPC: 0.793958 cumulative IPC: 0.890251 (Simulation time: 0 hr 7 min 59 sec) 
Heartbeat CPU 0 instructions: 310000000 cycles: 279984314 heartbeat IPC: 0.809838 cumulative IPC: 0.886061 (Simulation time: 0 hr 8 min 18 sec) 
Heartbeat CPU 0 instructions: 320000000 cycles: 292821128 heartbeat IPC: 0.77901 cumulative IPC: 0.880561 (Simulation time: 0 hr 8 min 37 sec) 
Heartbeat CPU 0 instructions: 330000003 cycles: 304947183 heartbeat IPC: 0.824671 cumulative IPC: 0.877974 (Simulation time: 0 hr 8 min 56 sec) 
Heartbeat CPU 0 instructions: 340000000 cycles: 317243222 heartbeat IPC: 0.81327 cumulative IPC: 0.875073 (Simulation time: 0 hr 9 min 14 sec) 
Heartbeat CPU 0 instructions: 350000001 cycles: 328343245 heartbeat IPC: 0.900899 cumulative IPC: 0.876078 (Simulation time: 0 hr 9 min 33 sec) 
Heartbeat CPU 0 instructions: 360000000 cycles: 340290799 heartbeat IPC: 0.836991 cumulative IPC: 0.874507 (Simulation time: 0 hr 9 min 51 sec) 
Heartbeat CPU 0 instructions: 370000001 cycles: 351786404 heartbeat IPC: 0.869898 cumulative IPC: 0.874335 (Simulation time: 0 hr 10 min 9 sec) 
Heartbeat CPU 0 instructions: 380000000 cycles: 362871498 heartbeat IPC: 0.902112 cumulative IPC: 0.875298 (Simulation time: 0 hr 10 min 28 sec) 
Heartbeat CPU 0 instructions: 390000003 cycles: 373599297 heartbeat IPC: 0.932158 cumulative IPC: 0.877143 (Simulation time: 0 hr 10 min 46 sec) 
Heartbeat CPU 0 instructions: 400000000 cycles: 383888780 heartbeat IPC: 0.971866 cumulative IPC: 0.880002 (Simulation time: 0 hr 11 min 4 sec) 
Heartbeat CPU 0 instructions: 410000000 cycles: 394495363 heartbeat IPC: 0.942811 cumulative IPC: 0.881897 (Simulation time: 0 hr 11 min 21 sec) 
Heartbeat CPU 0 instructions: 420000000 cycles: 403913104 heartbeat IPC: 1.06183 cumulative IPC: 0.886592 (Simulation time: 0 hr 11 min 39 sec) 
Heartbeat CPU 0 instructions: 430000002 cycles: 413015715 heartbeat IPC: 1.09859 cumulative IPC: 0.891807 (Simulation time: 0 hr 11 min 56 sec) 
Heartbeat CPU 0 instructions: 440000000 cycles: 423351819 heartbeat IPC: 0.967482 cumulative IPC: 0.893863 (Simulation time: 0 hr 12 min 14 sec) 
Heartbeat CPU 0 instructions: 450000002 cycles: 434532813 heartbeat IPC: 0.894375 cumulative IPC: 0.893878 (Simulation time: 0 hr 12 min 32 sec) 
Heartbeat CPU 0 instructions: 460000000 cycles: 446184180 heartbeat IPC: 0.858268 cumulative IPC: 0.892849 (Simulation time: 0 hr 12 min 50 sec) 
Heartbeat CPU 0 instructions: 470000003 cycles: 456427703 heartbeat IPC: 0.976227 cumulative IPC: 0.894915 (Simulation time: 0 hr 13 min 7 sec) 
Heartbeat CPU 0 instructions: 480000000 cycles: 467037642 heartbeat IPC: 0.942512 cumulative IPC: 0.896105 (Simulation time: 0 hr 13 min 25 sec) 
Heartbeat CPU 0 instructions: 490000000 cycles: 477038273 heartbeat IPC: 0.999937 cumulative IPC: 0.898498 (Simulation time: 0 hr 13 min 43 sec) 
Heartbeat CPU 0 instructions: 500000000 cycles: 488948776 heartbeat IPC: 0.839595 cumulative IPC: 0.896925 (Simulation time: 0 hr 14 min 1 sec) 
Heartbeat CPU 0 instructions: 510000002 cycles: 501456812 heartbeat IPC: 0.799486 cumulative IPC: 0.894266 (Simulation time: 0 hr 14 min 19 sec) 
Heartbeat CPU 0 instructions: 520000000 cycles: 513387272 heartbeat IPC: 0.83819 cumulative IPC: 0.892844 (Simulation time: 0 hr 14 min 38 sec) 
Heartbeat CPU 0 instructions: 530000001 cycles: 525309249 heartbeat IPC: 0.838787 cumulative IPC: 0.891508 (Simulation time: 0 hr 14 min 56 sec) 
Heartbeat CPU 0 instructions: 540000000 cycles: 537003396 heartbeat IPC: 0.855129 cumulative IPC: 0.890647 (Simulation time: 0 hr 15 min 14 sec) 
Heartbeat CPU 0 instructions: 550000001 cycles: 548484081 heartbeat IPC: 0.871028 cumulative IPC: 0.890201 (Simulation time: 0 hr 15 min 32 sec) 
Heartbeat CPU 0 instructions: 560000000 cycles: 560136329 heartbeat IPC: 0.858203 cumulative IPC: 0.88948 (Simulation time: 0 hr 15 min 51 sec) 
Heartbeat CPU 0 instructions: 570000000 cycles: 571641489 heartbeat IPC: 0.869175 cumulative IPC: 0.889038 (Simulation time: 0 hr 16 min 9 sec) 
Heartbeat CPU 0 instructions: 580000000 cycles: 582475585 heartbeat IPC: 0.923012 cumulative IPC: 0.889721 (Simulation time: 0 hr 16 min 26 sec) 
Heartbeat CPU 0 instructions: 590000003 cycles: 593996408 heartbeat IPC: 0.867994 cumulative IPC: 0.889266 (Simulation time: 0 hr 16 min 44 sec) 
Heartbeat CPU 0 instructions: 600000000 cycles: 604662536 heartbeat IPC: 0.937547 cumulative IPC: 0.890183 (Simulation time: 0 hr 17 min 2 sec) 
Finished CPU 0 instructions: 500000001 cycles: 561682139 cumulative IPC: 0.890183 (Simulation time: 0 hr 17 min 2 sec) 

CPU 0 Branch Prediction Accuracy: 93.0095% MPKI: 10.0046
Number of Branches: 71558147 Number of Mispredictions: 5002285
Number of LOAD Instructions: 145708893
Number of LOAD Instructions (ROI): 145708893
Number of STORE Instructions: 40463820
Number of STORE Instructions (ROI): 40463820
Total Destination Memory Operands: 45240498
Total Destination Memory Operands (ROI): 45240498
Total Source Memory Operands: 145708893
Total Source Memory Operands (ROI): 145708893
Number of DEPENDED LOADS: 10674750
Number of DEPENDED LOADS (ROI): 10674750
Number of SQ_ADDED: 45240498
Number of SQ_ADDED (ROI): 45240498
Number of LQ_ADDED: 193329283
Number of LQ_ADDED (ROI): 193329283
Number of Instructions read from trace: 600000002

ChampSim completed all CPUs

Region of Interest Statistics

CPU 0 cumulative IPC: 0.890183 instructions: 500000001 cycles: 561682139
ITLB TOTAL     ACCESS:   77991061  HIT:   77991060  MISS:          1
ITLB LOAD      ACCESS:   77991061  HIT:   77991060  MISS:          1
ITLB RFO       ACCESS:          0  HIT:          0  MISS:          0
ITLB PREFETCH  ACCESS:          0  HIT:          0  MISS:          0
ITLB WRITEBACK ACCESS:          0  HIT:          0  MISS:          0
ITLB PREFETCH  REQUESTED:          0  ISSUED:          0  USEFUL:          0  USELESS:          0
ITLB TOTAL MSHR MERGED:          0
ITLB LOAD MSHR MERGED:          0
ITLB RFO MSHR MERGED:          0
ITLB PREFETCH MSHR MERGED:          0
ITLB WRITEBACK MSHR MERGED:          0
ITLB TOTAL ACCESSES:   77991061 HITS:   77991060 MISSES:          1
ITLB LOAD ACCESSES:   77991061 HITS:   77991060 MISSES:          1
ITLB RFO ACCESSES:          0 HITS:          0 MISSES:          0
ITLB PREFETCH ACCESSES:          0 HITS:          0 MISSES:          0
ITLB WRITEBACK ACCESSES:          0 HITS:          0 MISSES:          0
ITLB RQ ACCESS:  499999995
ITLB RQ TO_CACHE:   77991061
ITLB RQ MERGED:  422008934
ITLB RQ FORWARD:          0
ITLB WQ ACCESS:          0
ITLB WQ TO_CACHE:          0
ITLB WQ MERGED:          0
ITLB WQ FORWARD:          0
DTLB TOTAL     ACCESS:   98673859  HIT:   97792522  MISS:     881337
DTLB LOAD      ACCESS:   70894135  HIT:   70032601  MISS:     861534
DTLB RFO       ACCESS:   27779724  HIT:   27759921  MISS:      19803
DTLB PREFETCH  ACCESS:          0  HIT:          0  MISS:          0
DTLB WRITEBACK ACCESS:          0  HIT:          0  MISS:          0
DTLB PREFETCH  REQUESTED:          0  ISSUED:          0  USEFUL:          0  USELESS:          0
DTLB TOTAL MSHR MERGED:      87341
DTLB LOAD MSHR MERGED:      65595
DTLB RFO MSHR MERGED:      21746
DTLB PREFETCH MSHR MERGED:          0
DTLB WRITEBACK MSHR MERGED:          0
DTLB TOTAL ACCESSES:   98761200 HITS:   97792522 MISSES:     968678
DTLB LOAD ACCESSES:   70959730 HITS:   70032601 MISSES:     927129
DTLB RFO ACCESSES:   27801470 HITS:   27759921 MISSES:      41549
DTLB PREFETCH ACCESSES:          0 HITS:          0 MISSES:          0
DTLB WRITEBACK ACCESSES:          0 HITS:          0 MISSES:          0
DTLB RQ ACCESS:  150270306
DTLB RQ TO_CACHE:   98761200
DTLB RQ MERGED:   51509106
DTLB RQ FORWARD:          0
DTLB WQ ACCESS:          0
DTLB WQ TO_CACHE:          0
DTLB WQ MERGED:          0
DTLB WQ FORWARD:          0
L1D TOTAL     ACCESS:  173323373  HIT:  169154750  MISS:    4168623
L1D LOAD      ACCESS:   75280235  HIT:   73398846  MISS:    1881389
L1D RFO       ACCESS:   36778167  HIT:   36571540  MISS:     206627
L1D PREFETCH  ACCESS:   61264971  HIT:   59184364  MISS:    2080607
L1D WRITEBACK ACCESS:          0  HIT:          0  MISS:          0
L1D PREFETCH  REQUESTED:   75383989  ISSUED:   74819788  USEFUL:     415049  USELESS:    1665547
L1D TOTAL MSHR MERGED:     376527
L1D LOAD MSHR MERGED:     112591
L1D RFO MSHR MERGED:     133169
L1D PREFETCH MSHR MERGED:     130767
L1D WRITEBACK MSHR MERGED:          0
L1D TOTAL ACCESSES:  173851693 HITS:  169306543 MISSES:    4545150
L1D LOAD ACCESSES:   75387085 HITS:   73401942 MISSES:    1985143
L1D RFO ACCESSES:   36909918 HITS:   36571540 MISSES:     338378
L1D PREFETCH ACCESSES:   61554690 HITS:   59333061 MISSES:    2221629
L1D WRITEBACK ACCESSES:          0 HITS:          0 MISSES:          0
L1D RQ ACCESS:  112607903
L1D RQ TO_CACHE:   75383989
L1D RQ MERGED:   37220818
L1D RQ FORWARD:          0
L1D WQ ACCESS:   37662403
L1D WQ TO_CACHE:   36909918
L1D WQ MERGED:     752485
L1D WQ FORWARD:     151793
L1I TOTAL     ACCESS:  100699122  HIT:  100699097  MISS:         25
L1I LOAD      ACCESS:  100699122  HIT:  100699097  MISS:         25
L1I RFO       ACCESS:          0  HIT:          0  MISS:          0
L1I PREFETCH  ACCESS:          0  HIT:          0  MISS:          0
L1I WRITEBACK ACCESS:          0  HIT:          0  MISS:          0
L1I PREFETCH  REQUESTED:          0  ISSUED:          0  USEFUL:          0  USELESS:          0
L1I TOTAL MSHR MERGED:         10
L1I LOAD MSHR MERGED:         10
L1I RFO MSHR MERGED:          0
L1I PREFETCH MSHR MERGED:          0
L1I WRITEBACK MSHR MERGED:          0
L1I TOTAL ACCESSES:  100699132 HITS:  100699097 MISSES:         35
L1I LOAD ACCESSES:  100699132 HITS:  100699097 MISSES:         35
L1I RFO ACCESSES:          0 HITS:          0 MISSES:          0
L1I PREFETCH ACCESSES:          0 HITS:          0 MISSES:          0
L1I WRITEBACK ACCESSES:          0 HITS:          0 MISSES:          0
L1I RQ ACCESS:  499999995
L1I RQ TO_CACHE:  100699132
L1I RQ MERGED:  399300863
L1I RQ FORWARD:          0
L1I WQ ACCESS:          0
L1I WQ TO_CACHE:          0
L1I WQ MERGED:          0
L1I WQ FORWARD:          0
L2C TOTAL     ACCESS:    5852564  HIT:    4009368  MISS:    1843196
L2C LOAD      ACCESS:    1872452  HIT:    1061488  MISS:     810964
L2C RFO       ACCESS:     205200  HIT:     100561  MISS:     104639
L2C PREFETCH  ACCESS:    2169280  HIT:    1246107  MISS:     923173
L2C WRITEBACK ACCESS:    1605632  HIT:    1601212  MISS:       4420
L2C PREFETCH  REQUESTED:      91706  ISSUED:      91706  USEFUL:      86445  USELESS:     836752
L2C TOTAL MSHR MERGED:       1048
L2C LOAD MSHR MERGED:        265
L2C RFO MSHR MERGED:          0
L2C PREFETCH MSHR MERGED:        783
L2C WRITEBACK MSHR MERGED:          0
L2C TOTAL ACCESSES:    5853928 HITS:    4009539 MISSES:    1844389
L2C LOAD ACCESSES:    1872577 HITS:    1061613 MISSES:     810964
L2C RFO ACCESSES:     205209 HITS:     100570 MISSES:     104639
L2C PREFETCH ACCESSES:    2170510 HITS:    1246144 MISSES:     924366
L2C WRITEBACK ACCESSES:    1605632 HITS:    1601212 MISSES:       4420
L2C RQ ACCESS:    2077786
L2C RQ TO_CACHE:    2077652
L2C RQ MERGED:          0
L2C RQ FORWARD:          0
L2C WQ ACCESS:    1605632
L2C WQ TO_CACHE:    1605632
L2C WQ MERGED:          0
L2C WQ FORWARD:        171
LLC TOTAL     ACCESS:    2673575  HIT:    2133461  MISS:     540114
LLC LOAD      ACCESS:     810691  HIT:     604520  MISS:     206171
LLC RFO       ACCESS:     104639  HIT:      59038  MISS:      45601
LLC PREFETCH  ACCESS:     923569  HIT:     649584  MISS:     273985
LLC WRITEBACK ACCESS:     834676  HIT:     820319  MISS:      14357
LLC PREFETCH  REQUESTED:          0  ISSUED:          0  USEFUL:      12098  USELESS:     260870
LLC TOTAL MSHR MERGED:          5
LLC LOAD MSHR MERGED:          1
LLC RFO MSHR MERGED:          0
LLC PREFETCH MSHR MERGED:          4
LLC WRITEBACK MSHR MERGED:          0
LLC TOTAL ACCESSES:    2673590 HITS:    2133471 MISSES:     540119
LLC LOAD ACCESSES:     810699 HITS:     604528 MISSES:     206171
LLC RFO ACCESSES:     104639 HITS:      59038 MISSES:      45601
LLC PREFETCH ACCESSES:     923576 HITS:     649586 MISSES:     273990
LLC WRITEBACK ACCESSES:     834676 HITS:     820319 MISSES:      14357
LLC 0 RQ ACCESS:     915338
LLC 0 RQ TO_CACHE:     915330
LLC 0 RQ MERGED:          0
LLC 0 RQ FORWARD:          0
LLC WQ ACCESS:     834676
LLC WQ TO_CACHE:     834676
LLC WQ MERGED:          0
LLC WQ FORWARD:         10
Major fault: 0 Minor fault: 11278
CPU 0 L1D next line prefetcher final stats
CPU 0 L2C PC-based stride prefetcher final stats
All Misses: 652994
All Hits: 2401600
SD Algo Stats - Switches: 0 SRR-Repls: 240317 BRR-Repls: 0

DRAM Statistics
 CHANNEL 0
 RQ ROW_BUFFER_HIT:      30224  ROW_BUFFER_MISS:     494906
 DBUS_CONGESTED:     414445
 WQ ROW_BUFFER_HIT:      19446  ROW_BUFFER_MISS:     246290  FULL:          0

 AVG_CONGESTED_CYCLE: 13
LOADS RETIRED: 121769268
INSTR RETIRED: 500000000
