
*** ChampSim Multicore Out-of-Order Simulator ***

Warmup Instructions: 100000000
Simulation Instructions: 500000000
Number of CPUs: 1
LLC sets: 2048
LLC ways: 16
Clean RRIP Policies: 1023010110230101 Dirty RRIP Policies: 1013110110131101 PSEL Width: 10 Track Set: 4294967295 PSEL Mask: 1 Demote Mask: 3000210430002104DS Algo: 0Window size: 0
Off-chip DRAM Size: 4096 MB Channels: 1 Width: 64-bit Data Rate: 1600 MT/s

CPU 0 runs /mnt/beegfs/iconst01/spec2017/Gcc.trace.gz
NOT SORTED
TRACE STRING: /mnt/beegfs/iconst01/spec2017/Gcc.trace.gz
SORTED
TRACE STRING: /mnt/beegfs/iconst01/spec2017/Gcc.trace.gz
INITIAL
TRACE STRING: /mnt/beegfs/iconst01/spec2017/Gcc.trace.gz

champsim_seed used: 269

CPU 0 L1D next line prefetcher
CPU 0 L2C IP-based stride prefetcher
Initialize DRRIP state
Assign rand_sets[0]: 454  LLC: 2048
rand_sets[0]: 454
Assign rand_sets[1]: 1662  LLC: 2048
rand_sets[1]: 1662
Assign rand_sets[2]: 1921  LLC: 2048
rand_sets[2]: 1921
Assign rand_sets[3]: 1131  LLC: 2048
rand_sets[3]: 1131
Assign rand_sets[4]: 331  LLC: 2048
rand_sets[4]: 331
Assign rand_sets[5]: 1531  LLC: 2048
rand_sets[5]: 1531
Assign rand_sets[6]: 482  LLC: 2048
rand_sets[6]: 482
Assign rand_sets[7]: 1275  LLC: 2048
rand_sets[7]: 1275
Assign rand_sets[8]: 1876  LLC: 2048
rand_sets[8]: 1876
Assign rand_sets[9]: 2038  LLC: 2048
rand_sets[9]: 2038
Assign rand_sets[10]: 701  LLC: 2048
rand_sets[10]: 701
Assign rand_sets[11]: 479  LLC: 2048
rand_sets[11]: 479
Assign rand_sets[12]: 892  LLC: 2048
rand_sets[12]: 892
Assign rand_sets[13]: 1820  LLC: 2048
rand_sets[13]: 1820
Assign rand_sets[14]: 1505  LLC: 2048
rand_sets[14]: 1505
Assign rand_sets[15]: 1159  LLC: 2048
rand_sets[15]: 1159
Assign rand_sets[16]: 513  LLC: 2048
rand_sets[16]: 513
Assign rand_sets[17]: 703  LLC: 2048
rand_sets[17]: 703
Assign rand_sets[18]: 561  LLC: 2048
rand_sets[18]: 561
Assign rand_sets[19]: 990  LLC: 2048
rand_sets[19]: 990
Assign rand_sets[20]: 342  LLC: 2048
rand_sets[20]: 342
Assign rand_sets[21]: 882  LLC: 2048
rand_sets[21]: 882
Assign rand_sets[22]: 15  LLC: 2048
rand_sets[22]: 15
Assign rand_sets[23]: 71  LLC: 2048
rand_sets[23]: 71
Assign rand_sets[24]: 1127  LLC: 2048
rand_sets[24]: 1127
Assign rand_sets[25]: 1382  LLC: 2048
rand_sets[25]: 1382
Assign rand_sets[26]: 647  LLC: 2048
rand_sets[26]: 647
Assign rand_sets[27]: 857  LLC: 2048
rand_sets[27]: 857
Assign rand_sets[28]: 1450  LLC: 2048
rand_sets[28]: 1450
Assign rand_sets[29]: 1160  LLC: 2048
rand_sets[29]: 1160
Assign rand_sets[30]: 1852  LLC: 2048
rand_sets[30]: 1852
Assign rand_sets[31]: 1881  LLC: 2048
rand_sets[31]: 1881
Assign rand_sets[32]: 1770  LLC: 2048
rand_sets[32]: 1770
Assign rand_sets[33]: 1622  LLC: 2048
rand_sets[33]: 1622
Assign rand_sets[34]: 275  LLC: 2048
rand_sets[34]: 275
Assign rand_sets[35]: 635  LLC: 2048
rand_sets[35]: 635
Assign rand_sets[36]: 466  LLC: 2048
rand_sets[36]: 466
Assign rand_sets[37]: 1413  LLC: 2048
rand_sets[37]: 1413
Assign rand_sets[38]: 417  LLC: 2048
rand_sets[38]: 417
Assign rand_sets[39]: 472  LLC: 2048
rand_sets[39]: 472
Assign rand_sets[40]: 1340  LLC: 2048
rand_sets[40]: 1340
Assign rand_sets[41]: 852  LLC: 2048
rand_sets[41]: 852
Assign rand_sets[42]: 1365  LLC: 2048
rand_sets[42]: 1365
Assign rand_sets[43]: 47  LLC: 2048
rand_sets[43]: 47
Assign rand_sets[44]: 823  LLC: 2048
rand_sets[44]: 823
Assign rand_sets[45]: 686  LLC: 2048
rand_sets[45]: 686
Assign rand_sets[46]: 1637  LLC: 2048
rand_sets[46]: 1637
Assign rand_sets[47]: 1115  LLC: 2048
rand_sets[47]: 1115
Assign rand_sets[48]: 986  LLC: 2048
rand_sets[48]: 986
Assign rand_sets[49]: 258  LLC: 2048
rand_sets[49]: 258
Assign rand_sets[50]: 633  LLC: 2048
rand_sets[50]: 633
Assign rand_sets[51]: 920  LLC: 2048
rand_sets[51]: 920
Assign rand_sets[52]: 204  LLC: 2048
rand_sets[52]: 204
Assign rand_sets[53]: 227  LLC: 2048
rand_sets[53]: 227
Assign rand_sets[54]: 1818  LLC: 2048
rand_sets[54]: 1818
Assign rand_sets[55]: 886  LLC: 2048
rand_sets[55]: 886
Assign rand_sets[56]: 1422  LLC: 2048
rand_sets[56]: 1422
Assign rand_sets[57]: 607  LLC: 2048
rand_sets[57]: 607
Assign rand_sets[58]: 217  LLC: 2048
rand_sets[58]: 217
Assign rand_sets[59]: 1945  LLC: 2048
rand_sets[59]: 1945
Assign rand_sets[60]: 143  LLC: 2048
rand_sets[60]: 143
Assign rand_sets[61]: 1311  LLC: 2048
rand_sets[61]: 1311
Assign rand_sets[62]: 319  LLC: 2048
rand_sets[62]: 319
Assign rand_sets[63]: 1846  LLC: 2048
rand_sets[63]: 1846
 CLEAN-RRIP-POLICY-1: 1-0-2-3-0-1-0-1- CLEAN-RRIP-POLICY-2: 1-0-2-3-0-1-0-1-
 DIRTY-RRIP-POLICY-1: 1-0-1-3-1-1-0-1- DIRTY-RRIP-POLICY-2: 1-0-1-3-1-1-0-1-
 PSEL width: 10
Heartbeat CPU 0 instructions: 10000001 cycles: 7315982 heartbeat IPC: 1.36687 cumulative IPC: 1.36687 (Simulation time: 0 hr 0 min 15 sec) 
Heartbeat CPU 0 instructions: 20000000 cycles: 14307427 heartbeat IPC: 1.43032 cumulative IPC: 1.39788 (Simulation time: 0 hr 0 min 30 sec) 
Heartbeat CPU 0 instructions: 30000001 cycles: 21020169 heartbeat IPC: 1.4897 cumulative IPC: 1.4272 (Simulation time: 0 hr 0 min 47 sec) 
Heartbeat CPU 0 instructions: 40000000 cycles: 27480930 heartbeat IPC: 1.54781 cumulative IPC: 1.45555 (Simulation time: 0 hr 1 min 3 sec) 
Heartbeat CPU 0 instructions: 50000001 cycles: 33582508 heartbeat IPC: 1.63892 cumulative IPC: 1.48887 (Simulation time: 0 hr 1 min 19 sec) 
Heartbeat CPU 0 instructions: 60000000 cycles: 40063564 heartbeat IPC: 1.54296 cumulative IPC: 1.49762 (Simulation time: 0 hr 1 min 35 sec) 
Heartbeat CPU 0 instructions: 70000000 cycles: 47101346 heartbeat IPC: 1.4209 cumulative IPC: 1.48616 (Simulation time: 0 hr 1 min 51 sec) 
Heartbeat CPU 0 instructions: 80000000 cycles: 54190740 heartbeat IPC: 1.41056 cumulative IPC: 1.47627 (Simulation time: 0 hr 2 min 6 sec) 
Heartbeat CPU 0 instructions: 90000003 cycles: 61194939 heartbeat IPC: 1.42772 cumulative IPC: 1.47071 (Simulation time: 0 hr 2 min 21 sec) 
Heartbeat CPU 0 instructions: 100000000 cycles: 68361858 heartbeat IPC: 1.3953 cumulative IPC: 1.4628 (Simulation time: 0 hr 2 min 36 sec) 

Warmup complete CPU 0 instructions: 100000004 cycles: 68361859 (Simulation time: 0 hr 2 min 36 sec) 

Heartbeat CPU 0 instructions: 110000003 cycles: 95947109 heartbeat IPC: 0.362513 cumulative IPC: 0.362513 (Simulation time: 0 hr 3 min 5 sec) 
Heartbeat CPU 0 instructions: 120000000 cycles: 123378837 heartbeat IPC: 0.364541 cumulative IPC: 0.363524 (Simulation time: 0 hr 3 min 36 sec) 
Heartbeat CPU 0 instructions: 130000000 cycles: 148324696 heartbeat IPC: 0.400868 cumulative IPC: 0.375174 (Simulation time: 0 hr 4 min 5 sec) 
Heartbeat CPU 0 instructions: 140000000 cycles: 177685037 heartbeat IPC: 0.340596 cumulative IPC: 0.365888 (Simulation time: 0 hr 4 min 34 sec) 
Heartbeat CPU 0 instructions: 150000000 cycles: 207470039 heartbeat IPC: 0.335739 cumulative IPC: 0.359432 (Simulation time: 0 hr 5 min 4 sec) 
Heartbeat CPU 0 instructions: 160000000 cycles: 234854444 heartbeat IPC: 0.365171 cumulative IPC: 0.360376 (Simulation time: 0 hr 5 min 33 sec) 
Heartbeat CPU 0 instructions: 170000001 cycles: 262817611 heartbeat IPC: 0.357613 cumulative IPC: 0.359979 (Simulation time: 0 hr 6 min 4 sec) 
Heartbeat CPU 0 instructions: 180000000 cycles: 291205631 heartbeat IPC: 0.352261 cumulative IPC: 0.358996 (Simulation time: 0 hr 6 min 34 sec) 
Heartbeat CPU 0 instructions: 190000002 cycles: 319145383 heartbeat IPC: 0.357913 cumulative IPC: 0.358875 (Simulation time: 0 hr 7 min 4 sec) 
Heartbeat CPU 0 instructions: 200000000 cycles: 347430452 heartbeat IPC: 0.353543 cumulative IPC: 0.358335 (Simulation time: 0 hr 7 min 35 sec) 
Heartbeat CPU 0 instructions: 210000002 cycles: 375202959 heartbeat IPC: 0.360068 cumulative IPC: 0.358492 (Simulation time: 0 hr 8 min 5 sec) 
Heartbeat CPU 0 instructions: 220000000 cycles: 404226057 heartbeat IPC: 0.344553 cumulative IPC: 0.357287 (Simulation time: 0 hr 8 min 33 sec) 
Heartbeat CPU 0 instructions: 230000000 cycles: 431697542 heartbeat IPC: 0.364014 cumulative IPC: 0.357796 (Simulation time: 0 hr 9 min 2 sec) 
Heartbeat CPU 0 instructions: 240000000 cycles: 457603789 heartbeat IPC: 0.386007 cumulative IPC: 0.359673 (Simulation time: 0 hr 9 min 31 sec) 
Heartbeat CPU 0 instructions: 250000000 cycles: 487688762 heartbeat IPC: 0.332392 cumulative IPC: 0.357716 (Simulation time: 0 hr 10 min 2 sec) 
Heartbeat CPU 0 instructions: 260000000 cycles: 514746622 heartbeat IPC: 0.369578 cumulative IPC: 0.358435 (Simulation time: 0 hr 10 min 31 sec) 
Heartbeat CPU 0 instructions: 270000003 cycles: 543096349 heartbeat IPC: 0.352737 cumulative IPC: 0.358095 (Simulation time: 0 hr 11 min 2 sec) 
Heartbeat CPU 0 instructions: 280000000 cycles: 571215345 heartbeat IPC: 0.355631 cumulative IPC: 0.357957 (Simulation time: 0 hr 11 min 33 sec) 
Heartbeat CPU 0 instructions: 290000000 cycles: 600032083 heartbeat IPC: 0.347021 cumulative IPC: 0.357364 (Simulation time: 0 hr 12 min 4 sec) 
Heartbeat CPU 0 instructions: 300000000 cycles: 629792435 heartbeat IPC: 0.336018 cumulative IPC: 0.356233 (Simulation time: 0 hr 12 min 33 sec) 
Heartbeat CPU 0 instructions: 310000001 cycles: 659112110 heartbeat IPC: 0.341068 cumulative IPC: 0.35548 (Simulation time: 0 hr 13 min 3 sec) 
Heartbeat CPU 0 instructions: 320000000 cycles: 687216866 heartbeat IPC: 0.355812 cumulative IPC: 0.355495 (Simulation time: 0 hr 13 min 32 sec) 
Heartbeat CPU 0 instructions: 330000000 cycles: 715782159 heartbeat IPC: 0.350075 cumulative IPC: 0.355256 (Simulation time: 0 hr 14 min 1 sec) 
Heartbeat CPU 0 instructions: 340000000 cycles: 744994482 heartbeat IPC: 0.342321 cumulative IPC: 0.354698 (Simulation time: 0 hr 14 min 31 sec) 
Heartbeat CPU 0 instructions: 350000003 cycles: 771960616 heartbeat IPC: 0.370836 cumulative IPC: 0.355316 (Simulation time: 0 hr 15 min 0 sec) 
Heartbeat CPU 0 instructions: 360000000 cycles: 800026191 heartbeat IPC: 0.356308 cumulative IPC: 0.355354 (Simulation time: 0 hr 15 min 29 sec) 
Heartbeat CPU 0 instructions: 370000000 cycles: 828216418 heartbeat IPC: 0.354733 cumulative IPC: 0.355331 (Simulation time: 0 hr 15 min 57 sec) 
Heartbeat CPU 0 instructions: 380000000 cycles: 856728322 heartbeat IPC: 0.350731 cumulative IPC: 0.355165 (Simulation time: 0 hr 16 min 25 sec) 
Heartbeat CPU 0 instructions: 390000001 cycles: 884348461 heartbeat IPC: 0.362055 cumulative IPC: 0.355398 (Simulation time: 0 hr 16 min 54 sec) 
Heartbeat CPU 0 instructions: 400000000 cycles: 912994892 heartbeat IPC: 0.349084 cumulative IPC: 0.355184 (Simulation time: 0 hr 17 min 22 sec) 
Heartbeat CPU 0 instructions: 410000001 cycles: 940315834 heartbeat IPC: 0.36602 cumulative IPC: 0.355523 (Simulation time: 0 hr 17 min 50 sec) 
Heartbeat CPU 0 instructions: 420000000 cycles: 967658272 heartbeat IPC: 0.365732 cumulative IPC: 0.355834 (Simulation time: 0 hr 18 min 19 sec) 
Heartbeat CPU 0 instructions: 430000002 cycles: 995346867 heartbeat IPC: 0.36116 cumulative IPC: 0.355993 (Simulation time: 0 hr 18 min 47 sec) 
Heartbeat CPU 0 instructions: 440000000 cycles: 1024810470 heartbeat IPC: 0.339402 cumulative IPC: 0.355482 (Simulation time: 0 hr 19 min 16 sec) 
Heartbeat CPU 0 instructions: 450000002 cycles: 1054036578 heartbeat IPC: 0.34216 cumulative IPC: 0.355087 (Simulation time: 0 hr 19 min 44 sec) 
Heartbeat CPU 0 instructions: 460000000 cycles: 1081740117 heartbeat IPC: 0.360965 cumulative IPC: 0.355247 (Simulation time: 0 hr 20 min 13 sec) 
Heartbeat CPU 0 instructions: 470000000 cycles: 1109387761 heartbeat IPC: 0.361694 cumulative IPC: 0.355419 (Simulation time: 0 hr 20 min 41 sec) 
Heartbeat CPU 0 instructions: 480000000 cycles: 1137286275 heartbeat IPC: 0.358442 cumulative IPC: 0.355498 (Simulation time: 0 hr 21 min 10 sec) 
Heartbeat CPU 0 instructions: 490000000 cycles: 1164896289 heartbeat IPC: 0.362187 cumulative IPC: 0.355666 (Simulation time: 0 hr 21 min 38 sec) 
Heartbeat CPU 0 instructions: 500000000 cycles: 1193156497 heartbeat IPC: 0.353854 cumulative IPC: 0.35562 (Simulation time: 0 hr 22 min 6 sec) 
Heartbeat CPU 0 instructions: 510000000 cycles: 1228284736 heartbeat IPC: 0.284671 cumulative IPC: 0.353472 (Simulation time: 0 hr 22 min 39 sec) 
Heartbeat CPU 0 instructions: 520000000 cycles: 1256198402 heartbeat IPC: 0.358247 cumulative IPC: 0.353584 (Simulation time: 0 hr 23 min 8 sec) 
Heartbeat CPU 0 instructions: 530000001 cycles: 1285441936 heartbeat IPC: 0.341956 cumulative IPC: 0.353305 (Simulation time: 0 hr 23 min 38 sec) 
Heartbeat CPU 0 instructions: 540000000 cycles: 1313407427 heartbeat IPC: 0.357584 cumulative IPC: 0.353401 (Simulation time: 0 hr 24 min 7 sec) 
Heartbeat CPU 0 instructions: 550000001 cycles: 1342572823 heartbeat IPC: 0.342872 cumulative IPC: 0.35316 (Simulation time: 0 hr 24 min 38 sec) 
Heartbeat CPU 0 instructions: 560000000 cycles: 1367918389 heartbeat IPC: 0.394546 cumulative IPC: 0.353967 (Simulation time: 0 hr 25 min 7 sec) 
Heartbeat CPU 0 instructions: 570000000 cycles: 1397271973 heartbeat IPC: 0.340674 cumulative IPC: 0.353673 (Simulation time: 0 hr 25 min 37 sec) 
Heartbeat CPU 0 instructions: 580000000 cycles: 1425162096 heartbeat IPC: 0.35855 cumulative IPC: 0.353774 (Simulation time: 0 hr 26 min 7 sec) 
Heartbeat CPU 0 instructions: 590000001 cycles: 1449900237 heartbeat IPC: 0.404234 cumulative IPC: 0.354677 (Simulation time: 0 hr 26 min 35 sec) 
Heartbeat CPU 0 instructions: 600000000 cycles: 1475978354 heartbeat IPC: 0.383463 cumulative IPC: 0.35521 (Simulation time: 0 hr 27 min 4 sec) 
Finished CPU 0 instructions: 500000000 cycles: 1407616517 cumulative IPC: 0.35521 (Simulation time: 0 hr 27 min 4 sec) 

CPU 0 Branch Prediction Accuracy: 86.4311% MPKI: 26.2662
Number of Branches: 96788573 Number of Mispredictions: 13133102
Number of LOAD Instructions: 164682285
Number of LOAD Instructions (ROI): 164682285
Number of STORE Instructions: 78194750
Number of STORE Instructions (ROI): 78194750
Total Destination Memory Operands: 83268534
Total Destination Memory Operands (ROI): 83268534
Total Source Memory Operands: 164712438
Total Source Memory Operands (ROI): 164712438
Number of DEPENDED LOADS: 7061355
Number of DEPENDED LOADS (ROI): 7061355
Number of SQ_ADDED: 83268522
Number of SQ_ADDED (ROI): 83268522
Number of LQ_ADDED: 236674730
Number of LQ_ADDED (ROI): 236674730
Number of Instructions read from trace: 600000066

ChampSim completed all CPUs

Region of Interest Statistics

CPU 0 cumulative IPC: 0.35521 instructions: 500000000 cycles: 1407616517
ITLB TOTAL     ACCESS:  100510121  HIT:  100305675  MISS:     204446
ITLB LOAD      ACCESS:  100510121  HIT:  100305675  MISS:     204446
ITLB RFO       ACCESS:          0  HIT:          0  MISS:          0
ITLB PREFETCH  ACCESS:          0  HIT:          0  MISS:          0
ITLB WRITEBACK ACCESS:          0  HIT:          0  MISS:          0
ITLB PREFETCH  REQUESTED:          0  ISSUED:          0  USEFUL:          0  USELESS:          0
ITLB TOTAL MSHR MERGED:     172425
ITLB LOAD MSHR MERGED:     172425
ITLB RFO MSHR MERGED:          0
ITLB PREFETCH MSHR MERGED:          0
ITLB WRITEBACK MSHR MERGED:          0
ITLB TOTAL ACCESSES:  100682546 HITS:  100305675 MISSES:     376871
ITLB LOAD ACCESSES:  100682546 HITS:  100305675 MISSES:     376871
ITLB RFO ACCESSES:          0 HITS:          0 MISSES:          0
ITLB PREFETCH ACCESSES:          0 HITS:          0 MISSES:          0
ITLB WRITEBACK ACCESSES:          0 HITS:          0 MISSES:          0
ITLB RQ ACCESS:  500000057
ITLB RQ TO_CACHE:  100682546
ITLB RQ MERGED:  399317511
ITLB RQ FORWARD:          0
ITLB WQ ACCESS:          0
ITLB WQ TO_CACHE:          0
ITLB WQ MERGED:          0
ITLB WQ FORWARD:          0
DTLB TOTAL     ACCESS:  165334510  HIT:  164700157  MISS:     634353
DTLB LOAD      ACCESS:  106290550  HIT:  105720556  MISS:     569994
DTLB RFO       ACCESS:   59043960  HIT:   58979601  MISS:      64359
DTLB PREFETCH  ACCESS:          0  HIT:          0  MISS:          0
DTLB WRITEBACK ACCESS:          0  HIT:          0  MISS:          0
DTLB PREFETCH  REQUESTED:          0  ISSUED:          0  USEFUL:          0  USELESS:          0
DTLB TOTAL MSHR MERGED:      99990
DTLB LOAD MSHR MERGED:      59422
DTLB RFO MSHR MERGED:      40568
DTLB PREFETCH MSHR MERGED:          0
DTLB WRITEBACK MSHR MERGED:          0
DTLB TOTAL ACCESSES:  165434500 HITS:  164700157 MISSES:     734343
DTLB LOAD ACCESSES:  106349972 HITS:  105720556 MISSES:     629416
DTLB RFO ACCESSES:   59084528 HITS:   58979601 MISSES:     104927
DTLB PREFETCH ACCESSES:          0 HITS:          0 MISSES:          0
DTLB WRITEBACK ACCESSES:          0 HITS:          0 MISSES:          0
DTLB RQ ACCESS:  200309549
DTLB RQ TO_CACHE:  165434500
DTLB RQ MERGED:   34875049
DTLB RQ FORWARD:          0
DTLB WQ ACCESS:          0
DTLB WQ TO_CACHE:          0
DTLB WQ MERGED:          0
DTLB WQ FORWARD:          0
L1D TOTAL     ACCESS:  281800743  HIT:  273891493  MISS:    7909250
L1D LOAD      ACCESS:  110410261  HIT:  107129461  MISS:    3280800
L1D RFO       ACCESS:   67114153  HIT:   66223452  MISS:     890701
L1D PREFETCH  ACCESS:  104276329  HIT:  100538580  MISS:    3737749
L1D WRITEBACK ACCESS:          0  HIT:          0  MISS:          0
L1D PREFETCH  REQUESTED:  110815400  ISSUED:  109116147  USEFUL:    1658525  USELESS:    2079188
L1D TOTAL MSHR MERGED:    2899972
L1D LOAD MSHR MERGED:     505405
L1D RFO MSHR MERGED:    1871895
L1D PREFETCH MSHR MERGED:     522672
L1D WRITEBACK MSHR MERGED:          0
L1D TOTAL ACCESSES:  284728173 HITS:  273918951 MISSES:   10809222
L1D LOAD ACCESSES:  110816846 HITS:  107130907 MISSES:    3685939
L1D RFO ACCESSES:   68974145 HITS:   66223452 MISSES:    2750693
L1D PREFETCH ACCESSES:  104937182 HITS:  100564592 MISSES:    4372590
L1D WRITEBACK ACCESSES:          0 HITS:          0 MISSES:          0
L1D RQ ACCESS:  130756946
L1D RQ TO_CACHE:  110815403
L1D RQ MERGED:   19940097
L1D RQ FORWARD:          0
L1D WQ ACCESS:   69552603
L1D WQ TO_CACHE:   68974146
L1D WQ MERGED:     578457
L1D WQ FORWARD:      27458
L1I TOTAL     ACCESS:  126557888  HIT:  122319334  MISS:    4238554
L1I LOAD      ACCESS:  126557888  HIT:  122319334  MISS:    4238554
L1I RFO       ACCESS:          0  HIT:          0  MISS:          0
L1I PREFETCH  ACCESS:          0  HIT:          0  MISS:          0
L1I WRITEBACK ACCESS:          0  HIT:          0  MISS:          0
L1I PREFETCH  REQUESTED:          0  ISSUED:          0  USEFUL:          0  USELESS:          0
L1I TOTAL MSHR MERGED:    1834455
L1I LOAD MSHR MERGED:    1834455
L1I RFO MSHR MERGED:          0
L1I PREFETCH MSHR MERGED:          0
L1I WRITEBACK MSHR MERGED:          0
L1I TOTAL ACCESSES:  128392346 HITS:  122319334 MISSES:    6073012
L1I LOAD ACCESSES:  128392346 HITS:  122319334 MISSES:    6073012
L1I RFO ACCESSES:          0 HITS:          0 MISSES:          0
L1I PREFETCH ACCESSES:          0 HITS:          0 MISSES:          0
L1I WRITEBACK ACCESSES:          0 HITS:          0 MISSES:          0
L1I RQ ACCESS:  500000057
L1I RQ TO_CACHE:  128392346
L1I RQ MERGED:  371607711
L1I RQ FORWARD:          0
L1I WQ ACCESS:          0
L1I WQ TO_CACHE:          0
L1I WQ MERGED:          0
L1I WQ FORWARD:          0
L2C TOTAL     ACCESS:   14904829  HIT:   11158435  MISS:    3746394
L2C LOAD      ACCESS:    7418882  HIT:    5098842  MISS:    2320040
L2C RFO       ACCESS:     878701  HIT:     409924  MISS:     468777
L2C PREFETCH  ACCESS:    4568008  HIT:    3627693  MISS:     940315
L2C WRITEBACK ACCESS:    2039238  HIT:    2021976  MISS:      17262
L2C PREFETCH  REQUESTED:     842688  ISSUED:     842688  USEFUL:     203315  USELESS:     736706
L2C TOTAL MSHR MERGED:       7326
L2C LOAD MSHR MERGED:        829
L2C RFO MSHR MERGED:          0
L2C PREFETCH MSHR MERGED:       6497
L2C WRITEBACK MSHR MERGED:          0
L2C TOTAL ACCESSES:   14913046 HITS:   11158880 MISSES:    3754166
L2C LOAD ACCESSES:    7419088 HITS:    5099048 MISSES:    2320040
L2C RFO ACCESSES:     878798 HITS:     410021 MISSES:     468777
L2C PREFETCH ACCESSES:    4575922 HITS:    3627835 MISSES:     948087
L2C WRITEBACK ACCESSES:    2039238 HITS:    2021976 MISSES:      17262
L2C RQ ACCESS:    8297889
L2C RQ TO_CACHE:    8297586
L2C RQ MERGED:          0
L2C RQ FORWARD:          0
L2C WQ ACCESS:    2039238
L2C WQ TO_CACHE:    2039238
L2C WQ MERGED:          0
L2C WQ FORWARD:        445
LLC TOTAL     ACCESS:    4609670  HIT:    3940017  MISS:     669653
LLC LOAD      ACCESS:    2319198  HIT:    2099085  MISS:     220113
LLC RFO       ACCESS:     468766  HIT:     398435  MISS:      70331
LLC PREFETCH  ACCESS:     941467  HIT:     597302  MISS:     344165
LLC WRITEBACK ACCESS:     880239  HIT:     845195  MISS:      35044
LLC PREFETCH  REQUESTED:          0  ISSUED:          0  USEFUL:      15118  USELESS:     329549
LLC TOTAL MSHR MERGED:        101
LLC LOAD MSHR MERGED:         40
LLC RFO MSHR MERGED:          0
LLC PREFETCH MSHR MERGED:         61
LLC WRITEBACK MSHR MERGED:          0
LLC TOTAL ACCESSES:    4609806 HITS:    3940052 MISSES:     669754
LLC LOAD ACCESSES:    2319211 HITS:    2099098 MISSES:     220113
LLC RFO ACCESSES:     468777 HITS:     398446 MISSES:      70331
LLC PREFETCH ACCESSES:     941579 HITS:     597313 MISSES:     344266
LLC WRITEBACK ACCESSES:     880239 HITS:     845195 MISSES:      35044
LLC 0 RQ ACCESS:    2787988
LLC 0 RQ TO_CACHE:    2787964
LLC 0 RQ MERGED:          0
LLC 0 RQ FORWARD:          0
LLC WQ ACCESS:     880239
LLC WQ TO_CACHE:     880239
LLC WQ MERGED:          0
LLC WQ FORWARD:         35
Major fault: 0 Minor fault: 12862
CPU 0 L1D next line prefetcher final stats
CPU 0 L2C PC-based stride prefetcher final stats
All Misses: 786093
All Hits: 4640583
SD Algo Stats - Switches: 0 SRR-Repls: 257710 BRR-Repls: 0

DRAM Statistics
 CHANNEL 0
 RQ ROW_BUFFER_HIT:     119039  ROW_BUFFER_MISS:     514559
 DBUS_CONGESTED:     369376
 WQ ROW_BUFFER_HIT:      14907  ROW_BUFFER_MISS:     184934  FULL:          0

 AVG_CONGESTED_CYCLE: 13
LOADS RETIRED: 136549171
INSTR RETIRED: 500000000
