
*** ChampSim Multicore Out-of-Order Simulator ***

Warmup Instructions: 100000000
Simulation Instructions: 500000000
Number of CPUs: 1
LLC sets: 2048
LLC ways: 16
Clean RRIP Policies: 213230102132301 Dirty RRIP Policies: 2213031122130311 PSEL Width: 10 Track Set: 4294967295 PSEL Mask: 1 Demote Mask: 1340013013400130DS Algo: 0Window size: 0
Off-chip DRAM Size: 4096 MB Channels: 1 Width: 64-bit Data Rate: 1600 MT/s

CPU 0 runs /mnt/beegfs/iconst01/spec2017/Omnetpp.trace.gz
NOT SORTED
TRACE STRING: /mnt/beegfs/iconst01/spec2017/Omnetpp.trace.gz
SORTED
TRACE STRING: /mnt/beegfs/iconst01/spec2017/Omnetpp.trace.gz
INITIAL
TRACE STRING: /mnt/beegfs/iconst01/spec2017/Omnetpp.trace.gz

champsim_seed used: 739

CPU 0 L1D next line prefetcher
CPU 0 L2C IP-based stride prefetcher
Initialize DRRIP state
Assign rand_sets[0]: 454  LLC: 2048
rand_sets[0]: 454
Assign rand_sets[1]: 1662  LLC: 2048
rand_sets[1]: 1662
Assign rand_sets[2]: 1921  LLC: 2048
rand_sets[2]: 1921
Assign rand_sets[3]: 1131  LLC: 2048
rand_sets[3]: 1131
Assign rand_sets[4]: 331  LLC: 2048
rand_sets[4]: 331
Assign rand_sets[5]: 1531  LLC: 2048
rand_sets[5]: 1531
Assign rand_sets[6]: 482  LLC: 2048
rand_sets[6]: 482
Assign rand_sets[7]: 1275  LLC: 2048
rand_sets[7]: 1275
Assign rand_sets[8]: 1876  LLC: 2048
rand_sets[8]: 1876
Assign rand_sets[9]: 2038  LLC: 2048
rand_sets[9]: 2038
Assign rand_sets[10]: 701  LLC: 2048
rand_sets[10]: 701
Assign rand_sets[11]: 479  LLC: 2048
rand_sets[11]: 479
Assign rand_sets[12]: 892  LLC: 2048
rand_sets[12]: 892
Assign rand_sets[13]: 1820  LLC: 2048
rand_sets[13]: 1820
Assign rand_sets[14]: 1505  LLC: 2048
rand_sets[14]: 1505
Assign rand_sets[15]: 1159  LLC: 2048
rand_sets[15]: 1159
Assign rand_sets[16]: 513  LLC: 2048
rand_sets[16]: 513
Assign rand_sets[17]: 703  LLC: 2048
rand_sets[17]: 703
Assign rand_sets[18]: 561  LLC: 2048
rand_sets[18]: 561
Assign rand_sets[19]: 990  LLC: 2048
rand_sets[19]: 990
Assign rand_sets[20]: 342  LLC: 2048
rand_sets[20]: 342
Assign rand_sets[21]: 882  LLC: 2048
rand_sets[21]: 882
Assign rand_sets[22]: 15  LLC: 2048
rand_sets[22]: 15
Assign rand_sets[23]: 71  LLC: 2048
rand_sets[23]: 71
Assign rand_sets[24]: 1127  LLC: 2048
rand_sets[24]: 1127
Assign rand_sets[25]: 1382  LLC: 2048
rand_sets[25]: 1382
Assign rand_sets[26]: 647  LLC: 2048
rand_sets[26]: 647
Assign rand_sets[27]: 857  LLC: 2048
rand_sets[27]: 857
Assign rand_sets[28]: 1450  LLC: 2048
rand_sets[28]: 1450
Assign rand_sets[29]: 1160  LLC: 2048
rand_sets[29]: 1160
Assign rand_sets[30]: 1852  LLC: 2048
rand_sets[30]: 1852
Assign rand_sets[31]: 1881  LLC: 2048
rand_sets[31]: 1881
Assign rand_sets[32]: 1770  LLC: 2048
rand_sets[32]: 1770
Assign rand_sets[33]: 1622  LLC: 2048
rand_sets[33]: 1622
Assign rand_sets[34]: 275  LLC: 2048
rand_sets[34]: 275
Assign rand_sets[35]: 635  LLC: 2048
rand_sets[35]: 635
Assign rand_sets[36]: 466  LLC: 2048
rand_sets[36]: 466
Assign rand_sets[37]: 1413  LLC: 2048
rand_sets[37]: 1413
Assign rand_sets[38]: 417  LLC: 2048
rand_sets[38]: 417
Assign rand_sets[39]: 472  LLC: 2048
rand_sets[39]: 472
Assign rand_sets[40]: 1340  LLC: 2048
rand_sets[40]: 1340
Assign rand_sets[41]: 852  LLC: 2048
rand_sets[41]: 852
Assign rand_sets[42]: 1365  LLC: 2048
rand_sets[42]: 1365
Assign rand_sets[43]: 47  LLC: 2048
rand_sets[43]: 47
Assign rand_sets[44]: 823  LLC: 2048
rand_sets[44]: 823
Assign rand_sets[45]: 686  LLC: 2048
rand_sets[45]: 686
Assign rand_sets[46]: 1637  LLC: 2048
rand_sets[46]: 1637
Assign rand_sets[47]: 1115  LLC: 2048
rand_sets[47]: 1115
Assign rand_sets[48]: 986  LLC: 2048
rand_sets[48]: 986
Assign rand_sets[49]: 258  LLC: 2048
rand_sets[49]: 258
Assign rand_sets[50]: 633  LLC: 2048
rand_sets[50]: 633
Assign rand_sets[51]: 920  LLC: 2048
rand_sets[51]: 920
Assign rand_sets[52]: 204  LLC: 2048
rand_sets[52]: 204
Assign rand_sets[53]: 227  LLC: 2048
rand_sets[53]: 227
Assign rand_sets[54]: 1818  LLC: 2048
rand_sets[54]: 1818
Assign rand_sets[55]: 886  LLC: 2048
rand_sets[55]: 886
Assign rand_sets[56]: 1422  LLC: 2048
rand_sets[56]: 1422
Assign rand_sets[57]: 607  LLC: 2048
rand_sets[57]: 607
Assign rand_sets[58]: 217  LLC: 2048
rand_sets[58]: 217
Assign rand_sets[59]: 1945  LLC: 2048
rand_sets[59]: 1945
Assign rand_sets[60]: 143  LLC: 2048
rand_sets[60]: 143
Assign rand_sets[61]: 1311  LLC: 2048
rand_sets[61]: 1311
Assign rand_sets[62]: 319  LLC: 2048
rand_sets[62]: 319
Assign rand_sets[63]: 1846  LLC: 2048
rand_sets[63]: 1846
 CLEAN-RRIP-POLICY-1: 0-2-1-3-2-3-0-1- CLEAN-RRIP-POLICY-2: 0-2-1-3-2-3-0-1-
 DIRTY-RRIP-POLICY-1: 2-2-1-3-0-3-1-1- DIRTY-RRIP-POLICY-2: 2-2-1-3-0-3-1-1-
 PSEL width: 10
Heartbeat CPU 0 instructions: 10000000 cycles: 7320208 heartbeat IPC: 1.36608 cumulative IPC: 1.36608 (Simulation time: 0 hr 0 min 19 sec) 
Heartbeat CPU 0 instructions: 20000000 cycles: 14624187 heartbeat IPC: 1.36912 cumulative IPC: 1.3676 (Simulation time: 0 hr 0 min 38 sec) 
Heartbeat CPU 0 instructions: 30000003 cycles: 21925711 heartbeat IPC: 1.36958 cumulative IPC: 1.36826 (Simulation time: 0 hr 0 min 57 sec) 
Heartbeat CPU 0 instructions: 40000000 cycles: 29214191 heartbeat IPC: 1.37203 cumulative IPC: 1.3692 (Simulation time: 0 hr 1 min 16 sec) 
Heartbeat CPU 0 instructions: 50000000 cycles: 36490899 heartbeat IPC: 1.37425 cumulative IPC: 1.3702 (Simulation time: 0 hr 1 min 36 sec) 
Heartbeat CPU 0 instructions: 60000000 cycles: 43771214 heartbeat IPC: 1.37357 cumulative IPC: 1.37076 (Simulation time: 0 hr 1 min 55 sec) 
Heartbeat CPU 0 instructions: 70000001 cycles: 51056812 heartbeat IPC: 1.37257 cumulative IPC: 1.37102 (Simulation time: 0 hr 2 min 14 sec) 
Heartbeat CPU 0 instructions: 80000000 cycles: 58331994 heartbeat IPC: 1.37454 cumulative IPC: 1.37146 (Simulation time: 0 hr 2 min 34 sec) 
Heartbeat CPU 0 instructions: 90000000 cycles: 65638661 heartbeat IPC: 1.36861 cumulative IPC: 1.37114 (Simulation time: 0 hr 2 min 53 sec) 
Heartbeat CPU 0 instructions: 100000000 cycles: 72931067 heartbeat IPC: 1.37129 cumulative IPC: 1.37116 (Simulation time: 0 hr 3 min 12 sec) 

Warmup complete CPU 0 instructions: 100000002 cycles: 72931068 (Simulation time: 0 hr 3 min 12 sec) 

Heartbeat CPU 0 instructions: 110000002 cycles: 113465906 heartbeat IPC: 0.246701 cumulative IPC: 0.246701 (Simulation time: 0 hr 3 min 50 sec) 
Heartbeat CPU 0 instructions: 120000000 cycles: 153741552 heartbeat IPC: 0.248289 cumulative IPC: 0.247493 (Simulation time: 0 hr 4 min 27 sec) 
Heartbeat CPU 0 instructions: 130000002 cycles: 194214810 heartbeat IPC: 0.247077 cumulative IPC: 0.247354 (Simulation time: 0 hr 5 min 5 sec) 
Heartbeat CPU 0 instructions: 140000000 cycles: 234812966 heartbeat IPC: 0.246317 cumulative IPC: 0.247094 (Simulation time: 0 hr 5 min 43 sec) 
Heartbeat CPU 0 instructions: 150000002 cycles: 274942193 heartbeat IPC: 0.249195 cumulative IPC: 0.247511 (Simulation time: 0 hr 6 min 21 sec) 
Heartbeat CPU 0 instructions: 160000000 cycles: 315134387 heartbeat IPC: 0.248804 cumulative IPC: 0.247726 (Simulation time: 0 hr 6 min 58 sec) 
Heartbeat CPU 0 instructions: 170000001 cycles: 354577293 heartbeat IPC: 0.253531 cumulative IPC: 0.248539 (Simulation time: 0 hr 7 min 36 sec) 
Heartbeat CPU 0 instructions: 180000000 cycles: 394776597 heartbeat IPC: 0.248761 cumulative IPC: 0.248566 (Simulation time: 0 hr 8 min 13 sec) 
Heartbeat CPU 0 instructions: 190000002 cycles: 434975748 heartbeat IPC: 0.248762 cumulative IPC: 0.248588 (Simulation time: 0 hr 8 min 50 sec) 
Heartbeat CPU 0 instructions: 200000000 cycles: 476293996 heartbeat IPC: 0.242024 cumulative IPC: 0.247916 (Simulation time: 0 hr 9 min 28 sec) 
Heartbeat CPU 0 instructions: 210000003 cycles: 516475187 heartbeat IPC: 0.248873 cumulative IPC: 0.248002 (Simulation time: 0 hr 10 min 6 sec) 
Heartbeat CPU 0 instructions: 220000000 cycles: 556906658 heartbeat IPC: 0.247332 cumulative IPC: 0.247946 (Simulation time: 0 hr 10 min 43 sec) 
Heartbeat CPU 0 instructions: 230000000 cycles: 597326275 heartbeat IPC: 0.247405 cumulative IPC: 0.247905 (Simulation time: 0 hr 11 min 21 sec) 
Heartbeat CPU 0 instructions: 240000000 cycles: 637487327 heartbeat IPC: 0.248997 cumulative IPC: 0.247982 (Simulation time: 0 hr 11 min 58 sec) 
Heartbeat CPU 0 instructions: 250000000 cycles: 677690617 heartbeat IPC: 0.248736 cumulative IPC: 0.248032 (Simulation time: 0 hr 12 min 35 sec) 
Heartbeat CPU 0 instructions: 260000000 cycles: 717996988 heartbeat IPC: 0.2481 cumulative IPC: 0.248037 (Simulation time: 0 hr 13 min 12 sec) 
Heartbeat CPU 0 instructions: 270000000 cycles: 758340787 heartbeat IPC: 0.24787 cumulative IPC: 0.248027 (Simulation time: 0 hr 13 min 49 sec) 
Heartbeat CPU 0 instructions: 280000000 cycles: 799045549 heartbeat IPC: 0.245671 cumulative IPC: 0.247895 (Simulation time: 0 hr 14 min 27 sec) 
Heartbeat CPU 0 instructions: 290000001 cycles: 838968798 heartbeat IPC: 0.250481 cumulative IPC: 0.24803 (Simulation time: 0 hr 15 min 4 sec) 
Heartbeat CPU 0 instructions: 300000000 cycles: 879551245 heartbeat IPC: 0.246412 cumulative IPC: 0.247948 (Simulation time: 0 hr 15 min 40 sec) 
Heartbeat CPU 0 instructions: 310000000 cycles: 920104665 heartbeat IPC: 0.246588 cumulative IPC: 0.247883 (Simulation time: 0 hr 16 min 17 sec) 
Heartbeat CPU 0 instructions: 320000000 cycles: 960345102 heartbeat IPC: 0.248506 cumulative IPC: 0.247911 (Simulation time: 0 hr 16 min 54 sec) 
Heartbeat CPU 0 instructions: 330000000 cycles: 1000573138 heartbeat IPC: 0.248583 cumulative IPC: 0.24794 (Simulation time: 0 hr 17 min 31 sec) 
Heartbeat CPU 0 instructions: 340000000 cycles: 1041408209 heartbeat IPC: 0.244888 cumulative IPC: 0.247812 (Simulation time: 0 hr 18 min 8 sec) 
Heartbeat CPU 0 instructions: 350000001 cycles: 1081720411 heartbeat IPC: 0.248064 cumulative IPC: 0.247822 (Simulation time: 0 hr 18 min 45 sec) 
Heartbeat CPU 0 instructions: 360000000 cycles: 1122335799 heartbeat IPC: 0.246212 cumulative IPC: 0.24776 (Simulation time: 0 hr 19 min 22 sec) 
Heartbeat CPU 0 instructions: 370000000 cycles: 1162033425 heartbeat IPC: 0.251904 cumulative IPC: 0.247911 (Simulation time: 0 hr 19 min 58 sec) 
Heartbeat CPU 0 instructions: 380000000 cycles: 1202633917 heartbeat IPC: 0.246302 cumulative IPC: 0.247853 (Simulation time: 0 hr 20 min 35 sec) 
Heartbeat CPU 0 instructions: 390000001 cycles: 1242779624 heartbeat IPC: 0.249093 cumulative IPC: 0.247895 (Simulation time: 0 hr 21 min 11 sec) 
Heartbeat CPU 0 instructions: 400000000 cycles: 1283015449 heartbeat IPC: 0.248535 cumulative IPC: 0.247917 (Simulation time: 0 hr 21 min 48 sec) 
Heartbeat CPU 0 instructions: 410000000 cycles: 1323095869 heartbeat IPC: 0.249498 cumulative IPC: 0.247967 (Simulation time: 0 hr 22 min 24 sec) 
Heartbeat CPU 0 instructions: 420000000 cycles: 1363214247 heartbeat IPC: 0.249262 cumulative IPC: 0.248008 (Simulation time: 0 hr 23 min 1 sec) 
Heartbeat CPU 0 instructions: 430000000 cycles: 1403388573 heartbeat IPC: 0.248915 cumulative IPC: 0.248035 (Simulation time: 0 hr 23 min 37 sec) 
Heartbeat CPU 0 instructions: 440000000 cycles: 1443609108 heartbeat IPC: 0.248629 cumulative IPC: 0.248052 (Simulation time: 0 hr 24 min 14 sec) 
Heartbeat CPU 0 instructions: 450000002 cycles: 1483708568 heartbeat IPC: 0.24938 cumulative IPC: 0.24809 (Simulation time: 0 hr 24 min 50 sec) 
Heartbeat CPU 0 instructions: 460000000 cycles: 1523224155 heartbeat IPC: 0.253065 cumulative IPC: 0.248226 (Simulation time: 0 hr 25 min 27 sec) 
Heartbeat CPU 0 instructions: 470000000 cycles: 1563616146 heartbeat IPC: 0.247574 cumulative IPC: 0.248208 (Simulation time: 0 hr 26 min 3 sec) 
Heartbeat CPU 0 instructions: 480000000 cycles: 1603624750 heartbeat IPC: 0.249946 cumulative IPC: 0.248253 (Simulation time: 0 hr 26 min 40 sec) 
Heartbeat CPU 0 instructions: 490000001 cycles: 1643803188 heartbeat IPC: 0.24889 cumulative IPC: 0.24827 (Simulation time: 0 hr 27 min 17 sec) 
Heartbeat CPU 0 instructions: 500000000 cycles: 1684162507 heartbeat IPC: 0.247774 cumulative IPC: 0.248257 (Simulation time: 0 hr 27 min 53 sec) 
Heartbeat CPU 0 instructions: 510000000 cycles: 1724011768 heartbeat IPC: 0.250946 cumulative IPC: 0.248322 (Simulation time: 0 hr 28 min 29 sec) 
Heartbeat CPU 0 instructions: 520000000 cycles: 1764601654 heartbeat IPC: 0.246367 cumulative IPC: 0.248275 (Simulation time: 0 hr 29 min 5 sec) 
Heartbeat CPU 0 instructions: 530000000 cycles: 1804623996 heartbeat IPC: 0.24986 cumulative IPC: 0.248312 (Simulation time: 0 hr 29 min 40 sec) 
Heartbeat CPU 0 instructions: 540000000 cycles: 1844419463 heartbeat IPC: 0.251285 cumulative IPC: 0.248379 (Simulation time: 0 hr 30 min 14 sec) 
Heartbeat CPU 0 instructions: 550000001 cycles: 1884957679 heartbeat IPC: 0.246681 cumulative IPC: 0.248341 (Simulation time: 0 hr 30 min 48 sec) 
Heartbeat CPU 0 instructions: 560000000 cycles: 1925567433 heartbeat IPC: 0.246246 cumulative IPC: 0.248295 (Simulation time: 0 hr 31 min 23 sec) 
Heartbeat CPU 0 instructions: 570000003 cycles: 1966179538 heartbeat IPC: 0.246232 cumulative IPC: 0.248251 (Simulation time: 0 hr 31 min 57 sec) 
Heartbeat CPU 0 instructions: 580000000 cycles: 2006568492 heartbeat IPC: 0.247592 cumulative IPC: 0.248237 (Simulation time: 0 hr 32 min 32 sec) 
Heartbeat CPU 0 instructions: 590000001 cycles: 2047344028 heartbeat IPC: 0.245245 cumulative IPC: 0.248175 (Simulation time: 0 hr 33 min 6 sec) 
Heartbeat CPU 0 instructions: 600000000 cycles: 2087932576 heartbeat IPC: 0.246375 cumulative IPC: 0.248139 (Simulation time: 0 hr 33 min 41 sec) 
Finished CPU 0 instructions: 500000000 cycles: 2015001516 cumulative IPC: 0.248139 (Simulation time: 0 hr 33 min 41 sec) 

CPU 0 Branch Prediction Accuracy: 96.2429% MPKI: 5.85335
Number of Branches: 77897976 Number of Mispredictions: 2926674
Number of LOAD Instructions: 193081861
Number of LOAD Instructions (ROI): 193081861
Number of STORE Instructions: 97310749
Number of STORE Instructions (ROI): 97310749
Total Destination Memory Operands: 106368027
Total Destination Memory Operands (ROI): 106368027
Total Source Memory Operands: 193081861
Total Source Memory Operands (ROI): 193081861
Number of DEPENDED LOADS: 6453580
Number of DEPENDED LOADS (ROI): 6453580
Number of SQ_ADDED: 106367982
Number of SQ_ADDED (ROI): 106367982
Number of LQ_ADDED: 427410675
Number of LQ_ADDED (ROI): 427410675
Number of Instructions read from trace: 600000256

ChampSim completed all CPUs

Region of Interest Statistics

CPU 0 cumulative IPC: 0.248139 instructions: 500000000 cycles: 2015001516
ITLB TOTAL     ACCESS:  151164873  HIT:  151149042  MISS:      15831
ITLB LOAD      ACCESS:  151164873  HIT:  151149042  MISS:      15831
ITLB RFO       ACCESS:          0  HIT:          0  MISS:          0
ITLB PREFETCH  ACCESS:          0  HIT:          0  MISS:          0
ITLB WRITEBACK ACCESS:          0  HIT:          0  MISS:          0
ITLB PREFETCH  REQUESTED:          0  ISSUED:          0  USEFUL:          0  USELESS:          0
ITLB TOTAL MSHR MERGED:      17727
ITLB LOAD MSHR MERGED:      17727
ITLB RFO MSHR MERGED:          0
ITLB PREFETCH MSHR MERGED:          0
ITLB WRITEBACK MSHR MERGED:          0
ITLB TOTAL ACCESSES:  151182600 HITS:  151149042 MISSES:      33558
ITLB LOAD ACCESSES:  151182600 HITS:  151149042 MISSES:      33558
ITLB RFO ACCESSES:          0 HITS:          0 MISSES:          0
ITLB PREFETCH ACCESSES:          0 HITS:          0 MISSES:          0
ITLB WRITEBACK ACCESSES:          0 HITS:          0 MISSES:          0
ITLB RQ ACCESS:  500000242
ITLB RQ TO_CACHE:  151182600
ITLB RQ MERGED:  348817642
ITLB RQ FORWARD:          0
ITLB WQ ACCESS:          0
ITLB WQ TO_CACHE:          0
ITLB WQ MERGED:          0
ITLB WQ FORWARD:          0
DTLB TOTAL     ACCESS:  199551226  HIT:  194172267  MISS:    5378959
DTLB LOAD      ACCESS:  123121584  HIT:  118103130  MISS:    5018454
DTLB RFO       ACCESS:   76429642  HIT:   76069137  MISS:     360505
DTLB PREFETCH  ACCESS:          0  HIT:          0  MISS:          0
DTLB WRITEBACK ACCESS:          0  HIT:          0  MISS:          0
DTLB PREFETCH  REQUESTED:          0  ISSUED:          0  USEFUL:          0  USELESS:          0
DTLB TOTAL MSHR MERGED:     916486
DTLB LOAD MSHR MERGED:     807118
DTLB RFO MSHR MERGED:     109368
DTLB PREFETCH MSHR MERGED:          0
DTLB WRITEBACK MSHR MERGED:          0
DTLB TOTAL ACCESSES:  200467712 HITS:  194172267 MISSES:    6295445
DTLB LOAD ACCESSES:  123928702 HITS:  118103130 MISSES:    5825572
DTLB RFO ACCESSES:   76539010 HITS:   76069137 MISSES:     469873
DTLB PREFETCH ACCESSES:          0 HITS:          0 MISSES:          0
DTLB WRITEBACK ACCESSES:          0 HITS:          0 MISSES:          0
DTLB RQ ACCESS:  243872037
DTLB RQ TO_CACHE:  200467712
DTLB RQ MERGED:   43404325
DTLB RQ FORWARD:          0
DTLB WQ ACCESS:          0
DTLB WQ TO_CACHE:          0
DTLB WQ MERGED:          0
DTLB WQ FORWARD:          0
L1D TOTAL     ACCESS:  335547362  HIT:  317451395  MISS:   18095967
L1D LOAD      ACCESS:  127674882  HIT:  118727945  MISS:    8946937
L1D RFO       ACCESS:   87076863  HIT:   86284977  MISS:     791886
L1D PREFETCH  ACCESS:  120795617  HIT:  112438473  MISS:    8357144
L1D WRITEBACK ACCESS:          0  HIT:          0  MISS:          0
L1D PREFETCH  REQUESTED:  128464245  ISSUED:  126866249  USEFUL:    1737513  USELESS:    6619643
L1D TOTAL MSHR MERGED:    3884687
L1D LOAD MSHR MERGED:     957391
L1D RFO MSHR MERGED:    1077912
L1D PREFETCH MSHR MERGED:    1849384
L1D WRITEBACK MSHR MERGED:          0
L1D TOTAL ACCESSES:  339517355 HITS:  317536701 MISSES:   21980654
L1D LOAD ACCESSES:  128464681 HITS:  118728381 MISSES:    9736300
L1D RFO ACCESSES:   88083599 HITS:   86284977 MISSES:    1798622
L1D PREFETCH ACCESSES:  122969075 HITS:  112523343 MISSES:   10445732
L1D WRITEBACK ACCESSES:          0 HITS:          0 MISSES:          0
L1D RQ ACCESS:  155240652
L1D RQ TO_CACHE:  128464245
L1D RQ MERGED:   26775971
L1D RQ FORWARD:          0
L1D WQ ACCESS:   88631385
L1D WQ TO_CACHE:   88083598
L1D WQ MERGED:     547787
L1D WQ FORWARD:      85306
L1I TOTAL     ACCESS:  175476143  HIT:  175209676  MISS:     266467
L1I LOAD      ACCESS:  175476143  HIT:  175209676  MISS:     266467
L1I RFO       ACCESS:          0  HIT:          0  MISS:          0
L1I PREFETCH  ACCESS:          0  HIT:          0  MISS:          0
L1I WRITEBACK ACCESS:          0  HIT:          0  MISS:          0
L1I PREFETCH  REQUESTED:          0  ISSUED:          0  USEFUL:          0  USELESS:          0
L1I TOTAL MSHR MERGED:     213111
L1I LOAD MSHR MERGED:     213111
L1I RFO MSHR MERGED:          0
L1I PREFETCH MSHR MERGED:          0
L1I WRITEBACK MSHR MERGED:          0
L1I TOTAL ACCESSES:  175689254 HITS:  175209676 MISSES:     479578
L1I LOAD ACCESSES:  175689254 HITS:  175209676 MISSES:     479578
L1I RFO ACCESSES:          0 HITS:          0 MISSES:          0
L1I PREFETCH ACCESSES:          0 HITS:          0 MISSES:          0
L1I WRITEBACK ACCESSES:          0 HITS:          0 MISSES:          0
L1I RQ ACCESS:  500000242
L1I RQ TO_CACHE:  175689254
L1I RQ MERGED:  324310988
L1I RQ FORWARD:          0
L1I WQ ACCESS:          0
L1I WQ TO_CACHE:          0
L1I WQ MERGED:          0
L1I WQ FORWARD:          0
L2C TOTAL     ACCESS:   23738465  HIT:   12112698  MISS:   11625767
L2C LOAD      ACCESS:    9044192  HIT:    3564672  MISS:    5479520
L2C RFO       ACCESS:     720655  HIT:     130364  MISS:     590291
L2C PREFETCH  ACCESS:    8613351  HIT:    3086096  MISS:    5527255
L2C WRITEBACK ACCESS:    5360267  HIT:    5331566  MISS:      28701
L2C PREFETCH  REQUESTED:      18048  ISSUED:      18048  USEFUL:     323037  USELESS:    5204393
L2C TOTAL MSHR MERGED:         24
L2C LOAD MSHR MERGED:          2
L2C RFO MSHR MERGED:          0
L2C PREFETCH MSHR MERGED:         22
L2C WRITEBACK MSHR MERGED:          0
L2C TOTAL ACCESSES:   23740288 HITS:   12114493 MISSES:   11625795
L2C LOAD ACCESSES:    9045376 HITS:    3565856 MISSES:    5479520
L2C RFO ACCESSES:     720710 HITS:     130419 MISSES:     590291
L2C PREFETCH ACCESSES:    8613935 HITS:    3086652 MISSES:    5527283
L2C WRITEBACK ACCESSES:    5360267 HITS:    5331566 MISSES:      28701
L2C RQ ACCESS:    9766086
L2C RQ TO_CACHE:    9764847
L2C RQ MERGED:          0
L2C RQ FORWARD:          0
L2C WQ ACCESS:    5360267
L2C WQ TO_CACHE:    5360267
L2C WQ MERGED:          0
L2C WQ FORWARD:       1795
LLC TOTAL     ACCESS:   15448691  HIT:    6281155  MISS:    9167536
LLC LOAD      ACCESS:    5479491  HIT:    2016581  MISS:    3462910
LLC RFO       ACCESS:     590289  HIT:     268389  MISS:     321900
LLC PREFETCH  ACCESS:    5527246  HIT:     964181  MISS:    4563065
LLC WRITEBACK ACCESS:    3851665  HIT:    3032004  MISS:     819661
LLC PREFETCH  REQUESTED:          0  ISSUED:          0  USEFUL:      24175  USELESS:    4539427
LLC TOTAL MSHR MERGED:          0
LLC LOAD MSHR MERGED:          0
LLC RFO MSHR MERGED:          0
LLC PREFETCH MSHR MERGED:          0
LLC WRITEBACK MSHR MERGED:          0
LLC TOTAL ACCESSES:   15448735 HITS:    6281199 MISSES:    9167536
LLC LOAD ACCESSES:    5479518 HITS:    2016608 MISSES:    3462910
LLC RFO ACCESSES:     590291 HITS:     268391 MISSES:     321900
LLC PREFETCH ACCESSES:    5527261 HITS:     964196 MISSES:    4563065
LLC WRITEBACK ACCESSES:    3851665 HITS:    3032004 MISSES:     819661
LLC 0 RQ ACCESS:    6069809
LLC 0 RQ TO_CACHE:    6069780
LLC 0 RQ MERGED:          0
LLC 0 RQ FORWARD:          0
LLC WQ ACCESS:    3851665
LLC WQ TO_CACHE:    3851665
LLC WQ MERGED:          0
LLC WQ FORWARD:         44
Major fault: 0 Minor fault: 44814
CPU 0 L1D next line prefetcher final stats
CPU 0 L2C PC-based stride prefetcher final stats
All Misses: 11094071
All Hits: 7527124
SD Algo Stats - Switches: 0 SRR-Repls: 3952500 BRR-Repls: 0

DRAM Statistics
 CHANNEL 0
 RQ ROW_BUFFER_HIT:    1448825  ROW_BUFFER_MISS:    6897177
 DBUS_CONGESTED:    5640307
 WQ ROW_BUFFER_HIT:     186354  ROW_BUFFER_MISS:    2170383  FULL:          0

 AVG_CONGESTED_CYCLE: 13
LOADS RETIRED: 160808997
INSTR RETIRED: 500000000
