
*** ChampSim Multicore Out-of-Order Simulator ***

Warmup Instructions: 100000000
Simulation Instructions: 500000000
Number of CPUs: 1
LLC sets: 2048
LLC ways: 16
Clean RRIP Policies: 213230102132301 Dirty RRIP Policies: 2213031122130311 PSEL Width: 10 Track Set: 4294967295 PSEL Mask: 1 Demote Mask: 1340013013400130DS Algo: 0Window size: 0
Off-chip DRAM Size: 4096 MB Channels: 1 Width: 64-bit Data Rate: 1600 MT/s

CPU 0 runs /mnt/beegfs/iconst01/spec2017/Wrf.trace.gz
NOT SORTED
TRACE STRING: /mnt/beegfs/iconst01/spec2017/Wrf.trace.gz
SORTED
TRACE STRING: /mnt/beegfs/iconst01/spec2017/Wrf.trace.gz
INITIAL
TRACE STRING: /mnt/beegfs/iconst01/spec2017/Wrf.trace.gz

champsim_seed used: 303

CPU 0 L1D next line prefetcher
CPU 0 L2C IP-based stride prefetcher
Initialize DRRIP state
Assign rand_sets[0]: 454  LLC: 2048
rand_sets[0]: 454
Assign rand_sets[1]: 1662  LLC: 2048
rand_sets[1]: 1662
Assign rand_sets[2]: 1921  LLC: 2048
rand_sets[2]: 1921
Assign rand_sets[3]: 1131  LLC: 2048
rand_sets[3]: 1131
Assign rand_sets[4]: 331  LLC: 2048
rand_sets[4]: 331
Assign rand_sets[5]: 1531  LLC: 2048
rand_sets[5]: 1531
Assign rand_sets[6]: 482  LLC: 2048
rand_sets[6]: 482
Assign rand_sets[7]: 1275  LLC: 2048
rand_sets[7]: 1275
Assign rand_sets[8]: 1876  LLC: 2048
rand_sets[8]: 1876
Assign rand_sets[9]: 2038  LLC: 2048
rand_sets[9]: 2038
Assign rand_sets[10]: 701  LLC: 2048
rand_sets[10]: 701
Assign rand_sets[11]: 479  LLC: 2048
rand_sets[11]: 479
Assign rand_sets[12]: 892  LLC: 2048
rand_sets[12]: 892
Assign rand_sets[13]: 1820  LLC: 2048
rand_sets[13]: 1820
Assign rand_sets[14]: 1505  LLC: 2048
rand_sets[14]: 1505
Assign rand_sets[15]: 1159  LLC: 2048
rand_sets[15]: 1159
Assign rand_sets[16]: 513  LLC: 2048
rand_sets[16]: 513
Assign rand_sets[17]: 703  LLC: 2048
rand_sets[17]: 703
Assign rand_sets[18]: 561  LLC: 2048
rand_sets[18]: 561
Assign rand_sets[19]: 990  LLC: 2048
rand_sets[19]: 990
Assign rand_sets[20]: 342  LLC: 2048
rand_sets[20]: 342
Assign rand_sets[21]: 882  LLC: 2048
rand_sets[21]: 882
Assign rand_sets[22]: 15  LLC: 2048
rand_sets[22]: 15
Assign rand_sets[23]: 71  LLC: 2048
rand_sets[23]: 71
Assign rand_sets[24]: 1127  LLC: 2048
rand_sets[24]: 1127
Assign rand_sets[25]: 1382  LLC: 2048
rand_sets[25]: 1382
Assign rand_sets[26]: 647  LLC: 2048
rand_sets[26]: 647
Assign rand_sets[27]: 857  LLC: 2048
rand_sets[27]: 857
Assign rand_sets[28]: 1450  LLC: 2048
rand_sets[28]: 1450
Assign rand_sets[29]: 1160  LLC: 2048
rand_sets[29]: 1160
Assign rand_sets[30]: 1852  LLC: 2048
rand_sets[30]: 1852
Assign rand_sets[31]: 1881  LLC: 2048
rand_sets[31]: 1881
Assign rand_sets[32]: 1770  LLC: 2048
rand_sets[32]: 1770
Assign rand_sets[33]: 1622  LLC: 2048
rand_sets[33]: 1622
Assign rand_sets[34]: 275  LLC: 2048
rand_sets[34]: 275
Assign rand_sets[35]: 635  LLC: 2048
rand_sets[35]: 635
Assign rand_sets[36]: 466  LLC: 2048
rand_sets[36]: 466
Assign rand_sets[37]: 1413  LLC: 2048
rand_sets[37]: 1413
Assign rand_sets[38]: 417  LLC: 2048
rand_sets[38]: 417
Assign rand_sets[39]: 472  LLC: 2048
rand_sets[39]: 472
Assign rand_sets[40]: 1340  LLC: 2048
rand_sets[40]: 1340
Assign rand_sets[41]: 852  LLC: 2048
rand_sets[41]: 852
Assign rand_sets[42]: 1365  LLC: 2048
rand_sets[42]: 1365
Assign rand_sets[43]: 47  LLC: 2048
rand_sets[43]: 47
Assign rand_sets[44]: 823  LLC: 2048
rand_sets[44]: 823
Assign rand_sets[45]: 686  LLC: 2048
rand_sets[45]: 686
Assign rand_sets[46]: 1637  LLC: 2048
rand_sets[46]: 1637
Assign rand_sets[47]: 1115  LLC: 2048
rand_sets[47]: 1115
Assign rand_sets[48]: 986  LLC: 2048
rand_sets[48]: 986
Assign rand_sets[49]: 258  LLC: 2048
rand_sets[49]: 258
Assign rand_sets[50]: 633  LLC: 2048
rand_sets[50]: 633
Assign rand_sets[51]: 920  LLC: 2048
rand_sets[51]: 920
Assign rand_sets[52]: 204  LLC: 2048
rand_sets[52]: 204
Assign rand_sets[53]: 227  LLC: 2048
rand_sets[53]: 227
Assign rand_sets[54]: 1818  LLC: 2048
rand_sets[54]: 1818
Assign rand_sets[55]: 886  LLC: 2048
rand_sets[55]: 886
Assign rand_sets[56]: 1422  LLC: 2048
rand_sets[56]: 1422
Assign rand_sets[57]: 607  LLC: 2048
rand_sets[57]: 607
Assign rand_sets[58]: 217  LLC: 2048
rand_sets[58]: 217
Assign rand_sets[59]: 1945  LLC: 2048
rand_sets[59]: 1945
Assign rand_sets[60]: 143  LLC: 2048
rand_sets[60]: 143
Assign rand_sets[61]: 1311  LLC: 2048
rand_sets[61]: 1311
Assign rand_sets[62]: 319  LLC: 2048
rand_sets[62]: 319
Assign rand_sets[63]: 1846  LLC: 2048
rand_sets[63]: 1846
 CLEAN-RRIP-POLICY-1: 0-2-1-3-2-3-0-1- CLEAN-RRIP-POLICY-2: 0-2-1-3-2-3-0-1-
 DIRTY-RRIP-POLICY-1: 2-2-1-3-0-3-1-1- DIRTY-RRIP-POLICY-2: 2-2-1-3-0-3-1-1-
 PSEL width: 10
Heartbeat CPU 0 instructions: 10000002 cycles: 6559549 heartbeat IPC: 1.5245 cumulative IPC: 1.5245 (Simulation time: 0 hr 0 min 22 sec) 
Heartbeat CPU 0 instructions: 20000000 cycles: 12222123 heartbeat IPC: 1.76598 cumulative IPC: 1.63638 (Simulation time: 0 hr 0 min 41 sec) 
Heartbeat CPU 0 instructions: 30000003 cycles: 18203906 heartbeat IPC: 1.67174 cumulative IPC: 1.648 (Simulation time: 0 hr 1 min 1 sec) 
Heartbeat CPU 0 instructions: 40000000 cycles: 24059237 heartbeat IPC: 1.70784 cumulative IPC: 1.66256 (Simulation time: 0 hr 1 min 22 sec) 
Heartbeat CPU 0 instructions: 50000000 cycles: 29527651 heartbeat IPC: 1.82868 cumulative IPC: 1.69333 (Simulation time: 0 hr 1 min 42 sec) 
Heartbeat CPU 0 instructions: 60000000 cycles: 35640427 heartbeat IPC: 1.63592 cumulative IPC: 1.68348 (Simulation time: 0 hr 2 min 3 sec) 
Heartbeat CPU 0 instructions: 70000000 cycles: 41360120 heartbeat IPC: 1.74835 cumulative IPC: 1.69245 (Simulation time: 0 hr 2 min 23 sec) 
Heartbeat CPU 0 instructions: 80000000 cycles: 47231025 heartbeat IPC: 1.70331 cumulative IPC: 1.6938 (Simulation time: 0 hr 2 min 43 sec) 
Heartbeat CPU 0 instructions: 90000000 cycles: 52984511 heartbeat IPC: 1.73808 cumulative IPC: 1.69861 (Simulation time: 0 hr 3 min 4 sec) 
Heartbeat CPU 0 instructions: 100000000 cycles: 58537390 heartbeat IPC: 1.80087 cumulative IPC: 1.70831 (Simulation time: 0 hr 3 min 24 sec) 

Warmup complete CPU 0 instructions: 100000004 cycles: 58537392 (Simulation time: 0 hr 3 min 24 sec) 

Heartbeat CPU 0 instructions: 110000001 cycles: 72738048 heartbeat IPC: 0.704193 cumulative IPC: 0.704193 (Simulation time: 0 hr 3 min 49 sec) 
Heartbeat CPU 0 instructions: 120000000 cycles: 84304132 heartbeat IPC: 0.864597 cumulative IPC: 0.776194 (Simulation time: 0 hr 4 min 14 sec) 
Heartbeat CPU 0 instructions: 130000000 cycles: 94715973 heartbeat IPC: 0.960445 cumulative IPC: 0.82922 (Simulation time: 0 hr 4 min 36 sec) 
Heartbeat CPU 0 instructions: 140000000 cycles: 105844829 heartbeat IPC: 0.898565 cumulative IPC: 0.845533 (Simulation time: 0 hr 4 min 59 sec) 
Heartbeat CPU 0 instructions: 150000002 cycles: 117179789 heartbeat IPC: 0.882226 cumulative IPC: 0.852625 (Simulation time: 0 hr 5 min 23 sec) 
Heartbeat CPU 0 instructions: 160000000 cycles: 126274876 heartbeat IPC: 1.09949 cumulative IPC: 0.885772 (Simulation time: 0 hr 5 min 45 sec) 
Heartbeat CPU 0 instructions: 170000003 cycles: 137104917 heartbeat IPC: 0.923358 cumulative IPC: 0.890953 (Simulation time: 0 hr 6 min 8 sec) 
Heartbeat CPU 0 instructions: 180000000 cycles: 150013855 heartbeat IPC: 0.774657 cumulative IPC: 0.874542 (Simulation time: 0 hr 6 min 33 sec) 
Heartbeat CPU 0 instructions: 190000000 cycles: 165102200 heartbeat IPC: 0.662763 cumulative IPC: 0.844556 (Simulation time: 0 hr 6 min 57 sec) 
Heartbeat CPU 0 instructions: 200000000 cycles: 180175577 heartbeat IPC: 0.663421 cumulative IPC: 0.82211 (Simulation time: 0 hr 7 min 21 sec) 
Heartbeat CPU 0 instructions: 210000000 cycles: 195236706 heartbeat IPC: 0.663961 cumulative IPC: 0.804686 (Simulation time: 0 hr 7 min 45 sec) 
Heartbeat CPU 0 instructions: 220000000 cycles: 210963995 heartbeat IPC: 0.635837 cumulative IPC: 0.787264 (Simulation time: 0 hr 8 min 11 sec) 
Heartbeat CPU 0 instructions: 230000003 cycles: 229483854 heartbeat IPC: 0.539961 cumulative IPC: 0.760472 (Simulation time: 0 hr 8 min 39 sec) 
Heartbeat CPU 0 instructions: 240000000 cycles: 239108769 heartbeat IPC: 1.03897 cumulative IPC: 0.775317 (Simulation time: 0 hr 9 min 1 sec) 
Heartbeat CPU 0 instructions: 250000000 cycles: 248336151 heartbeat IPC: 1.08373 cumulative IPC: 0.790311 (Simulation time: 0 hr 9 min 23 sec) 
Heartbeat CPU 0 instructions: 260000000 cycles: 258052804 heartbeat IPC: 1.02916 cumulative IPC: 0.801943 (Simulation time: 0 hr 9 min 44 sec) 
Heartbeat CPU 0 instructions: 270000000 cycles: 267960835 heartbeat IPC: 1.00928 cumulative IPC: 0.811752 (Simulation time: 0 hr 10 min 7 sec) 
Heartbeat CPU 0 instructions: 280000000 cycles: 277831692 heartbeat IPC: 1.01308 cumulative IPC: 0.820815 (Simulation time: 0 hr 10 min 31 sec) 
Heartbeat CPU 0 instructions: 290000000 cycles: 287873453 heartbeat IPC: 0.995841 cumulative IPC: 0.828479 (Simulation time: 0 hr 10 min 55 sec) 
Heartbeat CPU 0 instructions: 300000000 cycles: 296589764 heartbeat IPC: 1.14727 cumulative IPC: 0.840151 (Simulation time: 0 hr 11 min 17 sec) 
Heartbeat CPU 0 instructions: 310000002 cycles: 310436686 heartbeat IPC: 0.722182 cumulative IPC: 0.833667 (Simulation time: 0 hr 11 min 43 sec) 
Heartbeat CPU 0 instructions: 320000000 cycles: 326639941 heartbeat IPC: 0.61716 cumulative IPC: 0.820581 (Simulation time: 0 hr 12 min 11 sec) 
Heartbeat CPU 0 instructions: 330000002 cycles: 337393637 heartbeat IPC: 0.929913 cumulative IPC: 0.824798 (Simulation time: 0 hr 12 min 34 sec) 
Heartbeat CPU 0 instructions: 340000000 cycles: 347812974 heartbeat IPC: 0.959754 cumulative IPC: 0.829659 (Simulation time: 0 hr 12 min 57 sec) 
Heartbeat CPU 0 instructions: 350000002 cycles: 361092797 heartbeat IPC: 0.753022 cumulative IPC: 0.826295 (Simulation time: 0 hr 13 min 23 sec) 
Heartbeat CPU 0 instructions: 360000000 cycles: 372217373 heartbeat IPC: 0.89891 cumulative IPC: 0.82887 (Simulation time: 0 hr 13 min 46 sec) 
Heartbeat CPU 0 instructions: 370000002 cycles: 382940978 heartbeat IPC: 0.932522 cumulative IPC: 0.832297 (Simulation time: 0 hr 14 min 10 sec) 
Heartbeat CPU 0 instructions: 380000000 cycles: 393459010 heartbeat IPC: 0.950748 cumulative IPC: 0.836016 (Simulation time: 0 hr 14 min 33 sec) 
Heartbeat CPU 0 instructions: 390000003 cycles: 410840946 heartbeat IPC: 0.57531 cumulative IPC: 0.823154 (Simulation time: 0 hr 15 min 2 sec) 
Heartbeat CPU 0 instructions: 400000000 cycles: 422865690 heartbeat IPC: 0.831618 cumulative IPC: 0.823433 (Simulation time: 0 hr 15 min 25 sec) 
Heartbeat CPU 0 instructions: 410000002 cycles: 433412227 heartbeat IPC: 0.948179 cumulative IPC: 0.826943 (Simulation time: 0 hr 15 min 46 sec) 
Heartbeat CPU 0 instructions: 420000000 cycles: 443496496 heartbeat IPC: 0.991643 cumulative IPC: 0.831257 (Simulation time: 0 hr 16 min 8 sec) 
Heartbeat CPU 0 instructions: 430000001 cycles: 453564888 heartbeat IPC: 0.993207 cumulative IPC: 0.835385 (Simulation time: 0 hr 16 min 29 sec) 
Heartbeat CPU 0 instructions: 440000000 cycles: 465423117 heartbeat IPC: 0.843296 cumulative IPC: 0.835615 (Simulation time: 0 hr 16 min 52 sec) 
Heartbeat CPU 0 instructions: 450000002 cycles: 480516207 heartbeat IPC: 0.662555 cumulative IPC: 0.829426 (Simulation time: 0 hr 17 min 15 sec) 
Heartbeat CPU 0 instructions: 460000000 cycles: 495591704 heartbeat IPC: 0.663328 cumulative IPC: 0.823696 (Simulation time: 0 hr 17 min 39 sec) 
Heartbeat CPU 0 instructions: 470000003 cycles: 510655565 heartbeat IPC: 0.663841 cumulative IPC: 0.81837 (Simulation time: 0 hr 18 min 2 sec) 
Heartbeat CPU 0 instructions: 480000000 cycles: 526349333 heartbeat IPC: 0.637195 cumulative IPC: 0.812292 (Simulation time: 0 hr 18 min 28 sec) 
Heartbeat CPU 0 instructions: 490000002 cycles: 544962339 heartbeat IPC: 0.537259 cumulative IPC: 0.801768 (Simulation time: 0 hr 18 min 55 sec) 
Heartbeat CPU 0 instructions: 500000000 cycles: 554537362 heartbeat IPC: 1.04438 cumulative IPC: 0.806452 (Simulation time: 0 hr 19 min 17 sec) 
Heartbeat CPU 0 instructions: 510000002 cycles: 563817103 heartbeat IPC: 1.07762 cumulative IPC: 0.811432 (Simulation time: 0 hr 19 min 38 sec) 
Heartbeat CPU 0 instructions: 520000000 cycles: 573488818 heartbeat IPC: 1.03394 cumulative IPC: 0.815611 (Simulation time: 0 hr 19 min 59 sec) 
Heartbeat CPU 0 instructions: 530000002 cycles: 583408954 heartbeat IPC: 1.00805 cumulative IPC: 0.819248 (Simulation time: 0 hr 20 min 22 sec) 
Heartbeat CPU 0 instructions: 540000000 cycles: 593224675 heartbeat IPC: 1.01877 cumulative IPC: 0.822911 (Simulation time: 0 hr 20 min 45 sec) 
Heartbeat CPU 0 instructions: 550000002 cycles: 603306466 heartbeat IPC: 0.991887 cumulative IPC: 0.826038 (Simulation time: 0 hr 21 min 9 sec) 
Heartbeat CPU 0 instructions: 560000000 cycles: 612030642 heartbeat IPC: 1.14624 cumulative IPC: 0.831085 (Simulation time: 0 hr 21 min 30 sec) 
Heartbeat CPU 0 instructions: 570000003 cycles: 625706094 heartbeat IPC: 0.731237 cumulative IPC: 0.828678 (Simulation time: 0 hr 21 min 56 sec) 
Heartbeat CPU 0 instructions: 580000000 cycles: 642030273 heartbeat IPC: 0.612588 cumulative IPC: 0.822632 (Simulation time: 0 hr 22 min 23 sec) 
Heartbeat CPU 0 instructions: 590000002 cycles: 652305078 heartbeat IPC: 0.973255 cumulative IPC: 0.825239 (Simulation time: 0 hr 22 min 46 sec) 
Heartbeat CPU 0 instructions: 600000000 cycles: 663201215 heartbeat IPC: 0.917756 cumulative IPC: 0.826906 (Simulation time: 0 hr 23 min 9 sec) 
Finished CPU 0 instructions: 500000000 cycles: 604663842 cumulative IPC: 0.826906 (Simulation time: 0 hr 23 min 9 sec) 

CPU 0 Branch Prediction Accuracy: 99.5219% MPKI: 0.251582
Number of Branches: 26312578 Number of Mispredictions: 125791
Number of LOAD Instructions: 235643083
Number of LOAD Instructions (ROI): 235643083
Number of STORE Instructions: 37593550
Number of STORE Instructions (ROI): 37593550
Total Destination Memory Operands: 40480968
Total Destination Memory Operands (ROI): 40480968
Total Source Memory Operands: 235643083
Total Source Memory Operands (ROI): 235643083
Number of DEPENDED LOADS: 6699854
Number of DEPENDED LOADS (ROI): 6699854
Number of SQ_ADDED: 40480950
Number of SQ_ADDED (ROI): 40480950
Number of LQ_ADDED: 390109440
Number of LQ_ADDED (ROI): 390109440
Number of Instructions read from trace: 600000259

ChampSim completed all CPUs

Region of Interest Statistics

CPU 0 cumulative IPC: 0.826906 instructions: 500000000 cycles: 604663842
ITLB TOTAL     ACCESS:  109363816  HIT:  109363303  MISS:        513
ITLB LOAD      ACCESS:  109363816  HIT:  109363303  MISS:        513
ITLB RFO       ACCESS:          0  HIT:          0  MISS:          0
ITLB PREFETCH  ACCESS:          0  HIT:          0  MISS:          0
ITLB WRITEBACK ACCESS:          0  HIT:          0  MISS:          0
ITLB PREFETCH  REQUESTED:          0  ISSUED:          0  USEFUL:          0  USELESS:          0
ITLB TOTAL MSHR MERGED:        973
ITLB LOAD MSHR MERGED:        973
ITLB RFO MSHR MERGED:          0
ITLB PREFETCH MSHR MERGED:          0
ITLB WRITEBACK MSHR MERGED:          0
ITLB TOTAL ACCESSES:  109364789 HITS:  109363303 MISSES:       1486
ITLB LOAD ACCESSES:  109364789 HITS:  109363303 MISSES:       1486
ITLB RFO ACCESSES:          0 HITS:          0 MISSES:          0
ITLB PREFETCH ACCESSES:          0 HITS:          0 MISSES:          0
ITLB WRITEBACK ACCESSES:          0 HITS:          0 MISSES:          0
ITLB RQ ACCESS:  500000003
ITLB RQ TO_CACHE:  109364789
ITLB RQ MERGED:  390635214
ITLB RQ FORWARD:          0
ITLB WQ ACCESS:          0
ITLB WQ TO_CACHE:          0
ITLB WQ MERGED:          0
ITLB WQ FORWARD:          0
DTLB TOTAL     ACCESS:  130434003  HIT:  130176361  MISS:     257642
DTLB LOAD      ACCESS:  109063428  HIT:  108842633  MISS:     220795
DTLB RFO       ACCESS:   21370575  HIT:   21333728  MISS:      36847
DTLB PREFETCH  ACCESS:          0  HIT:          0  MISS:          0
DTLB WRITEBACK ACCESS:          0  HIT:          0  MISS:          0
DTLB PREFETCH  REQUESTED:          0  ISSUED:          0  USEFUL:          0  USELESS:          0
DTLB TOTAL MSHR MERGED:     121747
DTLB LOAD MSHR MERGED:      83660
DTLB RFO MSHR MERGED:      38087
DTLB PREFETCH MSHR MERGED:          0
DTLB WRITEBACK MSHR MERGED:          0
DTLB TOTAL ACCESSES:  130555750 HITS:  130176361 MISSES:     379389
DTLB LOAD ACCESSES:  109147088 HITS:  108842633 MISSES:     304455
DTLB RFO ACCESSES:   21408662 HITS:   21333728 MISSES:      74934
DTLB PREFETCH ACCESSES:          0 HITS:          0 MISSES:          0
DTLB WRITEBACK ACCESSES:          0 HITS:          0 MISSES:          0
DTLB RQ ACCESS:  218634546
DTLB RQ TO_CACHE:  130555751
DTLB RQ MERGED:   88078795
DTLB RQ FORWARD:          0
DTLB WQ ACCESS:          0
DTLB WQ TO_CACHE:          0
DTLB WQ MERGED:          0
DTLB WQ FORWARD:          0
L1D TOTAL     ACCESS:  204685830  HIT:  193609159  MISS:   11076671
L1D LOAD      ACCESS:  106270373  HIT:  103097343  MISS:    3173030
L1D RFO       ACCESS:   26951630  HIT:   25201756  MISS:    1749874
L1D PREFETCH  ACCESS:   71463827  HIT:   65310060  MISS:    6153767
L1D WRITEBACK ACCESS:          0  HIT:          0  MISS:          0
L1D PREFETCH  REQUESTED:  108945542  ISSUED:  107285876  USEFUL:    5694622  USELESS:     459139
L1D TOTAL MSHR MERGED:   18317723
L1D LOAD MSHR MERGED:    4685504
L1D RFO MSHR MERGED:    6483674
L1D PREFETCH MSHR MERGED:    7148545
L1D WRITEBACK MSHR MERGED:          0
L1D TOTAL ACCESSES:  223065905 HITS:  193671511 MISSES:   29394394
L1D LOAD ACCESSES:  108971929 HITS:  103123730 MISSES:    5848199
L1D RFO ACCESSES:   33433215 HITS:   25201756 MISSES:    8231459
L1D PREFETCH ACCESSES:   80660761 HITS:   65346025 MISSES:   15314736
L1D WRITEBACK ACCESSES:          0 HITS:          0 MISSES:          0
L1D RQ ACCESS:  184991108
L1D RQ TO_CACHE:  108945542
L1D RQ MERGED:   76019179
L1D RQ FORWARD:          0
L1D WQ ACCESS:   33643426
L1D WQ TO_CACHE:   33433214
L1D WQ MERGED:     210212
L1D WQ FORWARD:      62352
L1I TOTAL     ACCESS:  134044521  HIT:  134019943  MISS:      24578
L1I LOAD      ACCESS:  134044521  HIT:  134019943  MISS:      24578
L1I RFO       ACCESS:          0  HIT:          0  MISS:          0
L1I PREFETCH  ACCESS:          0  HIT:          0  MISS:          0
L1I WRITEBACK ACCESS:          0  HIT:          0  MISS:          0
L1I PREFETCH  REQUESTED:          0  ISSUED:          0  USEFUL:          0  USELESS:          0
L1I TOTAL MSHR MERGED:      30465
L1I LOAD MSHR MERGED:      30465
L1I RFO MSHR MERGED:          0
L1I PREFETCH MSHR MERGED:          0
L1I WRITEBACK MSHR MERGED:          0
L1I TOTAL ACCESSES:  134074986 HITS:  134019943 MISSES:      55043
L1I LOAD ACCESSES:  134074986 HITS:  134019943 MISSES:      55043
L1I RFO ACCESSES:          0 HITS:          0 MISSES:          0
L1I PREFETCH ACCESSES:          0 HITS:          0 MISSES:          0
L1I WRITEBACK ACCESSES:          0 HITS:          0 MISSES:          0
L1I RQ ACCESS:  500000005
L1I RQ TO_CACHE:  134074986
L1I RQ MERGED:  365925019
L1I RQ FORWARD:          0
L1I WQ ACCESS:          0
L1I WQ TO_CACHE:          0
L1I WQ MERGED:          0
L1I WQ FORWARD:          0
L2C TOTAL     ACCESS:   14943830  HIT:    6943955  MISS:    7999875
L2C LOAD      ACCESS:    1187080  HIT:     298180  MISS:     888900
L2C RFO       ACCESS:    1747573  HIT:     369517  MISS:    1378056
L2C PREFETCH  ACCESS:    8327093  HIT:    2602856  MISS:    5724237
L2C WRITEBACK ACCESS:    3682084  HIT:    3673402  MISS:       8682
L2C PREFETCH  REQUESTED:     387236  ISSUED:     387236  USEFUL:     113698  USELESS:    5611374
L2C TOTAL MSHR MERGED:      41652
L2C LOAD MSHR MERGED:       2228
L2C RFO MSHR MERGED:       1274
L2C PREFETCH MSHR MERGED:      38150
L2C WRITEBACK MSHR MERGED:          0
L2C TOTAL ACCESSES:   15106993 HITS:    6944630 MISSES:    8162363
L2C LOAD ACCESSES:    1187273 HITS:     298373 MISSES:     888900
L2C RFO ACCESSES:    1747785 HITS:     369729 MISSES:    1378056
L2C PREFETCH ACCESSES:    8489851 HITS:    2603126 MISSES:    5886725
L2C WRITEBACK ACCESSES:    3682084 HITS:    3673402 MISSES:       8682
L2C RQ ACCESS:    2935058
L2C RQ TO_CACHE:    2934653
L2C RQ MERGED:          0
L2C RQ FORWARD:          0
L2C WQ ACCESS:    3682084
L2C WQ TO_CACHE:    3682084
L2C WQ MERGED:          0
L2C WQ FORWARD:        675
LLC TOTAL     ACCESS:   11187166  HIT:    2822151  MISS:    8365015
LLC LOAD      ACCESS:     886668  HIT:     274711  MISS:     611957
LLC RFO       ACCESS:    1376781  HIT:     211843  MISS:    1164938
LLC PREFETCH  ACCESS:    5818850  HIT:    1111556  MISS:    4707294
LLC WRITEBACK ACCESS:    3104867  HIT:    1224041  MISS:    1880826
LLC PREFETCH  REQUESTED:          0  ISSUED:          0  USEFUL:      32159  USELESS:    4674828
LLC TOTAL MSHR MERGED:      22449
LLC LOAD MSHR MERGED:       6820
LLC RFO MSHR MERGED:        590
LLC PREFETCH MSHR MERGED:      15039
LLC WRITEBACK MSHR MERGED:          0
LLC TOTAL ACCESSES:   11209629 HITS:    2822165 MISSES:    8387464
LLC LOAD ACCESSES:     886672 HITS:     274715 MISSES:     611957
LLC RFO ACCESSES:    1376782 HITS:     211844 MISSES:    1164938
LLC PREFETCH ACCESSES:    5841308 HITS:    1111565 MISSES:    4729743
LLC WRITEBACK ACCESSES:    3104867 HITS:    1224041 MISSES:    1880826
LLC 0 RQ ACCESS:    2263454
LLC 0 RQ TO_CACHE:    2263449
LLC 0 RQ MERGED:          0
LLC 0 RQ FORWARD:          0
LLC WQ ACCESS:    3104867
LLC WQ TO_CACHE:    3104867
LLC WQ MERGED:          0
LLC WQ FORWARD:         14
Major fault: 0 Minor fault: 11519
CPU 0 L1D next line prefetcher final stats
CPU 0 L2C PC-based stride prefetcher final stats
All Misses: 10499375
All Hits: 3298902
SD Algo Stats - Switches: 0 SRR-Repls: 686682 BRR-Repls: 0

DRAM Statistics
 CHANNEL 0
 RQ ROW_BUFFER_HIT:    3916771  ROW_BUFFER_MISS:    2566631
 DBUS_CONGESTED:    4510699
 WQ ROW_BUFFER_HIT:     488815  ROW_BUFFER_MISS:    1775049  FULL:          0

 AVG_CONGESTED_CYCLE: 13
LOADS RETIRED: 190375692
INSTR RETIRED: 500000000
