
*** ChampSim Multicore Out-of-Order Simulator ***

Warmup Instructions: 100000000
Simulation Instructions: 500000000
Number of CPUs: 1
LLC sets: 2048
LLC ways: 16
Clean RRIP Policies: 2213230222132302 Dirty RRIP Policies: 2203130222031302 PSEL Width: 10 Track Set: 4294967295 PSEL Mask: 1 Demote Mask: 3040100230401002DS Algo: 0Window size: 0
Off-chip DRAM Size: 4096 MB Channels: 1 Width: 64-bit Data Rate: 1600 MT/s

CPU 0 runs /mnt/beegfs/iconst01/spec2017/Cam4.trace.gz
NOT SORTED
TRACE STRING: /mnt/beegfs/iconst01/spec2017/Cam4.trace.gz
SORTED
TRACE STRING: /mnt/beegfs/iconst01/spec2017/Cam4.trace.gz
INITIAL
TRACE STRING: /mnt/beegfs/iconst01/spec2017/Cam4.trace.gz

champsim_seed used: 325

CPU 0 L1D next line prefetcher
CPU 0 L2C IP-based stride prefetcher
Initialize DRRIP state
Assign rand_sets[0]: 454  LLC: 2048
rand_sets[0]: 454
Assign rand_sets[1]: 1662  LLC: 2048
rand_sets[1]: 1662
Assign rand_sets[2]: 1921  LLC: 2048
rand_sets[2]: 1921
Assign rand_sets[3]: 1131  LLC: 2048
rand_sets[3]: 1131
Assign rand_sets[4]: 331  LLC: 2048
rand_sets[4]: 331
Assign rand_sets[5]: 1531  LLC: 2048
rand_sets[5]: 1531
Assign rand_sets[6]: 482  LLC: 2048
rand_sets[6]: 482
Assign rand_sets[7]: 1275  LLC: 2048
rand_sets[7]: 1275
Assign rand_sets[8]: 1876  LLC: 2048
rand_sets[8]: 1876
Assign rand_sets[9]: 2038  LLC: 2048
rand_sets[9]: 2038
Assign rand_sets[10]: 701  LLC: 2048
rand_sets[10]: 701
Assign rand_sets[11]: 479  LLC: 2048
rand_sets[11]: 479
Assign rand_sets[12]: 892  LLC: 2048
rand_sets[12]: 892
Assign rand_sets[13]: 1820  LLC: 2048
rand_sets[13]: 1820
Assign rand_sets[14]: 1505  LLC: 2048
rand_sets[14]: 1505
Assign rand_sets[15]: 1159  LLC: 2048
rand_sets[15]: 1159
Assign rand_sets[16]: 513  LLC: 2048
rand_sets[16]: 513
Assign rand_sets[17]: 703  LLC: 2048
rand_sets[17]: 703
Assign rand_sets[18]: 561  LLC: 2048
rand_sets[18]: 561
Assign rand_sets[19]: 990  LLC: 2048
rand_sets[19]: 990
Assign rand_sets[20]: 342  LLC: 2048
rand_sets[20]: 342
Assign rand_sets[21]: 882  LLC: 2048
rand_sets[21]: 882
Assign rand_sets[22]: 15  LLC: 2048
rand_sets[22]: 15
Assign rand_sets[23]: 71  LLC: 2048
rand_sets[23]: 71
Assign rand_sets[24]: 1127  LLC: 2048
rand_sets[24]: 1127
Assign rand_sets[25]: 1382  LLC: 2048
rand_sets[25]: 1382
Assign rand_sets[26]: 647  LLC: 2048
rand_sets[26]: 647
Assign rand_sets[27]: 857  LLC: 2048
rand_sets[27]: 857
Assign rand_sets[28]: 1450  LLC: 2048
rand_sets[28]: 1450
Assign rand_sets[29]: 1160  LLC: 2048
rand_sets[29]: 1160
Assign rand_sets[30]: 1852  LLC: 2048
rand_sets[30]: 1852
Assign rand_sets[31]: 1881  LLC: 2048
rand_sets[31]: 1881
Assign rand_sets[32]: 1770  LLC: 2048
rand_sets[32]: 1770
Assign rand_sets[33]: 1622  LLC: 2048
rand_sets[33]: 1622
Assign rand_sets[34]: 275  LLC: 2048
rand_sets[34]: 275
Assign rand_sets[35]: 635  LLC: 2048
rand_sets[35]: 635
Assign rand_sets[36]: 466  LLC: 2048
rand_sets[36]: 466
Assign rand_sets[37]: 1413  LLC: 2048
rand_sets[37]: 1413
Assign rand_sets[38]: 417  LLC: 2048
rand_sets[38]: 417
Assign rand_sets[39]: 472  LLC: 2048
rand_sets[39]: 472
Assign rand_sets[40]: 1340  LLC: 2048
rand_sets[40]: 1340
Assign rand_sets[41]: 852  LLC: 2048
rand_sets[41]: 852
Assign rand_sets[42]: 1365  LLC: 2048
rand_sets[42]: 1365
Assign rand_sets[43]: 47  LLC: 2048
rand_sets[43]: 47
Assign rand_sets[44]: 823  LLC: 2048
rand_sets[44]: 823
Assign rand_sets[45]: 686  LLC: 2048
rand_sets[45]: 686
Assign rand_sets[46]: 1637  LLC: 2048
rand_sets[46]: 1637
Assign rand_sets[47]: 1115  LLC: 2048
rand_sets[47]: 1115
Assign rand_sets[48]: 986  LLC: 2048
rand_sets[48]: 986
Assign rand_sets[49]: 258  LLC: 2048
rand_sets[49]: 258
Assign rand_sets[50]: 633  LLC: 2048
rand_sets[50]: 633
Assign rand_sets[51]: 920  LLC: 2048
rand_sets[51]: 920
Assign rand_sets[52]: 204  LLC: 2048
rand_sets[52]: 204
Assign rand_sets[53]: 227  LLC: 2048
rand_sets[53]: 227
Assign rand_sets[54]: 1818  LLC: 2048
rand_sets[54]: 1818
Assign rand_sets[55]: 886  LLC: 2048
rand_sets[55]: 886
Assign rand_sets[56]: 1422  LLC: 2048
rand_sets[56]: 1422
Assign rand_sets[57]: 607  LLC: 2048
rand_sets[57]: 607
Assign rand_sets[58]: 217  LLC: 2048
rand_sets[58]: 217
Assign rand_sets[59]: 1945  LLC: 2048
rand_sets[59]: 1945
Assign rand_sets[60]: 143  LLC: 2048
rand_sets[60]: 143
Assign rand_sets[61]: 1311  LLC: 2048
rand_sets[61]: 1311
Assign rand_sets[62]: 319  LLC: 2048
rand_sets[62]: 319
Assign rand_sets[63]: 1846  LLC: 2048
rand_sets[63]: 1846
 CLEAN-RRIP-POLICY-1: 2-2-1-3-2-3-0-2- CLEAN-RRIP-POLICY-2: 2-2-1-3-2-3-0-2-
 DIRTY-RRIP-POLICY-1: 2-2-0-3-1-3-0-2- DIRTY-RRIP-POLICY-2: 2-2-0-3-1-3-0-2-
 PSEL width: 10
Heartbeat CPU 0 instructions: 10000000 cycles: 4859184 heartbeat IPC: 2.05796 cumulative IPC: 2.05796 (Simulation time: 0 hr 0 min 17 sec) 
Heartbeat CPU 0 instructions: 20000000 cycles: 9790786 heartbeat IPC: 2.02774 cumulative IPC: 2.04274 (Simulation time: 0 hr 0 min 33 sec) 
Heartbeat CPU 0 instructions: 30000001 cycles: 14562959 heartbeat IPC: 2.09548 cumulative IPC: 2.06002 (Simulation time: 0 hr 0 min 48 sec) 
Heartbeat CPU 0 instructions: 40000000 cycles: 19399946 heartbeat IPC: 2.0674 cumulative IPC: 2.06186 (Simulation time: 0 hr 1 min 5 sec) 
Heartbeat CPU 0 instructions: 50000000 cycles: 24256462 heartbeat IPC: 2.05909 cumulative IPC: 2.06131 (Simulation time: 0 hr 1 min 22 sec) 
Heartbeat CPU 0 instructions: 60000000 cycles: 29181898 heartbeat IPC: 2.03028 cumulative IPC: 2.05607 (Simulation time: 0 hr 1 min 39 sec) 
Heartbeat CPU 0 instructions: 70000001 cycles: 33956755 heartbeat IPC: 2.0943 cumulative IPC: 2.06145 (Simulation time: 0 hr 1 min 54 sec) 
Heartbeat CPU 0 instructions: 80000000 cycles: 38793004 heartbeat IPC: 2.06772 cumulative IPC: 2.06223 (Simulation time: 0 hr 2 min 11 sec) 
Heartbeat CPU 0 instructions: 90000002 cycles: 43647052 heartbeat IPC: 2.06014 cumulative IPC: 2.062 (Simulation time: 0 hr 2 min 27 sec) 
Heartbeat CPU 0 instructions: 100000000 cycles: 48565820 heartbeat IPC: 2.03303 cumulative IPC: 2.05906 (Simulation time: 0 hr 2 min 44 sec) 

Warmup complete CPU 0 instructions: 100000001 cycles: 48565821 (Simulation time: 0 hr 2 min 44 sec) 

Heartbeat CPU 0 instructions: 110000000 cycles: 61745821 heartbeat IPC: 0.758725 cumulative IPC: 0.758725 (Simulation time: 0 hr 3 min 7 sec) 
Heartbeat CPU 0 instructions: 120000000 cycles: 75499762 heartbeat IPC: 0.727064 cumulative IPC: 0.742557 (Simulation time: 0 hr 3 min 32 sec) 
Heartbeat CPU 0 instructions: 130000000 cycles: 89248634 heartbeat IPC: 0.727332 cumulative IPC: 0.737412 (Simulation time: 0 hr 3 min 57 sec) 
Heartbeat CPU 0 instructions: 140000000 cycles: 103518480 heartbeat IPC: 0.700778 cumulative IPC: 0.727899 (Simulation time: 0 hr 4 min 22 sec) 
Heartbeat CPU 0 instructions: 150000003 cycles: 116750847 heartbeat IPC: 0.755723 cumulative IPC: 0.733299 (Simulation time: 0 hr 4 min 45 sec) 
Heartbeat CPU 0 instructions: 160000000 cycles: 130498639 heartbeat IPC: 0.727389 cumulative IPC: 0.732307 (Simulation time: 0 hr 5 min 10 sec) 
Heartbeat CPU 0 instructions: 170000001 cycles: 144281032 heartbeat IPC: 0.725563 cumulative IPC: 0.731336 (Simulation time: 0 hr 5 min 35 sec) 
Heartbeat CPU 0 instructions: 180000000 cycles: 158537162 heartbeat IPC: 0.701453 cumulative IPC: 0.727462 (Simulation time: 0 hr 6 min 0 sec) 
Heartbeat CPU 0 instructions: 190000003 cycles: 171729127 heartbeat IPC: 0.758037 cumulative IPC: 0.730737 (Simulation time: 0 hr 6 min 22 sec) 
Heartbeat CPU 0 instructions: 200000000 cycles: 185475378 heartbeat IPC: 0.727471 cumulative IPC: 0.730409 (Simulation time: 0 hr 6 min 47 sec) 
Heartbeat CPU 0 instructions: 210000002 cycles: 199261669 heartbeat IPC: 0.725358 cumulative IPC: 0.729947 (Simulation time: 0 hr 7 min 12 sec) 
Heartbeat CPU 0 instructions: 220000000 cycles: 213510855 heartbeat IPC: 0.701794 cumulative IPC: 0.727515 (Simulation time: 0 hr 7 min 37 sec) 
Heartbeat CPU 0 instructions: 230000001 cycles: 226627679 heartbeat IPC: 0.76238 cumulative IPC: 0.730083 (Simulation time: 0 hr 8 min 0 sec) 
Heartbeat CPU 0 instructions: 240000000 cycles: 240362438 heartbeat IPC: 0.72808 cumulative IPC: 0.72994 (Simulation time: 0 hr 8 min 25 sec) 
Heartbeat CPU 0 instructions: 250000001 cycles: 254091657 heartbeat IPC: 0.728374 cumulative IPC: 0.729835 (Simulation time: 0 hr 8 min 50 sec) 
Heartbeat CPU 0 instructions: 260000000 cycles: 268231938 heartbeat IPC: 0.707199 cumulative IPC: 0.728378 (Simulation time: 0 hr 9 min 15 sec) 
Heartbeat CPU 0 instructions: 270000003 cycles: 281463456 heartbeat IPC: 0.755771 cumulative IPC: 0.729934 (Simulation time: 0 hr 9 min 38 sec) 
Heartbeat CPU 0 instructions: 280000000 cycles: 295214263 heartbeat IPC: 0.72723 cumulative IPC: 0.729784 (Simulation time: 0 hr 10 min 3 sec) 
Heartbeat CPU 0 instructions: 290000001 cycles: 308991252 heartbeat IPC: 0.725848 cumulative IPC: 0.729575 (Simulation time: 0 hr 10 min 28 sec) 
Heartbeat CPU 0 instructions: 300000000 cycles: 323075670 heartbeat IPC: 0.710004 cumulative IPC: 0.728571 (Simulation time: 0 hr 10 min 52 sec) 
Heartbeat CPU 0 instructions: 310000000 cycles: 336323291 heartbeat IPC: 0.754853 cumulative IPC: 0.729781 (Simulation time: 0 hr 11 min 15 sec) 
Heartbeat CPU 0 instructions: 320000000 cycles: 350118007 heartbeat IPC: 0.724915 cumulative IPC: 0.729559 (Simulation time: 0 hr 11 min 40 sec) 
Heartbeat CPU 0 instructions: 330000000 cycles: 363908183 heartbeat IPC: 0.725154 cumulative IPC: 0.729366 (Simulation time: 0 hr 12 min 5 sec) 
Heartbeat CPU 0 instructions: 340000000 cycles: 377969291 heartbeat IPC: 0.711182 cumulative IPC: 0.72859 (Simulation time: 0 hr 12 min 30 sec) 
Heartbeat CPU 0 instructions: 350000000 cycles: 391268400 heartbeat IPC: 0.75193 cumulative IPC: 0.729496 (Simulation time: 0 hr 12 min 53 sec) 
Heartbeat CPU 0 instructions: 360000000 cycles: 405091989 heartbeat IPC: 0.723401 cumulative IPC: 0.729259 (Simulation time: 0 hr 13 min 17 sec) 
Heartbeat CPU 0 instructions: 370000003 cycles: 418887243 heartbeat IPC: 0.724887 cumulative IPC: 0.729096 (Simulation time: 0 hr 13 min 42 sec) 
Heartbeat CPU 0 instructions: 380000000 cycles: 432915983 heartbeat IPC: 0.712822 cumulative IPC: 0.728502 (Simulation time: 0 hr 14 min 7 sec) 
Heartbeat CPU 0 instructions: 390000003 cycles: 446224047 heartbeat IPC: 0.751424 cumulative IPC: 0.729269 (Simulation time: 0 hr 14 min 30 sec) 
Heartbeat CPU 0 instructions: 400000000 cycles: 460036874 heartbeat IPC: 0.723965 cumulative IPC: 0.729091 (Simulation time: 0 hr 14 min 55 sec) 
Heartbeat CPU 0 instructions: 410000000 cycles: 473805593 heartbeat IPC: 0.726284 cumulative IPC: 0.729001 (Simulation time: 0 hr 15 min 20 sec) 
Heartbeat CPU 0 instructions: 420000000 cycles: 487821458 heartbeat IPC: 0.713477 cumulative IPC: 0.728505 (Simulation time: 0 hr 15 min 45 sec) 
Heartbeat CPU 0 instructions: 430000003 cycles: 501145301 heartbeat IPC: 0.750534 cumulative IPC: 0.729154 (Simulation time: 0 hr 16 min 8 sec) 
Heartbeat CPU 0 instructions: 440000000 cycles: 514964972 heartbeat IPC: 0.723606 cumulative IPC: 0.728989 (Simulation time: 0 hr 16 min 33 sec) 
Heartbeat CPU 0 instructions: 450000000 cycles: 528750784 heartbeat IPC: 0.725383 cumulative IPC: 0.728886 (Simulation time: 0 hr 16 min 57 sec) 
Heartbeat CPU 0 instructions: 460000000 cycles: 542745048 heartbeat IPC: 0.714579 cumulative IPC: 0.728481 (Simulation time: 0 hr 17 min 23 sec) 
Heartbeat CPU 0 instructions: 470000001 cycles: 556067576 heartbeat IPC: 0.750608 cumulative IPC: 0.729062 (Simulation time: 0 hr 17 min 45 sec) 
Heartbeat CPU 0 instructions: 480000000 cycles: 569856748 heartbeat IPC: 0.725207 cumulative IPC: 0.72896 (Simulation time: 0 hr 18 min 10 sec) 
Heartbeat CPU 0 instructions: 490000002 cycles: 583614343 heartbeat IPC: 0.726871 cumulative IPC: 0.728906 (Simulation time: 0 hr 18 min 35 sec) 
Heartbeat CPU 0 instructions: 500000000 cycles: 597605176 heartbeat IPC: 0.714754 cumulative IPC: 0.728545 (Simulation time: 0 hr 19 min 0 sec) 
Heartbeat CPU 0 instructions: 510000002 cycles: 610959142 heartbeat IPC: 0.748841 cumulative IPC: 0.729027 (Simulation time: 0 hr 19 min 23 sec) 
Heartbeat CPU 0 instructions: 520000000 cycles: 624732901 heartbeat IPC: 0.726018 cumulative IPC: 0.728955 (Simulation time: 0 hr 19 min 48 sec) 
Heartbeat CPU 0 instructions: 530000003 cycles: 638471568 heartbeat IPC: 0.727873 cumulative IPC: 0.72893 (Simulation time: 0 hr 20 min 13 sec) 
Heartbeat CPU 0 instructions: 540000000 cycles: 652485089 heartbeat IPC: 0.713596 cumulative IPC: 0.728574 (Simulation time: 0 hr 20 min 38 sec) 
Heartbeat CPU 0 instructions: 550000003 cycles: 665839248 heartbeat IPC: 0.748831 cumulative IPC: 0.729012 (Simulation time: 0 hr 21 min 1 sec) 
Heartbeat CPU 0 instructions: 560000000 cycles: 679593099 heartbeat IPC: 0.727069 cumulative IPC: 0.72897 (Simulation time: 0 hr 21 min 26 sec) 
Heartbeat CPU 0 instructions: 570000001 cycles: 693358959 heartbeat IPC: 0.726435 cumulative IPC: 0.728916 (Simulation time: 0 hr 21 min 50 sec) 
Heartbeat CPU 0 instructions: 580000000 cycles: 707393979 heartbeat IPC: 0.712503 cumulative IPC: 0.728566 (Simulation time: 0 hr 22 min 16 sec) 
Heartbeat CPU 0 instructions: 590000000 cycles: 720675604 heartbeat IPC: 0.75292 cumulative IPC: 0.729048 (Simulation time: 0 hr 22 min 38 sec) 
Heartbeat CPU 0 instructions: 600000000 cycles: 734432106 heartbeat IPC: 0.726929 cumulative IPC: 0.729005 (Simulation time: 0 hr 23 min 3 sec) 
Finished CPU 0 instructions: 500000001 cycles: 685866293 cumulative IPC: 0.729005 (Simulation time: 0 hr 23 min 3 sec) 

CPU 0 Branch Prediction Accuracy: 97.5275% MPKI: 2.1997
Number of Branches: 44482865 Number of Mispredictions: 1099852
Number of LOAD Instructions: 144955155
Number of LOAD Instructions (ROI): 144955155
Number of STORE Instructions: 55921098
Number of STORE Instructions (ROI): 55921098
Total Destination Memory Operands: 57111147
Total Destination Memory Operands (ROI): 57111147
Total Source Memory Operands: 144955155
Total Source Memory Operands (ROI): 144955155
Number of DEPENDED LOADS: 13454923
Number of DEPENDED LOADS (ROI): 13454923
Number of SQ_ADDED: 57111126
Number of SQ_ADDED (ROI): 57111126
Number of LQ_ADDED: 174353689
Number of LQ_ADDED (ROI): 174353689
Number of Instructions read from trace: 600000256

ChampSim completed all CPUs

Region of Interest Statistics

CPU 0 cumulative IPC: 0.729005 instructions: 500000001 cycles: 685866293
ITLB TOTAL     ACCESS:  136059457  HIT:  136056904  MISS:       2553
ITLB LOAD      ACCESS:  136059457  HIT:  136056904  MISS:       2553
ITLB RFO       ACCESS:          0  HIT:          0  MISS:          0
ITLB PREFETCH  ACCESS:          0  HIT:          0  MISS:          0
ITLB WRITEBACK ACCESS:          0  HIT:          0  MISS:          0
ITLB PREFETCH  REQUESTED:          0  ISSUED:          0  USEFUL:          0  USELESS:          0
ITLB TOTAL MSHR MERGED:       4391
ITLB LOAD MSHR MERGED:       4391
ITLB RFO MSHR MERGED:          0
ITLB PREFETCH MSHR MERGED:          0
ITLB WRITEBACK MSHR MERGED:          0
ITLB TOTAL ACCESSES:  136063848 HITS:  136056904 MISSES:       6944
ITLB LOAD ACCESSES:  136063848 HITS:  136056904 MISSES:       6944
ITLB RFO ACCESSES:          0 HITS:          0 MISSES:          0
ITLB PREFETCH ACCESSES:          0 HITS:          0 MISSES:          0
ITLB WRITEBACK ACCESSES:          0 HITS:          0 MISSES:          0
ITLB RQ ACCESS:  500000202
ITLB RQ TO_CACHE:  136063848
ITLB RQ MERGED:  363936354
ITLB RQ FORWARD:          0
ITLB WQ ACCESS:          0
ITLB WQ TO_CACHE:          0
ITLB WQ MERGED:          0
ITLB WQ FORWARD:          0
DTLB TOTAL     ACCESS:  111541667  HIT:  111405476  MISS:     136191
DTLB LOAD      ACCESS:   78946163  HIT:   78820541  MISS:     125622
DTLB RFO       ACCESS:   32595504  HIT:   32584935  MISS:      10569
DTLB PREFETCH  ACCESS:          0  HIT:          0  MISS:          0
DTLB WRITEBACK ACCESS:          0  HIT:          0  MISS:          0
DTLB PREFETCH  REQUESTED:          0  ISSUED:          0  USEFUL:          0  USELESS:          0
DTLB TOTAL MSHR MERGED:      63684
DTLB LOAD MSHR MERGED:      51059
DTLB RFO MSHR MERGED:      12625
DTLB PREFETCH MSHR MERGED:          0
DTLB WRITEBACK MSHR MERGED:          0
DTLB TOTAL ACCESSES:  111605351 HITS:  111405476 MISSES:     199875
DTLB LOAD ACCESSES:   78997222 HITS:   78820541 MISSES:     176681
DTLB RFO ACCESSES:   32608129 HITS:   32584935 MISSES:      23194
DTLB PREFETCH ACCESSES:          0 HITS:          0 MISSES:          0
DTLB WRITEBACK ACCESSES:          0 HITS:          0 MISSES:          0
DTLB RQ ACCESS:  157180498
DTLB RQ TO_CACHE:  111605351
DTLB RQ MERGED:   45575147
DTLB RQ FORWARD:          0
DTLB WQ ACCESS:          0
DTLB WQ TO_CACHE:          0
DTLB WQ MERGED:          0
DTLB WQ FORWARD:          0
L1D TOTAL     ACCESS:  198205570  HIT:  188364581  MISS:    9840989
L1D LOAD      ACCESS:   79944346  HIT:   75680848  MISS:    4263498
L1D RFO       ACCESS:   44515440  HIT:   43614864  MISS:     900576
L1D PREFETCH  ACCESS:   73745784  HIT:   69068869  MISS:    4676915
L1D WRITEBACK ACCESS:          0  HIT:          0  MISS:          0
L1D PREFETCH  REQUESTED:   80341267  ISSUED:   79885524  USEFUL:    1818681  USELESS:    2858143
L1D TOTAL MSHR MERGED:    2516615
L1D LOAD MSHR MERGED:     521665
L1D RFO MSHR MERGED:    1437171
L1D PREFETCH MSHR MERGED:     557779
L1D WRITEBACK MSHR MERGED:          0
L1D TOTAL ACCESSES:  200743515 HITS:  188385911 MISSES:   12357604
L1D LOAD ACCESSES:   80353979 HITS:   75693560 MISSES:    4660419
L1D RFO ACCESSES:   45949461 HITS:   43614864 MISSES:    2334597
L1D PREFETCH ACCESSES:   74440075 HITS:   69077487 MISSES:    5362588
L1D WRITEBACK ACCESSES:          0 HITS:          0 MISSES:          0
L1D RQ ACCESS:  109538528
L1D RQ TO_CACHE:   80341267
L1D RQ MERGED:   29184549
L1D RQ FORWARD:          0
L1D WQ ACCESS:   47641970
L1D WQ TO_CACHE:   45949461
L1D WQ MERGED:    1692509
L1D WQ FORWARD:      21330
L1I TOTAL     ACCESS:  161531333  HIT:  161267358  MISS:     263975
L1I LOAD      ACCESS:  161531333  HIT:  161267358  MISS:     263975
L1I RFO       ACCESS:          0  HIT:          0  MISS:          0
L1I PREFETCH  ACCESS:          0  HIT:          0  MISS:          0
L1I WRITEBACK ACCESS:          0  HIT:          0  MISS:          0
L1I PREFETCH  REQUESTED:          0  ISSUED:          0  USEFUL:          0  USELESS:          0
L1I TOTAL MSHR MERGED:     260511
L1I LOAD MSHR MERGED:     260511
L1I RFO MSHR MERGED:          0
L1I PREFETCH MSHR MERGED:          0
L1I WRITEBACK MSHR MERGED:          0
L1I TOTAL ACCESSES:  161791844 HITS:  161267358 MISSES:     524486
L1I LOAD ACCESSES:  161791844 HITS:  161267358 MISSES:     524486
L1I RFO ACCESSES:          0 HITS:          0 MISSES:          0
L1I PREFETCH ACCESSES:          0 HITS:          0 MISSES:          0
L1I WRITEBACK ACCESSES:          0 HITS:          0 MISSES:          0
L1I RQ ACCESS:  500000202
L1I RQ TO_CACHE:  161791844
L1I RQ MERGED:  338208358
L1I RQ FORWARD:          0
L1I WQ ACCESS:          0
L1I WQ TO_CACHE:          0
L1I WQ MERGED:          0
L1I WQ FORWARD:          0
L2C TOTAL     ACCESS:   11771660  HIT:   10382361  MISS:    1389299
L2C LOAD      ACCESS:    4402663  HIT:    3906021  MISS:     496642
L2C RFO       ACCESS:     897360  HIT:     536309  MISS:     361051
L2C PREFETCH  ACCESS:    5284109  HIT:    4755447  MISS:     528662
L2C WRITEBACK ACCESS:    1187528  HIT:    1184584  MISS:       2944
L2C PREFETCH  REQUESTED:     504565  ISSUED:     504565  USEFUL:     115018  USELESS:     413836
L2C TOTAL MSHR MERGED:       2031
L2C LOAD MSHR MERGED:        390
L2C RFO MSHR MERGED:          0
L2C PREFETCH MSHR MERGED:       1641
L2C WRITEBACK MSHR MERGED:          0
L2C TOTAL ACCESSES:   11776408 HITS:   10382580 MISSES:    1393828
L2C LOAD ACCESSES:    4402729 HITS:    3906087 MISSES:     496642
L2C RFO ACCESSES:     897426 HITS:     536375 MISSES:     361051
L2C PREFETCH ACCESSES:    5288725 HITS:    4755534 MISSES:     533191
L2C WRITEBACK ACCESSES:    1187528 HITS:    1184584 MISSES:       2944
L2C RQ ACCESS:    5300155
L2C RQ TO_CACHE:    5300023
L2C RQ MERGED:          0
L2C RQ FORWARD:          0
L2C WQ ACCESS:    1187528
L2C WQ TO_CACHE:    1187528
L2C WQ MERGED:          0
L2C WQ FORWARD:        219
LLC TOTAL     ACCESS:    1849479  HIT:    1095228  MISS:     754251
LLC LOAD      ACCESS:     496250  HIT:     269820  MISS:     226430
LLC RFO       ACCESS:     361048  HIT:     196999  MISS:     164049
LLC PREFETCH  ACCESS:     531452  HIT:     313459  MISS:     217993
LLC WRITEBACK ACCESS:     460729  HIT:     314950  MISS:     145779
LLC PREFETCH  REQUESTED:          0  ISSUED:          0  USEFUL:       3233  USELESS:     214849
LLC TOTAL MSHR MERGED:         75
LLC LOAD MSHR MERGED:         27
LLC RFO MSHR MERGED:          0
LLC PREFETCH MSHR MERGED:         48
LLC WRITEBACK MSHR MERGED:          0
LLC TOTAL ACCESSES:    1849578 HITS:    1095252 MISSES:     754326
LLC LOAD ACCESSES:     496252 HITS:     269822 MISSES:     226430
LLC RFO ACCESSES:     361051 HITS:     197002 MISSES:     164049
LLC PREFETCH ACCESSES:     531546 HITS:     313478 MISSES:     218068
LLC WRITEBACK ACCESSES:     460729 HITS:     314950 MISSES:     145779
LLC 0 RQ ACCESS:     857303
LLC 0 RQ TO_CACHE:     857298
LLC 0 RQ MERGED:          0
LLC 0 RQ FORWARD:          0
LLC WQ ACCESS:     460729
LLC WQ TO_CACHE:     460729
LLC WQ MERGED:          0
LLC WQ FORWARD:         24
Major fault: 0 Minor fault: 3073
CPU 0 L1D next line prefetcher final stats
CPU 0 L2C PC-based stride prefetcher final stats
All Misses: 913677
All Hits: 1262493
SD Algo Stats - Switches: 0 SRR-Repls: 265095 BRR-Repls: 0

DRAM Statistics
 CHANNEL 0
 RQ ROW_BUFFER_HIT:     392122  ROW_BUFFER_MISS:     216023
 DBUS_CONGESTED:     468570
 WQ ROW_BUFFER_HIT:      20439  ROW_BUFFER_MISS:     154119  FULL:          0

 AVG_CONGESTED_CYCLE: 13
LOADS RETIRED: 120673965
INSTR RETIRED: 500000000
