
*** ChampSim Multicore Out-of-Order Simulator ***

Warmup Instructions: 100000000
Simulation Instructions: 500000000
Number of CPUs: 1
LLC sets: 2048
LLC ways: 16
Clean RRIP Policies: 2213230222132302 Dirty RRIP Policies: 2203130222031302 PSEL Width: 10 Track Set: 4294967295 PSEL Mask: 1 Demote Mask: 3040100230401002DS Algo: 0Window size: 0
Off-chip DRAM Size: 4096 MB Channels: 1 Width: 64-bit Data Rate: 1600 MT/s

CPU 0 runs /mnt/beegfs/iconst01/spec2017/Parest.trace.gz
NOT SORTED
TRACE STRING: /mnt/beegfs/iconst01/spec2017/Parest.trace.gz
SORTED
TRACE STRING: /mnt/beegfs/iconst01/spec2017/Parest.trace.gz
INITIAL
TRACE STRING: /mnt/beegfs/iconst01/spec2017/Parest.trace.gz

champsim_seed used: 623

CPU 0 L1D next line prefetcher
CPU 0 L2C IP-based stride prefetcher
Initialize DRRIP state
Assign rand_sets[0]: 454  LLC: 2048
rand_sets[0]: 454
Assign rand_sets[1]: 1662  LLC: 2048
rand_sets[1]: 1662
Assign rand_sets[2]: 1921  LLC: 2048
rand_sets[2]: 1921
Assign rand_sets[3]: 1131  LLC: 2048
rand_sets[3]: 1131
Assign rand_sets[4]: 331  LLC: 2048
rand_sets[4]: 331
Assign rand_sets[5]: 1531  LLC: 2048
rand_sets[5]: 1531
Assign rand_sets[6]: 482  LLC: 2048
rand_sets[6]: 482
Assign rand_sets[7]: 1275  LLC: 2048
rand_sets[7]: 1275
Assign rand_sets[8]: 1876  LLC: 2048
rand_sets[8]: 1876
Assign rand_sets[9]: 2038  LLC: 2048
rand_sets[9]: 2038
Assign rand_sets[10]: 701  LLC: 2048
rand_sets[10]: 701
Assign rand_sets[11]: 479  LLC: 2048
rand_sets[11]: 479
Assign rand_sets[12]: 892  LLC: 2048
rand_sets[12]: 892
Assign rand_sets[13]: 1820  LLC: 2048
rand_sets[13]: 1820
Assign rand_sets[14]: 1505  LLC: 2048
rand_sets[14]: 1505
Assign rand_sets[15]: 1159  LLC: 2048
rand_sets[15]: 1159
Assign rand_sets[16]: 513  LLC: 2048
rand_sets[16]: 513
Assign rand_sets[17]: 703  LLC: 2048
rand_sets[17]: 703
Assign rand_sets[18]: 561  LLC: 2048
rand_sets[18]: 561
Assign rand_sets[19]: 990  LLC: 2048
rand_sets[19]: 990
Assign rand_sets[20]: 342  LLC: 2048
rand_sets[20]: 342
Assign rand_sets[21]: 882  LLC: 2048
rand_sets[21]: 882
Assign rand_sets[22]: 15  LLC: 2048
rand_sets[22]: 15
Assign rand_sets[23]: 71  LLC: 2048
rand_sets[23]: 71
Assign rand_sets[24]: 1127  LLC: 2048
rand_sets[24]: 1127
Assign rand_sets[25]: 1382  LLC: 2048
rand_sets[25]: 1382
Assign rand_sets[26]: 647  LLC: 2048
rand_sets[26]: 647
Assign rand_sets[27]: 857  LLC: 2048
rand_sets[27]: 857
Assign rand_sets[28]: 1450  LLC: 2048
rand_sets[28]: 1450
Assign rand_sets[29]: 1160  LLC: 2048
rand_sets[29]: 1160
Assign rand_sets[30]: 1852  LLC: 2048
rand_sets[30]: 1852
Assign rand_sets[31]: 1881  LLC: 2048
rand_sets[31]: 1881
Assign rand_sets[32]: 1770  LLC: 2048
rand_sets[32]: 1770
Assign rand_sets[33]: 1622  LLC: 2048
rand_sets[33]: 1622
Assign rand_sets[34]: 275  LLC: 2048
rand_sets[34]: 275
Assign rand_sets[35]: 635  LLC: 2048
rand_sets[35]: 635
Assign rand_sets[36]: 466  LLC: 2048
rand_sets[36]: 466
Assign rand_sets[37]: 1413  LLC: 2048
rand_sets[37]: 1413
Assign rand_sets[38]: 417  LLC: 2048
rand_sets[38]: 417
Assign rand_sets[39]: 472  LLC: 2048
rand_sets[39]: 472
Assign rand_sets[40]: 1340  LLC: 2048
rand_sets[40]: 1340
Assign rand_sets[41]: 852  LLC: 2048
rand_sets[41]: 852
Assign rand_sets[42]: 1365  LLC: 2048
rand_sets[42]: 1365
Assign rand_sets[43]: 47  LLC: 2048
rand_sets[43]: 47
Assign rand_sets[44]: 823  LLC: 2048
rand_sets[44]: 823
Assign rand_sets[45]: 686  LLC: 2048
rand_sets[45]: 686
Assign rand_sets[46]: 1637  LLC: 2048
rand_sets[46]: 1637
Assign rand_sets[47]: 1115  LLC: 2048
rand_sets[47]: 1115
Assign rand_sets[48]: 986  LLC: 2048
rand_sets[48]: 986
Assign rand_sets[49]: 258  LLC: 2048
rand_sets[49]: 258
Assign rand_sets[50]: 633  LLC: 2048
rand_sets[50]: 633
Assign rand_sets[51]: 920  LLC: 2048
rand_sets[51]: 920
Assign rand_sets[52]: 204  LLC: 2048
rand_sets[52]: 204
Assign rand_sets[53]: 227  LLC: 2048
rand_sets[53]: 227
Assign rand_sets[54]: 1818  LLC: 2048
rand_sets[54]: 1818
Assign rand_sets[55]: 886  LLC: 2048
rand_sets[55]: 886
Assign rand_sets[56]: 1422  LLC: 2048
rand_sets[56]: 1422
Assign rand_sets[57]: 607  LLC: 2048
rand_sets[57]: 607
Assign rand_sets[58]: 217  LLC: 2048
rand_sets[58]: 217
Assign rand_sets[59]: 1945  LLC: 2048
rand_sets[59]: 1945
Assign rand_sets[60]: 143  LLC: 2048
rand_sets[60]: 143
Assign rand_sets[61]: 1311  LLC: 2048
rand_sets[61]: 1311
Assign rand_sets[62]: 319  LLC: 2048
rand_sets[62]: 319
Assign rand_sets[63]: 1846  LLC: 2048
rand_sets[63]: 1846
 CLEAN-RRIP-POLICY-1: 2-2-1-3-2-3-0-2- CLEAN-RRIP-POLICY-2: 2-2-1-3-2-3-0-2-
 DIRTY-RRIP-POLICY-1: 2-2-0-3-1-3-0-2- DIRTY-RRIP-POLICY-2: 2-2-0-3-1-3-0-2-
 PSEL width: 10
Heartbeat CPU 0 instructions: 10000001 cycles: 4387173 heartbeat IPC: 2.27937 cumulative IPC: 2.27937 (Simulation time: 0 hr 0 min 14 sec) 
Heartbeat CPU 0 instructions: 20000000 cycles: 8781533 heartbeat IPC: 2.27564 cumulative IPC: 2.27751 (Simulation time: 0 hr 0 min 29 sec) 
Heartbeat CPU 0 instructions: 30000003 cycles: 13213550 heartbeat IPC: 2.25631 cumulative IPC: 2.2704 (Simulation time: 0 hr 0 min 44 sec) 
Heartbeat CPU 0 instructions: 40000000 cycles: 17644253 heartbeat IPC: 2.25698 cumulative IPC: 2.26703 (Simulation time: 0 hr 0 min 58 sec) 
Heartbeat CPU 0 instructions: 50000000 cycles: 22052791 heartbeat IPC: 2.26833 cumulative IPC: 2.26729 (Simulation time: 0 hr 1 min 12 sec) 
Heartbeat CPU 0 instructions: 60000000 cycles: 26458847 heartbeat IPC: 2.2696 cumulative IPC: 2.26767 (Simulation time: 0 hr 1 min 26 sec) 
Heartbeat CPU 0 instructions: 70000000 cycles: 30859928 heartbeat IPC: 2.27217 cumulative IPC: 2.26831 (Simulation time: 0 hr 1 min 41 sec) 
Heartbeat CPU 0 instructions: 80000000 cycles: 35255669 heartbeat IPC: 2.27493 cumulative IPC: 2.26914 (Simulation time: 0 hr 1 min 55 sec) 
Heartbeat CPU 0 instructions: 90000000 cycles: 39650107 heartbeat IPC: 2.2756 cumulative IPC: 2.26986 (Simulation time: 0 hr 2 min 10 sec) 
Heartbeat CPU 0 instructions: 100000000 cycles: 44047563 heartbeat IPC: 2.27404 cumulative IPC: 2.27027 (Simulation time: 0 hr 2 min 25 sec) 

Warmup complete CPU 0 instructions: 100000002 cycles: 44047573 (Simulation time: 0 hr 2 min 25 sec) 

Heartbeat CPU 0 instructions: 110000000 cycles: 54026401 heartbeat IPC: 1.00212 cumulative IPC: 1.00212 (Simulation time: 0 hr 2 min 44 sec) 
Heartbeat CPU 0 instructions: 120000000 cycles: 63045914 heartbeat IPC: 1.10871 cumulative IPC: 1.05272 (Simulation time: 0 hr 3 min 2 sec) 
Heartbeat CPU 0 instructions: 130000000 cycles: 72119030 heartbeat IPC: 1.10216 cumulative IPC: 1.0687 (Simulation time: 0 hr 3 min 21 sec) 
Heartbeat CPU 0 instructions: 140000000 cycles: 81351587 heartbeat IPC: 1.08312 cumulative IPC: 1.07227 (Simulation time: 0 hr 3 min 40 sec) 
Heartbeat CPU 0 instructions: 150000000 cycles: 92422168 heartbeat IPC: 0.903295 cumulative IPC: 1.0336 (Simulation time: 0 hr 3 min 59 sec) 
Heartbeat CPU 0 instructions: 160000000 cycles: 102475575 heartbeat IPC: 0.994688 cumulative IPC: 1.0269 (Simulation time: 0 hr 4 min 17 sec) 
Heartbeat CPU 0 instructions: 170000003 cycles: 112289305 heartbeat IPC: 1.01898 cumulative IPC: 1.02577 (Simulation time: 0 hr 4 min 36 sec) 
Heartbeat CPU 0 instructions: 180000000 cycles: 121952583 heartbeat IPC: 1.03485 cumulative IPC: 1.02689 (Simulation time: 0 hr 4 min 55 sec) 
Heartbeat CPU 0 instructions: 190000002 cycles: 131745847 heartbeat IPC: 1.02111 cumulative IPC: 1.02625 (Simulation time: 0 hr 5 min 13 sec) 
Heartbeat CPU 0 instructions: 200000000 cycles: 141019664 heartbeat IPC: 1.0783 cumulative IPC: 1.03122 (Simulation time: 0 hr 5 min 32 sec) 
Heartbeat CPU 0 instructions: 210000000 cycles: 150686703 heartbeat IPC: 1.03444 cumulative IPC: 1.03152 (Simulation time: 0 hr 5 min 51 sec) 
Heartbeat CPU 0 instructions: 220000000 cycles: 159703960 heartbeat IPC: 1.10898 cumulative IPC: 1.03756 (Simulation time: 0 hr 6 min 9 sec) 
Heartbeat CPU 0 instructions: 230000001 cycles: 171912123 heartbeat IPC: 0.819124 cumulative IPC: 1.0167 (Simulation time: 0 hr 6 min 30 sec) 
Heartbeat CPU 0 instructions: 240000000 cycles: 182370990 heartbeat IPC: 0.956126 cumulative IPC: 1.01212 (Simulation time: 0 hr 6 min 49 sec) 
Heartbeat CPU 0 instructions: 250000002 cycles: 192217012 heartbeat IPC: 1.01564 cumulative IPC: 1.01235 (Simulation time: 0 hr 7 min 7 sec) 
Heartbeat CPU 0 instructions: 260000000 cycles: 201802258 heartbeat IPC: 1.04327 cumulative IPC: 1.01423 (Simulation time: 0 hr 7 min 26 sec) 
Heartbeat CPU 0 instructions: 270000001 cycles: 211231725 heartbeat IPC: 1.06051 cumulative IPC: 1.01684 (Simulation time: 0 hr 7 min 44 sec) 
Heartbeat CPU 0 instructions: 280000000 cycles: 220944356 heartbeat IPC: 1.02959 cumulative IPC: 1.01754 (Simulation time: 0 hr 8 min 3 sec) 
Heartbeat CPU 0 instructions: 290000002 cycles: 230081338 heartbeat IPC: 1.09445 cumulative IPC: 1.02132 (Simulation time: 0 hr 8 min 21 sec) 
Heartbeat CPU 0 instructions: 300000000 cycles: 239678140 heartbeat IPC: 1.04201 cumulative IPC: 1.02234 (Simulation time: 0 hr 8 min 40 sec) 
Heartbeat CPU 0 instructions: 310000000 cycles: 248751518 heartbeat IPC: 1.10213 cumulative IPC: 1.02587 (Simulation time: 0 hr 8 min 59 sec) 
Heartbeat CPU 0 instructions: 320000000 cycles: 257955117 heartbeat IPC: 1.08653 cumulative IPC: 1.02848 (Simulation time: 0 hr 9 min 17 sec) 
Heartbeat CPU 0 instructions: 330000003 cycles: 267303190 heartbeat IPC: 1.06974 cumulative IPC: 1.03021 (Simulation time: 0 hr 9 min 36 sec) 
Heartbeat CPU 0 instructions: 340000000 cycles: 277256284 heartbeat IPC: 1.00471 cumulative IPC: 1.02912 (Simulation time: 0 hr 9 min 55 sec) 
Heartbeat CPU 0 instructions: 350000000 cycles: 287544272 heartbeat IPC: 0.972007 cumulative IPC: 1.02671 (Simulation time: 0 hr 10 min 14 sec) 
Heartbeat CPU 0 instructions: 360000000 cycles: 297311742 heartbeat IPC: 1.02381 cumulative IPC: 1.0266 (Simulation time: 0 hr 10 min 32 sec) 
Heartbeat CPU 0 instructions: 370000000 cycles: 306812942 heartbeat IPC: 1.0525 cumulative IPC: 1.02753 (Simulation time: 0 hr 10 min 50 sec) 
Heartbeat CPU 0 instructions: 380000000 cycles: 316161885 heartbeat IPC: 1.06964 cumulative IPC: 1.02898 (Simulation time: 0 hr 11 min 9 sec) 
Heartbeat CPU 0 instructions: 390000002 cycles: 325285302 heartbeat IPC: 1.09608 cumulative IPC: 1.03116 (Simulation time: 0 hr 11 min 27 sec) 
Heartbeat CPU 0 instructions: 400000000 cycles: 334835831 heartbeat IPC: 1.04706 cumulative IPC: 1.03168 (Simulation time: 0 hr 11 min 46 sec) 
Heartbeat CPU 0 instructions: 410000000 cycles: 343796298 heartbeat IPC: 1.11601 cumulative IPC: 1.0342 (Simulation time: 0 hr 12 min 4 sec) 
Heartbeat CPU 0 instructions: 420000000 cycles: 354696960 heartbeat IPC: 0.917376 cumulative IPC: 1.0301 (Simulation time: 0 hr 12 min 24 sec) 
Heartbeat CPU 0 instructions: 430000000 cycles: 365534365 heartbeat IPC: 0.92273 cumulative IPC: 1.02648 (Simulation time: 0 hr 12 min 43 sec) 
Heartbeat CPU 0 instructions: 440000000 cycles: 375405759 heartbeat IPC: 1.01303 cumulative IPC: 1.02608 (Simulation time: 0 hr 13 min 1 sec) 
Heartbeat CPU 0 instructions: 450000000 cycles: 385189099 heartbeat IPC: 1.02215 cumulative IPC: 1.02597 (Simulation time: 0 hr 13 min 20 sec) 
Heartbeat CPU 0 instructions: 460000000 cycles: 394938676 heartbeat IPC: 1.02569 cumulative IPC: 1.02596 (Simulation time: 0 hr 13 min 38 sec) 
Heartbeat CPU 0 instructions: 470000001 cycles: 404728184 heartbeat IPC: 1.0215 cumulative IPC: 1.02584 (Simulation time: 0 hr 13 min 56 sec) 
Heartbeat CPU 0 instructions: 480000000 cycles: 413968107 heartbeat IPC: 1.08226 cumulative IPC: 1.02725 (Simulation time: 0 hr 14 min 14 sec) 
Heartbeat CPU 0 instructions: 490000000 cycles: 423709608 heartbeat IPC: 1.02654 cumulative IPC: 1.02723 (Simulation time: 0 hr 14 min 33 sec) 
Heartbeat CPU 0 instructions: 500000000 cycles: 433065783 heartbeat IPC: 1.06881 cumulative IPC: 1.02823 (Simulation time: 0 hr 14 min 51 sec) 
Heartbeat CPU 0 instructions: 510000000 cycles: 442231814 heartbeat IPC: 1.09098 cumulative IPC: 1.02967 (Simulation time: 0 hr 15 min 9 sec) 
Heartbeat CPU 0 instructions: 520000000 cycles: 451669194 heartbeat IPC: 1.05962 cumulative IPC: 1.03037 (Simulation time: 0 hr 15 min 28 sec) 
Heartbeat CPU 0 instructions: 530000001 cycles: 461861124 heartbeat IPC: 0.981169 cumulative IPC: 1.02917 (Simulation time: 0 hr 15 min 47 sec) 
Heartbeat CPU 0 instructions: 540000000 cycles: 472320364 heartbeat IPC: 0.956092 cumulative IPC: 1.02738 (Simulation time: 0 hr 16 min 5 sec) 
Heartbeat CPU 0 instructions: 550000003 cycles: 482276468 heartbeat IPC: 1.00441 cumulative IPC: 1.02686 (Simulation time: 0 hr 16 min 23 sec) 
Heartbeat CPU 0 instructions: 560000000 cycles: 491975940 heartbeat IPC: 1.03098 cumulative IPC: 1.02695 (Simulation time: 0 hr 16 min 41 sec) 
Heartbeat CPU 0 instructions: 570000002 cycles: 501500609 heartbeat IPC: 1.04991 cumulative IPC: 1.02743 (Simulation time: 0 hr 16 min 59 sec) 
Heartbeat CPU 0 instructions: 580000000 cycles: 510803225 heartbeat IPC: 1.07497 cumulative IPC: 1.02838 (Simulation time: 0 hr 17 min 17 sec) 
Heartbeat CPU 0 instructions: 590000002 cycles: 520465412 heartbeat IPC: 1.03496 cumulative IPC: 1.02851 (Simulation time: 0 hr 17 min 35 sec) 
Heartbeat CPU 0 instructions: 600000000 cycles: 529700301 heartbeat IPC: 1.08285 cumulative IPC: 1.02954 (Simulation time: 0 hr 17 min 53 sec) 
Finished CPU 0 instructions: 500000000 cycles: 485652742 cumulative IPC: 1.02954 (Simulation time: 0 hr 17 min 53 sec) 

CPU 0 Branch Prediction Accuracy: 97.8526% MPKI: 2.66709
Number of Branches: 62099103 Number of Mispredictions: 1333545
Number of LOAD Instructions: 210576465
Number of LOAD Instructions (ROI): 210576465
Number of STORE Instructions: 16915507
Number of STORE Instructions (ROI): 16915507
Total Destination Memory Operands: 16918869
Total Destination Memory Operands (ROI): 16918869
Total Source Memory Operands: 210576465
Total Source Memory Operands (ROI): 210576465
Number of DEPENDED LOADS: 345741
Number of DEPENDED LOADS (ROI): 345741
Number of SQ_ADDED: 16918826
Number of SQ_ADDED (ROI): 16918826
Number of LQ_ADDED: 210609273
Number of LQ_ADDED (ROI): 210609273
Number of Instructions read from trace: 600000257

ChampSim completed all CPUs

Region of Interest Statistics

CPU 0 cumulative IPC: 1.02954 instructions: 500000000 cycles: 485652742
ITLB TOTAL     ACCESS:   76340154  HIT:   76340116  MISS:         38
ITLB LOAD      ACCESS:   76340154  HIT:   76340116  MISS:         38
ITLB RFO       ACCESS:          0  HIT:          0  MISS:          0
ITLB PREFETCH  ACCESS:          0  HIT:          0  MISS:          0
ITLB WRITEBACK ACCESS:          0  HIT:          0  MISS:          0
ITLB PREFETCH  REQUESTED:          0  ISSUED:          0  USEFUL:          0  USELESS:          0
ITLB TOTAL MSHR MERGED:         37
ITLB LOAD MSHR MERGED:         37
ITLB RFO MSHR MERGED:          0
ITLB PREFETCH MSHR MERGED:          0
ITLB WRITEBACK MSHR MERGED:          0
ITLB TOTAL ACCESSES:   76340191 HITS:   76340116 MISSES:         75
ITLB LOAD ACCESSES:   76340191 HITS:   76340116 MISSES:         75
ITLB RFO ACCESSES:          0 HITS:          0 MISSES:          0
ITLB PREFETCH ACCESSES:          0 HITS:          0 MISSES:          0
ITLB WRITEBACK ACCESSES:          0 HITS:          0 MISSES:          0
ITLB RQ ACCESS:  500000188
ITLB RQ TO_CACHE:   76340192
ITLB RQ MERGED:  423659996
ITLB RQ FORWARD:          0
ITLB WQ ACCESS:          0
ITLB WQ TO_CACHE:          0
ITLB WQ MERGED:          0
ITLB WQ FORWARD:          0
DTLB TOTAL     ACCESS:  136733658  HIT:  136530865  MISS:     202793
DTLB LOAD      ACCESS:  128671251  HIT:  128471179  MISS:     200072
DTLB RFO       ACCESS:    8062407  HIT:    8059686  MISS:       2721
DTLB PREFETCH  ACCESS:          0  HIT:          0  MISS:          0
DTLB WRITEBACK ACCESS:          0  HIT:          0  MISS:          0
DTLB PREFETCH  REQUESTED:          0  ISSUED:          0  USEFUL:          0  USELESS:          0
DTLB TOTAL MSHR MERGED:     448279
DTLB LOAD MSHR MERGED:     444539
DTLB RFO MSHR MERGED:       3740
DTLB PREFETCH MSHR MERGED:          0
DTLB WRITEBACK MSHR MERGED:          0
DTLB TOTAL ACCESSES:  137181937 HITS:  136530865 MISSES:     651072
DTLB LOAD ACCESSES:  129115790 HITS:  128471179 MISSES:     644611
DTLB RFO ACCESSES:    8066147 HITS:    8059686 MISSES:       6461
DTLB PREFETCH ACCESSES:          0 HITS:          0 MISSES:          0
DTLB WRITEBACK ACCESSES:          0 HITS:          0 MISSES:          0
DTLB RQ ACCESS:  189418814
DTLB RQ TO_CACHE:  137181937
DTLB RQ MERGED:   52236877
DTLB RQ FORWARD:          0
DTLB WQ ACCESS:          0
DTLB WQ TO_CACHE:          0
DTLB WQ MERGED:          0
DTLB WQ FORWARD:          0
L1D TOTAL     ACCESS:  125161096  HIT:  107604077  MISS:   17557019
L1D LOAD      ACCESS:   72259219  HIT:   61971788  MISS:   10287431
L1D RFO       ACCESS:   14013927  HIT:   13861091  MISS:     152836
L1D PREFETCH  ACCESS:   38887950  HIT:   31771198  MISS:    7116752
L1D WRITEBACK ACCESS:          0  HIT:          0  MISS:          0
L1D PREFETCH  REQUESTED:   85475019  ISSUED:   84154756  USEFUL:    5857327  USELESS:    1259436
L1D TOTAL MSHR MERGED:   31671138
L1D LOAD MSHR MERGED:   18391192
L1D RFO MSHR MERGED:     266407
L1D PREFETCH MSHR MERGED:   13013539
L1D WRITEBACK MSHR MERGED:          0
L1D TOTAL ACCESSES:  156832724 HITS:  107604568 MISSES:   49228156
L1D LOAD ACCESSES:   85475030 HITS:   61971799 MISSES:   23503231
L1D RFO ACCESSES:   14280306 HITS:   13861091 MISSES:     419215
L1D PREFETCH ACCESSES:   57077388 HITS:   31771678 MISSES:   25305710
L1D WRITEBACK ACCESSES:          0 HITS:          0 MISSES:          0
L1D RQ ACCESS:  175129792
L1D RQ TO_CACHE:   85475019
L1D RQ MERGED:   89654762
L1D RQ FORWARD:          0
L1D WQ ACCESS:   14289037
L1D WQ TO_CACHE:   14280306
L1D WQ MERGED:       8731
L1D WQ FORWARD:        491
L1I TOTAL     ACCESS:   93370076  HIT:   93368280  MISS:       1796
L1I LOAD      ACCESS:   93370076  HIT:   93368280  MISS:       1796
L1I RFO       ACCESS:          0  HIT:          0  MISS:          0
L1I PREFETCH  ACCESS:          0  HIT:          0  MISS:          0
L1I WRITEBACK ACCESS:          0  HIT:          0  MISS:          0
L1I PREFETCH  REQUESTED:          0  ISSUED:          0  USEFUL:          0  USELESS:          0
L1I TOTAL MSHR MERGED:       2341
L1I LOAD MSHR MERGED:       2341
L1I RFO MSHR MERGED:          0
L1I PREFETCH MSHR MERGED:          0
L1I WRITEBACK MSHR MERGED:          0
L1I TOTAL ACCESSES:   93372417 HITS:   93368280 MISSES:       4137
L1I LOAD ACCESSES:   93372417 HITS:   93368280 MISSES:       4137
L1I RFO ACCESSES:          0 HITS:          0 MISSES:          0
L1I PREFETCH ACCESSES:          0 HITS:          0 MISSES:          0
L1I WRITEBACK ACCESSES:          0 HITS:          0 MISSES:          0
L1I RQ ACCESS:  500000187
L1I RQ TO_CACHE:   93372417
L1I RQ MERGED:  406627770
L1I RQ FORWARD:          0
L1I WQ ACCESS:          0
L1I WQ TO_CACHE:          0
L1I WQ MERGED:          0
L1I WQ FORWARD:          0
L2C TOTAL     ACCESS:   20902427  HIT:    8672983  MISS:   12229444
L2C LOAD      ACCESS:    5113813  HIT:    2146241  MISS:    2967572
L2C RFO       ACCESS:     152808  HIT:       6521  MISS:     146287
L2C PREFETCH  ACCESS:   13863051  HIT:    4747575  MISS:    9115476
L2C WRITEBACK ACCESS:    1772755  HIT:    1772646  MISS:        109
L2C PREFETCH  REQUESTED:    1811203  ISSUED:    1811203  USEFUL:    1066710  USELESS:    8050424
L2C TOTAL MSHR MERGED:      97391
L2C LOAD MSHR MERGED:      21929
L2C RFO MSHR MERGED:          0
L2C PREFETCH MSHR MERGED:      75462
L2C WRITEBACK MSHR MERGED:          0
L2C TOTAL ACCESSES:   21023685 HITS:    8673024 MISSES:   12350661
L2C LOAD ACCESSES:    5113835 HITS:    2146263 MISSES:    2967572
L2C RFO ACCESSES:     152808 HITS:       6521 MISSES:     146287
L2C PREFETCH ACCESSES:   13984287 HITS:    4747594 MISSES:    9236693
L2C WRITEBACK ACCESSES:    1772755 HITS:    1772646 MISSES:        109
L2C RQ ACCESS:    5266643
L2C RQ TO_CACHE:    5266621
L2C RQ MERGED:          0
L2C RQ FORWARD:          0
L2C WQ ACCESS:    1772755
L2C WQ TO_CACHE:    1772755
L2C WQ MERGED:          0
L2C WQ FORWARD:         41
LLC TOTAL     ACCESS:   12533739  HIT:    6808606  MISS:    5725133
LLC LOAD      ACCESS:    2945624  HIT:    2497395  MISS:     448229
LLC RFO       ACCESS:     146287  HIT:      74708  MISS:      71579
LLC PREFETCH  ACCESS:    9155842  HIT:    4006216  MISS:    5149626
LLC WRITEBACK ACCESS:     285986  HIT:     230287  MISS:      55699
LLC PREFETCH  REQUESTED:          0  ISSUED:          0  USEFUL:       8719  USELESS:    5140758
LLC TOTAL MSHR MERGED:       1235
LLC LOAD MSHR MERGED:        257
LLC RFO MSHR MERGED:          0
LLC PREFETCH MSHR MERGED:        978
LLC WRITEBACK MSHR MERGED:          0
LLC TOTAL ACCESSES:   12535003 HITS:    6808635 MISSES:    5726368
LLC LOAD ACCESSES:    2945643 HITS:    2497414 MISSES:     448229
LLC RFO ACCESSES:     146287 HITS:      74708 MISSES:      71579
LLC PREFETCH ACCESSES:    9157087 HITS:    4006226 MISSES:    5150861
LLC WRITEBACK ACCESSES:     285986 HITS:     230287 MISSES:      55699
LLC 0 RQ ACCESS:    3091930
LLC 0 RQ TO_CACHE:    3091911
LLC 0 RQ MERGED:          0
LLC 0 RQ FORWARD:          0
LLC WQ ACCESS:     285986
LLC WQ TO_CACHE:     285986
LLC WQ MERGED:          0
LLC WQ FORWARD:         29
Major fault: 0 Minor fault: 6524
CPU 0 L1D next line prefetcher final stats
CPU 0 L2C PC-based stride prefetcher final stats
All Misses: 7521830
All Hits: 7536923
SD Algo Stats - Switches: 0 SRR-Repls: 475086 BRR-Repls: 0

DRAM Statistics
 CHANNEL 0
 RQ ROW_BUFFER_HIT:    4850635  ROW_BUFFER_MISS:     810221
 DBUS_CONGESTED:    2038922
 WQ ROW_BUFFER_HIT:      15095  ROW_BUFFER_MISS:      76795  FULL:          0

 AVG_CONGESTED_CYCLE: 12
LOADS RETIRED: 175418235
INSTR RETIRED: 500000000
