
*** ChampSim Multicore Out-of-Order Simulator ***

Warmup Instructions: 100000000
Simulation Instructions: 500000000
Number of CPUs: 1
LLC sets: 2048
LLC ways: 16
Clean RRIP Policies: 2213230222132302 Dirty RRIP Policies: 1203132212031322 PSEL Width: 10 Track Set: 4294967295 PSEL Mask: 1 Demote Mask: 1040100010401000DS Algo: 0Window size: 0
Off-chip DRAM Size: 4096 MB Channels: 1 Width: 64-bit Data Rate: 1600 MT/s

CPU 0 runs /mnt/beegfs/iconst01/spec2017/cactuBSSN.trace.gz
NOT SORTED
TRACE STRING: /mnt/beegfs/iconst01/spec2017/cactuBSSN.trace.gz
SORTED
TRACE STRING: /mnt/beegfs/iconst01/spec2017/cactuBSSN.trace.gz
INITIAL
TRACE STRING: /mnt/beegfs/iconst01/spec2017/cactuBSSN.trace.gz

champsim_seed used: 838

CPU 0 L1D next line prefetcher
CPU 0 L2C IP-based stride prefetcher
Initialize DRRIP state
Assign rand_sets[0]: 454  LLC: 2048
rand_sets[0]: 454
Assign rand_sets[1]: 1662  LLC: 2048
rand_sets[1]: 1662
Assign rand_sets[2]: 1921  LLC: 2048
rand_sets[2]: 1921
Assign rand_sets[3]: 1131  LLC: 2048
rand_sets[3]: 1131
Assign rand_sets[4]: 331  LLC: 2048
rand_sets[4]: 331
Assign rand_sets[5]: 1531  LLC: 2048
rand_sets[5]: 1531
Assign rand_sets[6]: 482  LLC: 2048
rand_sets[6]: 482
Assign rand_sets[7]: 1275  LLC: 2048
rand_sets[7]: 1275
Assign rand_sets[8]: 1876  LLC: 2048
rand_sets[8]: 1876
Assign rand_sets[9]: 2038  LLC: 2048
rand_sets[9]: 2038
Assign rand_sets[10]: 701  LLC: 2048
rand_sets[10]: 701
Assign rand_sets[11]: 479  LLC: 2048
rand_sets[11]: 479
Assign rand_sets[12]: 892  LLC: 2048
rand_sets[12]: 892
Assign rand_sets[13]: 1820  LLC: 2048
rand_sets[13]: 1820
Assign rand_sets[14]: 1505  LLC: 2048
rand_sets[14]: 1505
Assign rand_sets[15]: 1159  LLC: 2048
rand_sets[15]: 1159
Assign rand_sets[16]: 513  LLC: 2048
rand_sets[16]: 513
Assign rand_sets[17]: 703  LLC: 2048
rand_sets[17]: 703
Assign rand_sets[18]: 561  LLC: 2048
rand_sets[18]: 561
Assign rand_sets[19]: 990  LLC: 2048
rand_sets[19]: 990
Assign rand_sets[20]: 342  LLC: 2048
rand_sets[20]: 342
Assign rand_sets[21]: 882  LLC: 2048
rand_sets[21]: 882
Assign rand_sets[22]: 15  LLC: 2048
rand_sets[22]: 15
Assign rand_sets[23]: 71  LLC: 2048
rand_sets[23]: 71
Assign rand_sets[24]: 1127  LLC: 2048
rand_sets[24]: 1127
Assign rand_sets[25]: 1382  LLC: 2048
rand_sets[25]: 1382
Assign rand_sets[26]: 647  LLC: 2048
rand_sets[26]: 647
Assign rand_sets[27]: 857  LLC: 2048
rand_sets[27]: 857
Assign rand_sets[28]: 1450  LLC: 2048
rand_sets[28]: 1450
Assign rand_sets[29]: 1160  LLC: 2048
rand_sets[29]: 1160
Assign rand_sets[30]: 1852  LLC: 2048
rand_sets[30]: 1852
Assign rand_sets[31]: 1881  LLC: 2048
rand_sets[31]: 1881
Assign rand_sets[32]: 1770  LLC: 2048
rand_sets[32]: 1770
Assign rand_sets[33]: 1622  LLC: 2048
rand_sets[33]: 1622
Assign rand_sets[34]: 275  LLC: 2048
rand_sets[34]: 275
Assign rand_sets[35]: 635  LLC: 2048
rand_sets[35]: 635
Assign rand_sets[36]: 466  LLC: 2048
rand_sets[36]: 466
Assign rand_sets[37]: 1413  LLC: 2048
rand_sets[37]: 1413
Assign rand_sets[38]: 417  LLC: 2048
rand_sets[38]: 417
Assign rand_sets[39]: 472  LLC: 2048
rand_sets[39]: 472
Assign rand_sets[40]: 1340  LLC: 2048
rand_sets[40]: 1340
Assign rand_sets[41]: 852  LLC: 2048
rand_sets[41]: 852
Assign rand_sets[42]: 1365  LLC: 2048
rand_sets[42]: 1365
Assign rand_sets[43]: 47  LLC: 2048
rand_sets[43]: 47
Assign rand_sets[44]: 823  LLC: 2048
rand_sets[44]: 823
Assign rand_sets[45]: 686  LLC: 2048
rand_sets[45]: 686
Assign rand_sets[46]: 1637  LLC: 2048
rand_sets[46]: 1637
Assign rand_sets[47]: 1115  LLC: 2048
rand_sets[47]: 1115
Assign rand_sets[48]: 986  LLC: 2048
rand_sets[48]: 986
Assign rand_sets[49]: 258  LLC: 2048
rand_sets[49]: 258
Assign rand_sets[50]: 633  LLC: 2048
rand_sets[50]: 633
Assign rand_sets[51]: 920  LLC: 2048
rand_sets[51]: 920
Assign rand_sets[52]: 204  LLC: 2048
rand_sets[52]: 204
Assign rand_sets[53]: 227  LLC: 2048
rand_sets[53]: 227
Assign rand_sets[54]: 1818  LLC: 2048
rand_sets[54]: 1818
Assign rand_sets[55]: 886  LLC: 2048
rand_sets[55]: 886
Assign rand_sets[56]: 1422  LLC: 2048
rand_sets[56]: 1422
Assign rand_sets[57]: 607  LLC: 2048
rand_sets[57]: 607
Assign rand_sets[58]: 217  LLC: 2048
rand_sets[58]: 217
Assign rand_sets[59]: 1945  LLC: 2048
rand_sets[59]: 1945
Assign rand_sets[60]: 143  LLC: 2048
rand_sets[60]: 143
Assign rand_sets[61]: 1311  LLC: 2048
rand_sets[61]: 1311
Assign rand_sets[62]: 319  LLC: 2048
rand_sets[62]: 319
Assign rand_sets[63]: 1846  LLC: 2048
rand_sets[63]: 1846
 CLEAN-RRIP-POLICY-1: 2-2-1-3-2-3-0-2- CLEAN-RRIP-POLICY-2: 2-2-1-3-2-3-0-2-
 DIRTY-RRIP-POLICY-1: 1-2-0-3-1-3-2-2- DIRTY-RRIP-POLICY-2: 1-2-0-3-1-3-2-2-
 PSEL width: 10
Heartbeat CPU 0 instructions: 10000000 cycles: 6588002 heartbeat IPC: 1.51791 cumulative IPC: 1.51791 (Simulation time: 0 hr 0 min 25 sec) 
Heartbeat CPU 0 instructions: 20000000 cycles: 13179589 heartbeat IPC: 1.51709 cumulative IPC: 1.5175 (Simulation time: 0 hr 0 min 49 sec) 
Heartbeat CPU 0 instructions: 30000003 cycles: 19772907 heartbeat IPC: 1.51669 cumulative IPC: 1.51723 (Simulation time: 0 hr 1 min 14 sec) 
Heartbeat CPU 0 instructions: 40000000 cycles: 26364655 heartbeat IPC: 1.51705 cumulative IPC: 1.51718 (Simulation time: 0 hr 1 min 39 sec) 
Heartbeat CPU 0 instructions: 50000001 cycles: 32957329 heartbeat IPC: 1.51684 cumulative IPC: 1.51711 (Simulation time: 0 hr 2 min 4 sec) 
Heartbeat CPU 0 instructions: 60000000 cycles: 39556143 heartbeat IPC: 1.51542 cumulative IPC: 1.51683 (Simulation time: 0 hr 2 min 30 sec) 
Heartbeat CPU 0 instructions: 70000003 cycles: 46154518 heartbeat IPC: 1.51553 cumulative IPC: 1.51664 (Simulation time: 0 hr 2 min 55 sec) 
Heartbeat CPU 0 instructions: 80000000 cycles: 52752570 heartbeat IPC: 1.5156 cumulative IPC: 1.51651 (Simulation time: 0 hr 3 min 20 sec) 
Heartbeat CPU 0 instructions: 90000002 cycles: 59348245 heartbeat IPC: 1.51615 cumulative IPC: 1.51647 (Simulation time: 0 hr 3 min 45 sec) 
Heartbeat CPU 0 instructions: 100000000 cycles: 65943307 heartbeat IPC: 1.51629 cumulative IPC: 1.51645 (Simulation time: 0 hr 4 min 10 sec) 

Warmup complete CPU 0 instructions: 100000002 cycles: 65943308 (Simulation time: 0 hr 4 min 10 sec) 

Heartbeat CPU 0 instructions: 110000000 cycles: 79182445 heartbeat IPC: 0.755336 cumulative IPC: 0.755336 (Simulation time: 0 hr 4 min 41 sec) 
Heartbeat CPU 0 instructions: 120000000 cycles: 92384007 heartbeat IPC: 0.757486 cumulative IPC: 0.75641 (Simulation time: 0 hr 5 min 12 sec) 
Heartbeat CPU 0 instructions: 130000001 cycles: 105653867 heartbeat IPC: 0.753588 cumulative IPC: 0.755467 (Simulation time: 0 hr 5 min 43 sec) 
Heartbeat CPU 0 instructions: 140000000 cycles: 118820770 heartbeat IPC: 0.75948 cumulative IPC: 0.756466 (Simulation time: 0 hr 6 min 14 sec) 
Heartbeat CPU 0 instructions: 150000001 cycles: 132005111 heartbeat IPC: 0.758476 cumulative IPC: 0.756867 (Simulation time: 0 hr 6 min 45 sec) 
Heartbeat CPU 0 instructions: 160000000 cycles: 145234543 heartbeat IPC: 0.75589 cumulative IPC: 0.756704 (Simulation time: 0 hr 7 min 15 sec) 
Heartbeat CPU 0 instructions: 170000000 cycles: 158441774 heartbeat IPC: 0.757161 cumulative IPC: 0.756769 (Simulation time: 0 hr 7 min 46 sec) 
Heartbeat CPU 0 instructions: 180000000 cycles: 171642716 heartbeat IPC: 0.757522 cumulative IPC: 0.756863 (Simulation time: 0 hr 8 min 17 sec) 
Heartbeat CPU 0 instructions: 190000000 cycles: 184808710 heartbeat IPC: 0.759532 cumulative IPC: 0.757159 (Simulation time: 0 hr 8 min 48 sec) 
Heartbeat CPU 0 instructions: 200000000 cycles: 198060552 heartbeat IPC: 0.754612 cumulative IPC: 0.756903 (Simulation time: 0 hr 9 min 19 sec) 
Heartbeat CPU 0 instructions: 210000002 cycles: 211268188 heartbeat IPC: 0.757138 cumulative IPC: 0.756925 (Simulation time: 0 hr 9 min 50 sec) 
Heartbeat CPU 0 instructions: 220000000 cycles: 224439593 heartbeat IPC: 0.75922 cumulative IPC: 0.757116 (Simulation time: 0 hr 10 min 21 sec) 
Heartbeat CPU 0 instructions: 230000003 cycles: 237685828 heartbeat IPC: 0.754932 cumulative IPC: 0.756947 (Simulation time: 0 hr 10 min 52 sec) 
Heartbeat CPU 0 instructions: 240000000 cycles: 250869559 heartbeat IPC: 0.75851 cumulative IPC: 0.757059 (Simulation time: 0 hr 11 min 22 sec) 
Heartbeat CPU 0 instructions: 250000001 cycles: 264088574 heartbeat IPC: 0.756486 cumulative IPC: 0.75702 (Simulation time: 0 hr 11 min 53 sec) 
Heartbeat CPU 0 instructions: 260000000 cycles: 277299859 heartbeat IPC: 0.756929 cumulative IPC: 0.757015 (Simulation time: 0 hr 12 min 24 sec) 
Heartbeat CPU 0 instructions: 270000003 cycles: 290542471 heartbeat IPC: 0.755138 cumulative IPC: 0.756904 (Simulation time: 0 hr 12 min 54 sec) 
Heartbeat CPU 0 instructions: 280000000 cycles: 303746919 heartbeat IPC: 0.75732 cumulative IPC: 0.756927 (Simulation time: 0 hr 13 min 25 sec) 
Heartbeat CPU 0 instructions: 290000000 cycles: 316919365 heartbeat IPC: 0.75916 cumulative IPC: 0.757044 (Simulation time: 0 hr 13 min 55 sec) 
Heartbeat CPU 0 instructions: 300000000 cycles: 330171773 heartbeat IPC: 0.75458 cumulative IPC: 0.756921 (Simulation time: 0 hr 14 min 25 sec) 
Heartbeat CPU 0 instructions: 310000001 cycles: 343346706 heartbeat IPC: 0.759017 cumulative IPC: 0.75702 (Simulation time: 0 hr 14 min 56 sec) 
Heartbeat CPU 0 instructions: 320000000 cycles: 356538474 heartbeat IPC: 0.758048 cumulative IPC: 0.757067 (Simulation time: 0 hr 15 min 26 sec) 
Heartbeat CPU 0 instructions: 330000002 cycles: 369733954 heartbeat IPC: 0.757835 cumulative IPC: 0.7571 (Simulation time: 0 hr 15 min 56 sec) 
Heartbeat CPU 0 instructions: 340000000 cycles: 382974073 heartbeat IPC: 0.75528 cumulative IPC: 0.757024 (Simulation time: 0 hr 16 min 26 sec) 
Heartbeat CPU 0 instructions: 350000000 cycles: 396227455 heartbeat IPC: 0.754524 cumulative IPC: 0.756924 (Simulation time: 0 hr 16 min 56 sec) 
Heartbeat CPU 0 instructions: 360000000 cycles: 409444271 heartbeat IPC: 0.756612 cumulative IPC: 0.756912 (Simulation time: 0 hr 17 min 26 sec) 
Heartbeat CPU 0 instructions: 370000002 cycles: 422714261 heartbeat IPC: 0.75358 cumulative IPC: 0.756788 (Simulation time: 0 hr 17 min 55 sec) 
Heartbeat CPU 0 instructions: 380000000 cycles: 435921560 heartbeat IPC: 0.757157 cumulative IPC: 0.756801 (Simulation time: 0 hr 18 min 25 sec) 
Heartbeat CPU 0 instructions: 390000000 cycles: 449093323 heartbeat IPC: 0.7592 cumulative IPC: 0.756884 (Simulation time: 0 hr 18 min 55 sec) 
Heartbeat CPU 0 instructions: 400000000 cycles: 462286409 heartbeat IPC: 0.757973 cumulative IPC: 0.75692 (Simulation time: 0 hr 19 min 25 sec) 
Heartbeat CPU 0 instructions: 410000001 cycles: 475533813 heartbeat IPC: 0.754865 cumulative IPC: 0.756853 (Simulation time: 0 hr 19 min 54 sec) 
Heartbeat CPU 0 instructions: 420000000 cycles: 488714609 heartbeat IPC: 0.758679 cumulative IPC: 0.75691 (Simulation time: 0 hr 20 min 24 sec) 
Heartbeat CPU 0 instructions: 430000001 cycles: 501897761 heartbeat IPC: 0.758544 cumulative IPC: 0.75696 (Simulation time: 0 hr 20 min 54 sec) 
Heartbeat CPU 0 instructions: 440000000 cycles: 515063008 heartbeat IPC: 0.759575 cumulative IPC: 0.757037 (Simulation time: 0 hr 21 min 23 sec) 
Heartbeat CPU 0 instructions: 450000002 cycles: 528370796 heartbeat IPC: 0.75144 cumulative IPC: 0.756875 (Simulation time: 0 hr 21 min 53 sec) 
Heartbeat CPU 0 instructions: 460000000 cycles: 541584792 heartbeat IPC: 0.756773 cumulative IPC: 0.756873 (Simulation time: 0 hr 22 min 23 sec) 
Heartbeat CPU 0 instructions: 470000003 cycles: 554783081 heartbeat IPC: 0.757674 cumulative IPC: 0.756894 (Simulation time: 0 hr 22 min 53 sec) 
Heartbeat CPU 0 instructions: 480000000 cycles: 568024295 heartbeat IPC: 0.755218 cumulative IPC: 0.75685 (Simulation time: 0 hr 23 min 22 sec) 
Heartbeat CPU 0 instructions: 490000000 cycles: 581231507 heartbeat IPC: 0.757162 cumulative IPC: 0.756858 (Simulation time: 0 hr 23 min 52 sec) 
Heartbeat CPU 0 instructions: 500000000 cycles: 594424880 heartbeat IPC: 0.757956 cumulative IPC: 0.756885 (Simulation time: 0 hr 24 min 22 sec) 
Heartbeat CPU 0 instructions: 510000001 cycles: 607592770 heartbeat IPC: 0.759423 cumulative IPC: 0.756947 (Simulation time: 0 hr 24 min 51 sec) 
Heartbeat CPU 0 instructions: 520000000 cycles: 620873206 heartbeat IPC: 0.752987 cumulative IPC: 0.756852 (Simulation time: 0 hr 25 min 21 sec) 
Heartbeat CPU 0 instructions: 530000000 cycles: 634120181 heartbeat IPC: 0.754889 cumulative IPC: 0.756807 (Simulation time: 0 hr 25 min 51 sec) 
Heartbeat CPU 0 instructions: 540000000 cycles: 647344514 heartbeat IPC: 0.756182 cumulative IPC: 0.756792 (Simulation time: 0 hr 26 min 21 sec) 
Heartbeat CPU 0 instructions: 550000002 cycles: 660601672 heartbeat IPC: 0.75431 cumulative IPC: 0.756737 (Simulation time: 0 hr 26 min 50 sec) 
Heartbeat CPU 0 instructions: 560000000 cycles: 673787639 heartbeat IPC: 0.758382 cumulative IPC: 0.756773 (Simulation time: 0 hr 27 min 20 sec) 
Heartbeat CPU 0 instructions: 570000001 cycles: 686993132 heartbeat IPC: 0.757261 cumulative IPC: 0.756783 (Simulation time: 0 hr 27 min 50 sec) 
Heartbeat CPU 0 instructions: 580000000 cycles: 700197002 heartbeat IPC: 0.757354 cumulative IPC: 0.756795 (Simulation time: 0 hr 28 min 19 sec) 
Heartbeat CPU 0 instructions: 590000003 cycles: 713434111 heartbeat IPC: 0.755452 cumulative IPC: 0.756768 (Simulation time: 0 hr 28 min 48 sec) 
Heartbeat CPU 0 instructions: 600000000 cycles: 726688797 heartbeat IPC: 0.75445 cumulative IPC: 0.756721 (Simulation time: 0 hr 29 min 18 sec) 
Finished CPU 0 instructions: 500000000 cycles: 660745499 cumulative IPC: 0.756721 (Simulation time: 0 hr 29 min 18 sec) 

CPU 0 Branch Prediction Accuracy: 99.968% MPKI: 0.002246
Number of Branches: 3513331 Number of Mispredictions: 1123
Number of LOAD Instructions: 287251172
Number of LOAD Instructions (ROI): 287251172
Number of STORE Instructions: 51060820
Number of STORE Instructions (ROI): 51060820
Total Destination Memory Operands: 51166221
Total Destination Memory Operands (ROI): 51166221
Total Source Memory Operands: 287251172
Total Source Memory Operands (ROI): 287251172
Number of DEPENDED LOADS: 9555462
Number of DEPENDED LOADS (ROI): 9555462
Number of SQ_ADDED: 51166208
Number of SQ_ADDED (ROI): 51166208
Number of LQ_ADDED: 290419830
Number of LQ_ADDED (ROI): 290419830
Number of Instructions read from trace: 600000257

ChampSim completed all CPUs

Region of Interest Statistics

CPU 0 cumulative IPC: 0.756721 instructions: 500000000 cycles: 660745499
ITLB TOTAL     ACCESS:  108949898  HIT:  108949898  MISS:          0
ITLB LOAD      ACCESS:  108949898  HIT:  108949898  MISS:          0
ITLB RFO       ACCESS:          0  HIT:          0  MISS:          0
ITLB PREFETCH  ACCESS:          0  HIT:          0  MISS:          0
ITLB WRITEBACK ACCESS:          0  HIT:          0  MISS:          0
ITLB PREFETCH  REQUESTED:          0  ISSUED:          0  USEFUL:          0  USELESS:          0
ITLB TOTAL MSHR MERGED:          0
ITLB LOAD MSHR MERGED:          0
ITLB RFO MSHR MERGED:          0
ITLB PREFETCH MSHR MERGED:          0
ITLB WRITEBACK MSHR MERGED:          0
ITLB TOTAL ACCESSES:  108949898 HITS:  108949898 MISSES:          0
ITLB LOAD ACCESSES:  108949898 HITS:  108949898 MISSES:          0
ITLB RFO ACCESSES:          0 HITS:          0 MISSES:          0
ITLB PREFETCH ACCESSES:          0 HITS:          0 MISSES:          0
ITLB WRITEBACK ACCESSES:          0 HITS:          0 MISSES:          0
ITLB RQ ACCESS:  500000001
ITLB RQ TO_CACHE:  108949898
ITLB RQ MERGED:  391050103
ITLB RQ FORWARD:          0
ITLB WQ ACCESS:          0
ITLB WQ TO_CACHE:          0
ITLB WQ MERGED:          0
ITLB WQ FORWARD:          0
DTLB TOTAL     ACCESS:  171131063  HIT:  161114739  MISS:   10016324
DTLB LOAD      ACCESS:  143471789  HIT:  135595715  MISS:    7876074
DTLB RFO       ACCESS:   27659274  HIT:   25519024  MISS:    2140250
DTLB PREFETCH  ACCESS:          0  HIT:          0  MISS:          0
DTLB WRITEBACK ACCESS:          0  HIT:          0  MISS:          0
DTLB PREFETCH  REQUESTED:          0  ISSUED:          0  USEFUL:          0  USELESS:          0
DTLB TOTAL MSHR MERGED:     360406
DTLB LOAD MSHR MERGED:     360406
DTLB RFO MSHR MERGED:          0
DTLB PREFETCH MSHR MERGED:          0
DTLB WRITEBACK MSHR MERGED:          0
DTLB TOTAL ACCESSES:  171491469 HITS:  161114739 MISSES:   10376730
DTLB LOAD ACCESSES:  143832195 HITS:  135595715 MISSES:    8236480
DTLB RFO ACCESSES:   27659274 HITS:   25519024 MISSES:    2140250
DTLB PREFETCH ACCESSES:          0 HITS:          0 MISSES:          0
DTLB WRITEBACK ACCESSES:          0 HITS:          0 MISSES:          0
DTLB RQ ACCESS:  274072355
DTLB RQ TO_CACHE:  171491469
DTLB RQ MERGED:  102580886
DTLB RQ FORWARD:          0
DTLB WQ ACCESS:          0
DTLB WQ TO_CACHE:          0
DTLB WQ MERGED:          0
DTLB WQ FORWARD:          0
L1D TOTAL     ACCESS:  350949081  HIT:  283749763  MISS:   67199318
L1D LOAD      ACCESS:  175626887  HIT:  142587584  MISS:   33039303
L1D RFO       ACCESS:   42020102  HIT:   39214573  MISS:    2805529
L1D PREFETCH  ACCESS:  133302092  HIT:  101947606  MISS:   31354486
L1D WRITEBACK ACCESS:          0  HIT:          0  MISS:          0
L1D PREFETCH  REQUESTED:  176230859  ISSUED:  175292713  USEFUL:    2180597  USELESS:   29173891
L1D TOTAL MSHR MERGED:    1482739
L1D LOAD MSHR MERGED:     703926
L1D RFO MSHR MERGED:     348970
L1D PREFETCH MSHR MERGED:     429843
L1D WRITEBACK MSHR MERGED:          0
L1D TOTAL ACCESSES:  352544510 HITS:  283862453 MISSES:   68682057
L1D LOAD ACCESSES:  176237587 HITS:  142594312 MISSES:   33643275
L1D RFO ACCESSES:   42368421 HITS:   39214573 MISSES:    3153848
L1D PREFETCH ACCESSES:  133938502 HITS:  102053568 MISSES:   31884934
L1D WRITEBACK ACCESSES:          0 HITS:          0 MISSES:          0
L1D RQ ACCESS:  231433882
L1D RQ TO_CACHE:  176230859
L1D RQ MERGED:   55196295
L1D RQ FORWARD:          0
L1D WQ ACCESS:   42638475
L1D WQ TO_CACHE:   42368421
L1D WQ MERGED:     270054
L1D WQ FORWARD:     112690
L1I TOTAL     ACCESS:  109343611  HIT:   77827907  MISS:   31515704
L1I LOAD      ACCESS:  109343611  HIT:   77827907  MISS:   31515704
L1I RFO       ACCESS:          0  HIT:          0  MISS:          0
L1I PREFETCH  ACCESS:          0  HIT:          0  MISS:          0
L1I WRITEBACK ACCESS:          0  HIT:          0  MISS:          0
L1I PREFETCH  REQUESTED:          0  ISSUED:          0  USEFUL:          0  USELESS:          0
L1I TOTAL MSHR MERGED:   30750155
L1I LOAD MSHR MERGED:   30750155
L1I RFO MSHR MERGED:          0
L1I PREFETCH MSHR MERGED:          0
L1I WRITEBACK MSHR MERGED:          0
L1I TOTAL ACCESSES:  140093768 HITS:   77827907 MISSES:   62265861
L1I LOAD ACCESSES:  140093768 HITS:   77827907 MISSES:   62265861
L1I RFO ACCESSES:          0 HITS:          0 MISSES:          0
L1I PREFETCH ACCESSES:          0 HITS:          0 MISSES:          0
L1I WRITEBACK ACCESSES:          0 HITS:          0 MISSES:          0
L1I RQ ACCESS:  500000003
L1I RQ TO_CACHE:  140093768
L1I RQ MERGED:  359906235
L1I RQ FORWARD:          0
L1I WQ ACCESS:          0
L1I WQ TO_CACHE:          0
L1I WQ MERGED:          0
L1I WQ FORWARD:          0
L2C TOTAL     ACCESS:  113698800  HIT:  110696544  MISS:    3002256
L2C LOAD      ACCESS:   64453184  HIT:   63892611  MISS:     560573
L2C RFO       ACCESS:    2802989  HIT:    2193445  MISS:     609544
L2C PREFETCH  ACCESS:   43281634  HIT:   41455769  MISS:    1825865
L2C WRITEBACK ACCESS:    3160993  HIT:    3154719  MISS:       6274
L2C PREFETCH  REQUESTED:   15134567  ISSUED:   14620293  USEFUL:    1700907  USELESS:     124966
L2C TOTAL MSHR MERGED:      12800
L2C LOAD MSHR MERGED:          0
L2C RFO MSHR MERGED:          0
L2C PREFETCH MSHR MERGED:      12800
L2C WRITEBACK MSHR MERGED:          0
L2C TOTAL ACCESSES:  113904035 HITS:  110702407 MISSES:    3201628
L2C LOAD ACCESSES:   64455054 HITS:   63894480 MISSES:     560574
L2C RFO ACCESSES:    2804878 HITS:    2195334 MISSES:     609544
L2C PREFETCH ACCESSES:   43483110 HITS:   41457874 MISSES:    2025236
L2C WRITEBACK ACCESSES:    3160993 HITS:    3154719 MISSES:       6274
L2C RQ ACCESS:   67259933
L2C RQ TO_CACHE:   67256175
L2C RQ MERGED:          0
L2C RQ FORWARD:          0
L2C WQ ACCESS:    3160993
L2C WQ TO_CACHE:    3160993
L2C WQ MERGED:          0
L2C WQ FORWARD:       5863
LLC TOTAL     ACCESS:    3713837  HIT:    1848768  MISS:    1865069
LLC LOAD      ACCESS:     560542  HIT:     496670  MISS:      63872
LLC RFO       ACCESS:     527406  HIT:     239306  MISS:     288100
LLC PREFETCH  ACCESS:    2007318  HIT:     642783  MISS:    1364535
LLC WRITEBACK ACCESS:     618571  HIT:     470009  MISS:     148562
LLC PREFETCH  REQUESTED:          0  ISSUED:          0  USEFUL:      43835  USELESS:    1314126
LLC TOTAL MSHR MERGED:       4422
LLC LOAD MSHR MERGED:          0
LLC RFO MSHR MERGED:          0
LLC PREFETCH MSHR MERGED:       4422
LLC WRITEBACK MSHR MERGED:          0
LLC TOTAL ACCESSES:    3800515 HITS:    1931024 MISSES:    1869491
LLC LOAD ACCESSES:     560573 HITS:     496701 MISSES:      63872
LLC RFO ACCESSES:     609544 HITS:     321444 MISSES:     288100
LLC PREFETCH ACCESSES:    2011827 HITS:     642870 MISSES:    1368957
LLC WRITEBACK ACCESSES:     618571 HITS:     470009 MISSES:     148562
LLC 0 RQ ACCESS:    1170118
LLC 0 RQ TO_CACHE:    1087949
LLC 0 RQ MERGED:          0
LLC 0 RQ FORWARD:          0
LLC WQ ACCESS:     618571
LLC WQ TO_CACHE:     618571
LLC WQ MERGED:          0
LLC WQ FORWARD:      82256
Major fault: 0 Minor fault: 12800
CPU 0 L1D next line prefetcher final stats
CPU 0 L2C PC-based stride prefetcher final stats
All Misses: 2264941
All Hits: 2299846
SD Algo Stats - Switches: 0 SRR-Repls: 81436 BRR-Repls: 0

DRAM Statistics
 CHANNEL 0
 RQ ROW_BUFFER_HIT:     846185  ROW_BUFFER_MISS:     870321
 DBUS_CONGESTED:     911330
 WQ ROW_BUFFER_HIT:      30658  ROW_BUFFER_MISS:     261166  FULL:          0

 AVG_CONGESTED_CYCLE: 13
LOADS RETIRED: 239375970
INSTR RETIRED: 500000000
