
*** ChampSim Multicore Out-of-Order Simulator ***

Warmup Instructions: 100000000
Simulation Instructions: 500000000
Number of CPUs: 1
LLC sets: 2048
LLC ways: 16
Clean RRIP Policies: 2213130222131302 Dirty RRIP Policies: 2223130222231302 PSEL Width: 10 Track Set: 4294967295 PSEL Mask: 1 Demote Mask: 3040100030401000DS Algo: 0Window size: 0
Off-chip DRAM Size: 4096 MB Channels: 1 Width: 64-bit Data Rate: 1600 MT/s

CPU 0 runs /mnt/beegfs/iconst01/spec2017/Roms.trace.gz
NOT SORTED
TRACE STRING: /mnt/beegfs/iconst01/spec2017/Roms.trace.gz
SORTED
TRACE STRING: /mnt/beegfs/iconst01/spec2017/Roms.trace.gz
INITIAL
TRACE STRING: /mnt/beegfs/iconst01/spec2017/Roms.trace.gz

champsim_seed used: 417

CPU 0 L1D next line prefetcher
CPU 0 L2C IP-based stride prefetcher
Initialize DRRIP state
Assign rand_sets[0]: 454  LLC: 2048
rand_sets[0]: 454
Assign rand_sets[1]: 1662  LLC: 2048
rand_sets[1]: 1662
Assign rand_sets[2]: 1921  LLC: 2048
rand_sets[2]: 1921
Assign rand_sets[3]: 1131  LLC: 2048
rand_sets[3]: 1131
Assign rand_sets[4]: 331  LLC: 2048
rand_sets[4]: 331
Assign rand_sets[5]: 1531  LLC: 2048
rand_sets[5]: 1531
Assign rand_sets[6]: 482  LLC: 2048
rand_sets[6]: 482
Assign rand_sets[7]: 1275  LLC: 2048
rand_sets[7]: 1275
Assign rand_sets[8]: 1876  LLC: 2048
rand_sets[8]: 1876
Assign rand_sets[9]: 2038  LLC: 2048
rand_sets[9]: 2038
Assign rand_sets[10]: 701  LLC: 2048
rand_sets[10]: 701
Assign rand_sets[11]: 479  LLC: 2048
rand_sets[11]: 479
Assign rand_sets[12]: 892  LLC: 2048
rand_sets[12]: 892
Assign rand_sets[13]: 1820  LLC: 2048
rand_sets[13]: 1820
Assign rand_sets[14]: 1505  LLC: 2048
rand_sets[14]: 1505
Assign rand_sets[15]: 1159  LLC: 2048
rand_sets[15]: 1159
Assign rand_sets[16]: 513  LLC: 2048
rand_sets[16]: 513
Assign rand_sets[17]: 703  LLC: 2048
rand_sets[17]: 703
Assign rand_sets[18]: 561  LLC: 2048
rand_sets[18]: 561
Assign rand_sets[19]: 990  LLC: 2048
rand_sets[19]: 990
Assign rand_sets[20]: 342  LLC: 2048
rand_sets[20]: 342
Assign rand_sets[21]: 882  LLC: 2048
rand_sets[21]: 882
Assign rand_sets[22]: 15  LLC: 2048
rand_sets[22]: 15
Assign rand_sets[23]: 71  LLC: 2048
rand_sets[23]: 71
Assign rand_sets[24]: 1127  LLC: 2048
rand_sets[24]: 1127
Assign rand_sets[25]: 1382  LLC: 2048
rand_sets[25]: 1382
Assign rand_sets[26]: 647  LLC: 2048
rand_sets[26]: 647
Assign rand_sets[27]: 857  LLC: 2048
rand_sets[27]: 857
Assign rand_sets[28]: 1450  LLC: 2048
rand_sets[28]: 1450
Assign rand_sets[29]: 1160  LLC: 2048
rand_sets[29]: 1160
Assign rand_sets[30]: 1852  LLC: 2048
rand_sets[30]: 1852
Assign rand_sets[31]: 1881  LLC: 2048
rand_sets[31]: 1881
Assign rand_sets[32]: 1770  LLC: 2048
rand_sets[32]: 1770
Assign rand_sets[33]: 1622  LLC: 2048
rand_sets[33]: 1622
Assign rand_sets[34]: 275  LLC: 2048
rand_sets[34]: 275
Assign rand_sets[35]: 635  LLC: 2048
rand_sets[35]: 635
Assign rand_sets[36]: 466  LLC: 2048
rand_sets[36]: 466
Assign rand_sets[37]: 1413  LLC: 2048
rand_sets[37]: 1413
Assign rand_sets[38]: 417  LLC: 2048
rand_sets[38]: 417
Assign rand_sets[39]: 472  LLC: 2048
rand_sets[39]: 472
Assign rand_sets[40]: 1340  LLC: 2048
rand_sets[40]: 1340
Assign rand_sets[41]: 852  LLC: 2048
rand_sets[41]: 852
Assign rand_sets[42]: 1365  LLC: 2048
rand_sets[42]: 1365
Assign rand_sets[43]: 47  LLC: 2048
rand_sets[43]: 47
Assign rand_sets[44]: 823  LLC: 2048
rand_sets[44]: 823
Assign rand_sets[45]: 686  LLC: 2048
rand_sets[45]: 686
Assign rand_sets[46]: 1637  LLC: 2048
rand_sets[46]: 1637
Assign rand_sets[47]: 1115  LLC: 2048
rand_sets[47]: 1115
Assign rand_sets[48]: 986  LLC: 2048
rand_sets[48]: 986
Assign rand_sets[49]: 258  LLC: 2048
rand_sets[49]: 258
Assign rand_sets[50]: 633  LLC: 2048
rand_sets[50]: 633
Assign rand_sets[51]: 920  LLC: 2048
rand_sets[51]: 920
Assign rand_sets[52]: 204  LLC: 2048
rand_sets[52]: 204
Assign rand_sets[53]: 227  LLC: 2048
rand_sets[53]: 227
Assign rand_sets[54]: 1818  LLC: 2048
rand_sets[54]: 1818
Assign rand_sets[55]: 886  LLC: 2048
rand_sets[55]: 886
Assign rand_sets[56]: 1422  LLC: 2048
rand_sets[56]: 1422
Assign rand_sets[57]: 607  LLC: 2048
rand_sets[57]: 607
Assign rand_sets[58]: 217  LLC: 2048
rand_sets[58]: 217
Assign rand_sets[59]: 1945  LLC: 2048
rand_sets[59]: 1945
Assign rand_sets[60]: 143  LLC: 2048
rand_sets[60]: 143
Assign rand_sets[61]: 1311  LLC: 2048
rand_sets[61]: 1311
Assign rand_sets[62]: 319  LLC: 2048
rand_sets[62]: 319
Assign rand_sets[63]: 1846  LLC: 2048
rand_sets[63]: 1846
 CLEAN-RRIP-POLICY-1: 2-2-1-3-1-3-0-2- CLEAN-RRIP-POLICY-2: 2-2-1-3-1-3-0-2-
 DIRTY-RRIP-POLICY-1: 2-2-2-3-1-3-0-2- DIRTY-RRIP-POLICY-2: 2-2-2-3-1-3-0-2-
 PSEL width: 10
Heartbeat CPU 0 instructions: 10000000 cycles: 4688066 heartbeat IPC: 2.13308 cumulative IPC: 2.13308 (Simulation time: 0 hr 0 min 17 sec) 
Heartbeat CPU 0 instructions: 20000000 cycles: 9325334 heartbeat IPC: 2.15644 cumulative IPC: 2.1447 (Simulation time: 0 hr 0 min 35 sec) 
Heartbeat CPU 0 instructions: 30000003 cycles: 14019725 heartbeat IPC: 2.1302 cumulative IPC: 2.13984 (Simulation time: 0 hr 0 min 53 sec) 
Heartbeat CPU 0 instructions: 40000000 cycles: 18670143 heartbeat IPC: 2.15034 cumulative IPC: 2.14246 (Simulation time: 0 hr 1 min 10 sec) 
Heartbeat CPU 0 instructions: 50000003 cycles: 23323502 heartbeat IPC: 2.14899 cumulative IPC: 2.14376 (Simulation time: 0 hr 1 min 28 sec) 
Heartbeat CPU 0 instructions: 60000000 cycles: 27976106 heartbeat IPC: 2.14933 cumulative IPC: 2.14469 (Simulation time: 0 hr 1 min 45 sec) 
Heartbeat CPU 0 instructions: 70000002 cycles: 32367226 heartbeat IPC: 2.27732 cumulative IPC: 2.16268 (Simulation time: 0 hr 2 min 1 sec) 
Heartbeat CPU 0 instructions: 80000000 cycles: 36304036 heartbeat IPC: 2.54013 cumulative IPC: 2.20361 (Simulation time: 0 hr 2 min 13 sec) 
Heartbeat CPU 0 instructions: 90000000 cycles: 40249298 heartbeat IPC: 2.53469 cumulative IPC: 2.23606 (Simulation time: 0 hr 2 min 25 sec) 
Heartbeat CPU 0 instructions: 100000000 cycles: 44211582 heartbeat IPC: 2.5238 cumulative IPC: 2.26185 (Simulation time: 0 hr 2 min 38 sec) 

Warmup complete CPU 0 instructions: 100000002 cycles: 44211583 (Simulation time: 0 hr 2 min 38 sec) 

Heartbeat CPU 0 instructions: 110000000 cycles: 52832853 heartbeat IPC: 1.15992 cumulative IPC: 1.15992 (Simulation time: 0 hr 2 min 57 sec) 
Heartbeat CPU 0 instructions: 120000000 cycles: 61501242 heartbeat IPC: 1.15362 cumulative IPC: 1.15676 (Simulation time: 0 hr 3 min 17 sec) 
Heartbeat CPU 0 instructions: 130000002 cycles: 70203194 heartbeat IPC: 1.14917 cumulative IPC: 1.15422 (Simulation time: 0 hr 3 min 36 sec) 
Heartbeat CPU 0 instructions: 140000000 cycles: 78767507 heartbeat IPC: 1.16764 cumulative IPC: 1.15754 (Simulation time: 0 hr 3 min 56 sec) 
Heartbeat CPU 0 instructions: 150000003 cycles: 87495923 heartbeat IPC: 1.14568 cumulative IPC: 1.15515 (Simulation time: 0 hr 4 min 15 sec) 
Heartbeat CPU 0 instructions: 160000000 cycles: 97800380 heartbeat IPC: 0.970454 cumulative IPC: 1.11964 (Simulation time: 0 hr 4 min 37 sec) 
Heartbeat CPU 0 instructions: 170000000 cycles: 110254998 heartbeat IPC: 0.802915 cumulative IPC: 1.05991 (Simulation time: 0 hr 5 min 2 sec) 
Heartbeat CPU 0 instructions: 180000000 cycles: 122713304 heartbeat IPC: 0.802677 cumulative IPC: 1.01909 (Simulation time: 0 hr 5 min 26 sec) 
Heartbeat CPU 0 instructions: 190000000 cycles: 135435616 heartbeat IPC: 0.786021 cumulative IPC: 0.986582 (Simulation time: 0 hr 5 min 51 sec) 
Heartbeat CPU 0 instructions: 200000000 cycles: 149304711 heartbeat IPC: 0.721028 cumulative IPC: 0.951537 (Simulation time: 0 hr 6 min 16 sec) 
Heartbeat CPU 0 instructions: 210000001 cycles: 163193169 heartbeat IPC: 0.720022 cumulative IPC: 0.924513 (Simulation time: 0 hr 6 min 41 sec) 
Heartbeat CPU 0 instructions: 220000000 cycles: 176923537 heartbeat IPC: 0.728313 cumulative IPC: 0.904214 (Simulation time: 0 hr 7 min 6 sec) 
Heartbeat CPU 0 instructions: 230000000 cycles: 190450082 heartbeat IPC: 0.739287 cumulative IPC: 0.888959 (Simulation time: 0 hr 7 min 32 sec) 
Heartbeat CPU 0 instructions: 240000000 cycles: 204056748 heartbeat IPC: 0.734934 cumulative IPC: 0.875848 (Simulation time: 0 hr 7 min 57 sec) 
Heartbeat CPU 0 instructions: 250000003 cycles: 215117417 heartbeat IPC: 0.904105 cumulative IPC: 0.877676 (Simulation time: 0 hr 8 min 21 sec) 
Heartbeat CPU 0 instructions: 260000000 cycles: 222951596 heartbeat IPC: 1.27646 cumulative IPC: 0.895155 (Simulation time: 0 hr 8 min 41 sec) 
Heartbeat CPU 0 instructions: 270000003 cycles: 231245280 heartbeat IPC: 1.20574 cumulative IPC: 0.908927 (Simulation time: 0 hr 9 min 2 sec) 
Heartbeat CPU 0 instructions: 280000000 cycles: 239709701 heartbeat IPC: 1.18142 cumulative IPC: 0.920725 (Simulation time: 0 hr 9 min 23 sec) 
Heartbeat CPU 0 instructions: 290000000 cycles: 248336158 heartbeat IPC: 1.15922 cumulative IPC: 0.930804 (Simulation time: 0 hr 9 min 45 sec) 
Heartbeat CPU 0 instructions: 300000000 cycles: 256964013 heartbeat IPC: 1.15904 cumulative IPC: 0.94006 (Simulation time: 0 hr 10 min 6 sec) 
Heartbeat CPU 0 instructions: 310000000 cycles: 265659379 heartbeat IPC: 1.15004 cumulative IPC: 0.948305 (Simulation time: 0 hr 10 min 29 sec) 
Heartbeat CPU 0 instructions: 320000000 cycles: 274402624 heartbeat IPC: 1.14374 cumulative IPC: 0.955728 (Simulation time: 0 hr 10 min 51 sec) 
Heartbeat CPU 0 instructions: 330000002 cycles: 283105583 heartbeat IPC: 1.14903 cumulative IPC: 0.96277 (Simulation time: 0 hr 11 min 13 sec) 
Heartbeat CPU 0 instructions: 340000000 cycles: 293098967 heartbeat IPC: 1.00066 cumulative IPC: 0.964292 (Simulation time: 0 hr 11 min 37 sec) 
Heartbeat CPU 0 instructions: 350000001 cycles: 301630098 heartbeat IPC: 1.17218 cumulative IPC: 0.971181 (Simulation time: 0 hr 11 min 59 sec) 
Heartbeat CPU 0 instructions: 360000000 cycles: 310180475 heartbeat IPC: 1.16954 cumulative IPC: 0.977558 (Simulation time: 0 hr 12 min 20 sec) 
Heartbeat CPU 0 instructions: 370000001 cycles: 318728101 heartbeat IPC: 1.16992 cumulative IPC: 0.983547 (Simulation time: 0 hr 12 min 41 sec) 
Heartbeat CPU 0 instructions: 380000000 cycles: 327237782 heartbeat IPC: 1.17513 cumulative IPC: 0.989308 (Simulation time: 0 hr 13 min 3 sec) 
Heartbeat CPU 0 instructions: 390000001 cycles: 335573900 heartbeat IPC: 1.1996 cumulative IPC: 0.995324 (Simulation time: 0 hr 13 min 23 sec) 
Heartbeat CPU 0 instructions: 400000000 cycles: 343986940 heartbeat IPC: 1.18863 cumulative IPC: 1.00075 (Simulation time: 0 hr 13 min 44 sec) 
Heartbeat CPU 0 instructions: 410000003 cycles: 352337140 heartbeat IPC: 1.19758 cumulative IPC: 1.00608 (Simulation time: 0 hr 14 min 5 sec) 
Heartbeat CPU 0 instructions: 420000000 cycles: 360770669 heartbeat IPC: 1.18574 cumulative IPC: 1.01087 (Simulation time: 0 hr 14 min 26 sec) 
Heartbeat CPU 0 instructions: 430000001 cycles: 369121804 heartbeat IPC: 1.19744 cumulative IPC: 1.01567 (Simulation time: 0 hr 14 min 47 sec) 
Heartbeat CPU 0 instructions: 440000000 cycles: 377442630 heartbeat IPC: 1.2018 cumulative IPC: 1.02031 (Simulation time: 0 hr 15 min 8 sec) 
Heartbeat CPU 0 instructions: 450000001 cycles: 387079111 heartbeat IPC: 1.03772 cumulative IPC: 1.0208 (Simulation time: 0 hr 15 min 31 sec) 
Heartbeat CPU 0 instructions: 460000000 cycles: 395419160 heartbeat IPC: 1.19903 cumulative IPC: 1.02503 (Simulation time: 0 hr 15 min 52 sec) 
Heartbeat CPU 0 instructions: 470000003 cycles: 403650703 heartbeat IPC: 1.21484 cumulative IPC: 1.02938 (Simulation time: 0 hr 16 min 12 sec) 
Heartbeat CPU 0 instructions: 480000000 cycles: 411910847 heartbeat IPC: 1.21063 cumulative IPC: 1.03345 (Simulation time: 0 hr 16 min 33 sec) 
Heartbeat CPU 0 instructions: 490000000 cycles: 420173576 heartbeat IPC: 1.21025 cumulative IPC: 1.03734 (Simulation time: 0 hr 16 min 53 sec) 
Heartbeat CPU 0 instructions: 500000000 cycles: 428427335 heartbeat IPC: 1.21157 cumulative IPC: 1.04108 (Simulation time: 0 hr 17 min 14 sec) 
Heartbeat CPU 0 instructions: 510000001 cycles: 436647618 heartbeat IPC: 1.2165 cumulative IPC: 1.04476 (Simulation time: 0 hr 17 min 34 sec) 
Heartbeat CPU 0 instructions: 520000000 cycles: 444887237 heartbeat IPC: 1.21365 cumulative IPC: 1.04823 (Simulation time: 0 hr 17 min 54 sec) 
Heartbeat CPU 0 instructions: 530000001 cycles: 453124333 heartbeat IPC: 1.21402 cumulative IPC: 1.05157 (Simulation time: 0 hr 18 min 14 sec) 
Heartbeat CPU 0 instructions: 540000000 cycles: 461547597 heartbeat IPC: 1.18719 cumulative IPC: 1.05431 (Simulation time: 0 hr 18 min 35 sec) 
Heartbeat CPU 0 instructions: 550000000 cycles: 470020768 heartbeat IPC: 1.1802 cumulative IPC: 1.05681 (Simulation time: 0 hr 18 min 55 sec) 
Heartbeat CPU 0 instructions: 560000000 cycles: 478272562 heartbeat IPC: 1.21186 cumulative IPC: 1.05976 (Simulation time: 0 hr 19 min 15 sec) 
Heartbeat CPU 0 instructions: 570000001 cycles: 489728585 heartbeat IPC: 0.872903 cumulative IPC: 1.05495 (Simulation time: 0 hr 19 min 38 sec) 
Heartbeat CPU 0 instructions: 580000000 cycles: 501089087 heartbeat IPC: 0.880243 cumulative IPC: 1.05061 (Simulation time: 0 hr 20 min 0 sec) 
Heartbeat CPU 0 instructions: 590000001 cycles: 512557101 heartbeat IPC: 0.871991 cumulative IPC: 1.04624 (Simulation time: 0 hr 20 min 22 sec) 
Heartbeat CPU 0 instructions: 600000000 cycles: 523847293 heartbeat IPC: 0.885724 cumulative IPC: 1.04246 (Simulation time: 0 hr 20 min 44 sec) 
Finished CPU 0 instructions: 500000001 cycles: 479635723 cumulative IPC: 1.04246 (Simulation time: 0 hr 20 min 44 sec) 

CPU 0 Branch Prediction Accuracy: 99.7422% MPKI: 0.173296
Number of Branches: 33608403 Number of Mispredictions: 86648
Number of LOAD Instructions: 180215231
Number of LOAD Instructions (ROI): 180215231
Number of STORE Instructions: 36067263
Number of STORE Instructions (ROI): 36067263
Total Destination Memory Operands: 38428915
Total Destination Memory Operands (ROI): 38428915
Total Source Memory Operands: 180215231
Total Source Memory Operands (ROI): 180215231
Number of DEPENDED LOADS: 3041440
Number of DEPENDED LOADS (ROI): 3041440
Number of SQ_ADDED: 38428892
Number of SQ_ADDED (ROI): 38428892
Number of LQ_ADDED: 207596340
Number of LQ_ADDED (ROI): 207596340
Number of Instructions read from trace: 600000257

ChampSim completed all CPUs

Region of Interest Statistics

CPU 0 cumulative IPC: 1.04246 instructions: 500000001 cycles: 479635723
ITLB TOTAL     ACCESS:   91822348  HIT:   91822329  MISS:         19
ITLB LOAD      ACCESS:   91822348  HIT:   91822329  MISS:         19
ITLB RFO       ACCESS:          0  HIT:          0  MISS:          0
ITLB PREFETCH  ACCESS:          0  HIT:          0  MISS:          0
ITLB WRITEBACK ACCESS:          0  HIT:          0  MISS:          0
ITLB PREFETCH  REQUESTED:          0  ISSUED:          0  USEFUL:          0  USELESS:          0
ITLB TOTAL MSHR MERGED:         40
ITLB LOAD MSHR MERGED:         40
ITLB RFO MSHR MERGED:          0
ITLB PREFETCH MSHR MERGED:          0
ITLB WRITEBACK MSHR MERGED:          0
ITLB TOTAL ACCESSES:   91822388 HITS:   91822329 MISSES:         59
ITLB LOAD ACCESSES:   91822388 HITS:   91822329 MISSES:         59
ITLB RFO ACCESSES:          0 HITS:          0 MISSES:          0
ITLB PREFETCH ACCESSES:          0 HITS:          0 MISSES:          0
ITLB WRITEBACK ACCESSES:          0 HITS:          0 MISSES:          0
ITLB RQ ACCESS:  500000003
ITLB RQ TO_CACHE:   91822388
ITLB RQ MERGED:  408177615
ITLB RQ FORWARD:          0
ITLB WQ ACCESS:          0
ITLB WQ TO_CACHE:          0
ITLB WQ MERGED:          0
ITLB WQ FORWARD:          0
DTLB TOTAL     ACCESS:  142031612  HIT:  141665151  MISS:     366461
DTLB LOAD      ACCESS:  119396907  HIT:  119083322  MISS:     313585
DTLB RFO       ACCESS:   22634705  HIT:   22581829  MISS:      52876
DTLB PREFETCH  ACCESS:          0  HIT:          0  MISS:          0
DTLB WRITEBACK ACCESS:          0  HIT:          0  MISS:          0
DTLB PREFETCH  REQUESTED:          0  ISSUED:          0  USEFUL:          0  USELESS:          0
DTLB TOTAL MSHR MERGED:     289210
DTLB LOAD MSHR MERGED:     241094
DTLB RFO MSHR MERGED:      48116
DTLB PREFETCH MSHR MERGED:          0
DTLB WRITEBACK MSHR MERGED:          0
DTLB TOTAL ACCESSES:  142320822 HITS:  141665151 MISSES:     655671
DTLB LOAD ACCESSES:  119638001 HITS:  119083322 MISSES:     554679
DTLB RFO ACCESSES:   22682821 HITS:   22581829 MISSES:     100992
DTLB PREFETCH ACCESSES:          0 HITS:          0 MISSES:          0
DTLB WRITEBACK ACCESSES:          0 HITS:          0 MISSES:          0
DTLB RQ ACCESS:  184791537
DTLB RQ TO_CACHE:  142320822
DTLB RQ MERGED:   42470715
DTLB RQ FORWARD:          0
DTLB WQ ACCESS:          0
DTLB WQ TO_CACHE:          0
DTLB WQ MERGED:          0
DTLB WQ FORWARD:          0
L1D TOTAL     ACCESS:  189595423  HIT:  176147219  MISS:   13448204
L1D LOAD      ACCESS:  111907198  HIT:  108626344  MISS:    3280854
L1D RFO       ACCESS:   18566137  HIT:   15784397  MISS:    2781740
L1D PREFETCH  ACCESS:   59122088  HIT:   51736478  MISS:    7385610
L1D WRITEBACK ACCESS:          0  HIT:          0  MISS:          0
L1D PREFETCH  REQUESTED:  116507278  ISSUED:  115146329  USEFUL:    7175982  USELESS:     209627
L1D TOTAL MSHR MERGED:   32184868
L1D LOAD MSHR MERGED:    7325578
L1D RFO MSHR MERGED:    9686512
L1D PREFETCH MSHR MERGED:   15172778
L1D WRITEBACK MSHR MERGED:          0
L1D TOTAL ACCESSES:  221780688 HITS:  176147616 MISSES:   45633072
L1D LOAD ACCESSES:  116507300 HITS:  108626366 MISSES:    7880934
L1D RFO ACCESSES:   28252607 HITS:   15784397 MISSES:   12468210
L1D PREFETCH ACCESSES:   77020781 HITS:   51736853 MISSES:   25283928
L1D WRITEBACK ACCESSES:          0 HITS:          0 MISSES:          0
L1D RQ ACCESS:  156535471
L1D RQ TO_CACHE:  116507281
L1D RQ MERGED:   40028168
L1D RQ FORWARD:          0
L1D WQ ACCESS:   28256066
L1D WQ TO_CACHE:   28252607
L1D WQ MERGED:       3459
L1D WQ FORWARD:        397
L1I TOTAL     ACCESS:  115814721  HIT:  115813773  MISS:        948
L1I LOAD      ACCESS:  115814721  HIT:  115813773  MISS:        948
L1I RFO       ACCESS:          0  HIT:          0  MISS:          0
L1I PREFETCH  ACCESS:          0  HIT:          0  MISS:          0
L1I WRITEBACK ACCESS:          0  HIT:          0  MISS:          0
L1I PREFETCH  REQUESTED:          0  ISSUED:          0  USEFUL:          0  USELESS:          0
L1I TOTAL MSHR MERGED:       1579
L1I LOAD MSHR MERGED:       1579
L1I RFO MSHR MERGED:          0
L1I PREFETCH MSHR MERGED:          0
L1I WRITEBACK MSHR MERGED:          0
L1I TOTAL ACCESSES:  115816300 HITS:  115813773 MISSES:       2527
L1I LOAD ACCESSES:  115816300 HITS:  115813773 MISSES:       2527
L1I RFO ACCESSES:          0 HITS:          0 MISSES:          0
L1I PREFETCH ACCESSES:          0 HITS:          0 MISSES:          0
L1I WRITEBACK ACCESSES:          0 HITS:          0 MISSES:          0
L1I RQ ACCESS:  500000007
L1I RQ TO_CACHE:  115816300
L1I RQ MERGED:  384183707
L1I RQ FORWARD:          0
L1I WQ ACCESS:          0
L1I WQ TO_CACHE:          0
L1I WQ MERGED:          0
L1I WQ FORWARD:          0
L2C TOTAL     ACCESS:   16693540  HIT:    4849032  MISS:   11844508
L2C LOAD      ACCESS:     556275  HIT:      95319  MISS:     460956
L2C RFO       ACCESS:    2781698  HIT:     266744  MISS:    2514954
L2C PREFETCH  ACCESS:   10134916  HIT:    1268610  MISS:    8866306
L2C WRITEBACK ACCESS:    3220651  HIT:    3218359  MISS:       2292
L2C PREFETCH  REQUESTED:      25804  ISSUED:      25804  USEFUL:      92965  USELESS:    8771382
L2C TOTAL MSHR MERGED:        499
L2C LOAD MSHR MERGED:          5
L2C RFO MSHR MERGED:          0
L2C PREFETCH MSHR MERGED:        494
L2C WRITEBACK MSHR MERGED:          0
L2C TOTAL ACCESSES:   16694194 HITS:    4849081 MISSES:   11845113
L2C LOAD ACCESSES:     556304 HITS:      95348 MISSES:     460956
L2C RFO ACCESSES:    2781698 HITS:     266744 MISSES:    2514954
L2C PREFETCH ACCESSES:   10135541 HITS:    1268630 MISSES:    8866911
L2C WRITEBACK ACCESSES:    3220651 HITS:    3218359 MISSES:       2292
L2C RQ ACCESS:    3338002
L2C RQ TO_CACHE:    3337973
L2C RQ MERGED:          0
L2C RQ FORWARD:          0
L2C WQ ACCESS:    3220651
L2C WQ TO_CACHE:    3220651
L2C WQ MERGED:          0
L2C WQ FORWARD:         49
LLC TOTAL     ACCESS:   14742746  HIT:    7293049  MISS:    7449697
LLC LOAD      ACCESS:     460948  HIT:     246603  MISS:     214345
LLC RFO       ACCESS:    2514934  HIT:    1729191  MISS:     785743
LLC PREFETCH  ACCESS:    8866353  HIT:    3235942  MISS:    5630411
LLC WRITEBACK ACCESS:    2900511  HIT:    2081313  MISS:     819198
LLC PREFETCH  REQUESTED:          0  ISSUED:          0  USEFUL:       4859  USELESS:    5632110
LLC TOTAL MSHR MERGED:          2
LLC LOAD MSHR MERGED:          0
LLC RFO MSHR MERGED:          0
LLC PREFETCH MSHR MERGED:          2
LLC WRITEBACK MSHR MERGED:          0
LLC TOTAL ACCESSES:   14742817 HITS:    7293118 MISSES:    7449699
LLC LOAD ACCESSES:     460951 HITS:     246606 MISSES:     214345
LLC RFO ACCESSES:    2514954 HITS:    1729211 MISSES:     785743
LLC PREFETCH ACCESSES:    8866401 HITS:    3235988 MISSES:    5630413
LLC WRITEBACK ACCESSES:    2900511 HITS:    2081313 MISSES:     819198
LLC 0 RQ ACCESS:    2975905
LLC 0 RQ TO_CACHE:    2975882
LLC 0 RQ MERGED:          0
LLC 0 RQ FORWARD:          0
LLC WQ ACCESS:    2900511
LLC WQ TO_CACHE:    2900511
LLC WQ MERGED:          0
LLC WQ FORWARD:         69
Major fault: 0 Minor fault: 57518
CPU 0 L1D next line prefetcher final stats
CPU 0 L2C PC-based stride prefetcher final stats
All Misses: 8052377
All Hits: 8186550
SD Algo Stats - Switches: 0 SRR-Repls: 221263 BRR-Repls: 0

DRAM Statistics
 CHANNEL 0
 RQ ROW_BUFFER_HIT:    3667575  ROW_BUFFER_MISS:    2960006
 DBUS_CONGESTED:    3133665
 WQ ROW_BUFFER_HIT:     102694  ROW_BUFFER_MISS:     944850  FULL:          0

 AVG_CONGESTED_CYCLE: 12
LOADS RETIRED: 157818985
INSTR RETIRED: 500000000
