
*** ChampSim Multicore Out-of-Order Simulator ***

Warmup Instructions: 100000000
Simulation Instructions: 500000000
Number of CPUs: 1
LLC sets: 2048
LLC ways: 16
Clean RRIP Policies: 1213230112132301 Dirty RRIP Policies: 2213031122130311 PSEL Width: 10 Track Set: 4294967295 PSEL Mask: 1 Demote Mask: 3340011133400111DS Algo: 0Window size: 0
Off-chip DRAM Size: 4096 MB Channels: 1 Width: 64-bit Data Rate: 1600 MT/s

CPU 0 runs /mnt/beegfs/iconst01/spec2017/Roms.trace.gz
NOT SORTED
TRACE STRING: /mnt/beegfs/iconst01/spec2017/Roms.trace.gz
SORTED
TRACE STRING: /mnt/beegfs/iconst01/spec2017/Roms.trace.gz
INITIAL
TRACE STRING: /mnt/beegfs/iconst01/spec2017/Roms.trace.gz

champsim_seed used: 417

CPU 0 L1D next line prefetcher
CPU 0 L2C IP-based stride prefetcher
Initialize DRRIP state
Assign rand_sets[0]: 454  LLC: 2048
rand_sets[0]: 454
Assign rand_sets[1]: 1662  LLC: 2048
rand_sets[1]: 1662
Assign rand_sets[2]: 1921  LLC: 2048
rand_sets[2]: 1921
Assign rand_sets[3]: 1131  LLC: 2048
rand_sets[3]: 1131
Assign rand_sets[4]: 331  LLC: 2048
rand_sets[4]: 331
Assign rand_sets[5]: 1531  LLC: 2048
rand_sets[5]: 1531
Assign rand_sets[6]: 482  LLC: 2048
rand_sets[6]: 482
Assign rand_sets[7]: 1275  LLC: 2048
rand_sets[7]: 1275
Assign rand_sets[8]: 1876  LLC: 2048
rand_sets[8]: 1876
Assign rand_sets[9]: 2038  LLC: 2048
rand_sets[9]: 2038
Assign rand_sets[10]: 701  LLC: 2048
rand_sets[10]: 701
Assign rand_sets[11]: 479  LLC: 2048
rand_sets[11]: 479
Assign rand_sets[12]: 892  LLC: 2048
rand_sets[12]: 892
Assign rand_sets[13]: 1820  LLC: 2048
rand_sets[13]: 1820
Assign rand_sets[14]: 1505  LLC: 2048
rand_sets[14]: 1505
Assign rand_sets[15]: 1159  LLC: 2048
rand_sets[15]: 1159
Assign rand_sets[16]: 513  LLC: 2048
rand_sets[16]: 513
Assign rand_sets[17]: 703  LLC: 2048
rand_sets[17]: 703
Assign rand_sets[18]: 561  LLC: 2048
rand_sets[18]: 561
Assign rand_sets[19]: 990  LLC: 2048
rand_sets[19]: 990
Assign rand_sets[20]: 342  LLC: 2048
rand_sets[20]: 342
Assign rand_sets[21]: 882  LLC: 2048
rand_sets[21]: 882
Assign rand_sets[22]: 15  LLC: 2048
rand_sets[22]: 15
Assign rand_sets[23]: 71  LLC: 2048
rand_sets[23]: 71
Assign rand_sets[24]: 1127  LLC: 2048
rand_sets[24]: 1127
Assign rand_sets[25]: 1382  LLC: 2048
rand_sets[25]: 1382
Assign rand_sets[26]: 647  LLC: 2048
rand_sets[26]: 647
Assign rand_sets[27]: 857  LLC: 2048
rand_sets[27]: 857
Assign rand_sets[28]: 1450  LLC: 2048
rand_sets[28]: 1450
Assign rand_sets[29]: 1160  LLC: 2048
rand_sets[29]: 1160
Assign rand_sets[30]: 1852  LLC: 2048
rand_sets[30]: 1852
Assign rand_sets[31]: 1881  LLC: 2048
rand_sets[31]: 1881
Assign rand_sets[32]: 1770  LLC: 2048
rand_sets[32]: 1770
Assign rand_sets[33]: 1622  LLC: 2048
rand_sets[33]: 1622
Assign rand_sets[34]: 275  LLC: 2048
rand_sets[34]: 275
Assign rand_sets[35]: 635  LLC: 2048
rand_sets[35]: 635
Assign rand_sets[36]: 466  LLC: 2048
rand_sets[36]: 466
Assign rand_sets[37]: 1413  LLC: 2048
rand_sets[37]: 1413
Assign rand_sets[38]: 417  LLC: 2048
rand_sets[38]: 417
Assign rand_sets[39]: 472  LLC: 2048
rand_sets[39]: 472
Assign rand_sets[40]: 1340  LLC: 2048
rand_sets[40]: 1340
Assign rand_sets[41]: 852  LLC: 2048
rand_sets[41]: 852
Assign rand_sets[42]: 1365  LLC: 2048
rand_sets[42]: 1365
Assign rand_sets[43]: 47  LLC: 2048
rand_sets[43]: 47
Assign rand_sets[44]: 823  LLC: 2048
rand_sets[44]: 823
Assign rand_sets[45]: 686  LLC: 2048
rand_sets[45]: 686
Assign rand_sets[46]: 1637  LLC: 2048
rand_sets[46]: 1637
Assign rand_sets[47]: 1115  LLC: 2048
rand_sets[47]: 1115
Assign rand_sets[48]: 986  LLC: 2048
rand_sets[48]: 986
Assign rand_sets[49]: 258  LLC: 2048
rand_sets[49]: 258
Assign rand_sets[50]: 633  LLC: 2048
rand_sets[50]: 633
Assign rand_sets[51]: 920  LLC: 2048
rand_sets[51]: 920
Assign rand_sets[52]: 204  LLC: 2048
rand_sets[52]: 204
Assign rand_sets[53]: 227  LLC: 2048
rand_sets[53]: 227
Assign rand_sets[54]: 1818  LLC: 2048
rand_sets[54]: 1818
Assign rand_sets[55]: 886  LLC: 2048
rand_sets[55]: 886
Assign rand_sets[56]: 1422  LLC: 2048
rand_sets[56]: 1422
Assign rand_sets[57]: 607  LLC: 2048
rand_sets[57]: 607
Assign rand_sets[58]: 217  LLC: 2048
rand_sets[58]: 217
Assign rand_sets[59]: 1945  LLC: 2048
rand_sets[59]: 1945
Assign rand_sets[60]: 143  LLC: 2048
rand_sets[60]: 143
Assign rand_sets[61]: 1311  LLC: 2048
rand_sets[61]: 1311
Assign rand_sets[62]: 319  LLC: 2048
rand_sets[62]: 319
Assign rand_sets[63]: 1846  LLC: 2048
rand_sets[63]: 1846
 CLEAN-RRIP-POLICY-1: 1-2-1-3-2-3-0-1- CLEAN-RRIP-POLICY-2: 1-2-1-3-2-3-0-1-
 DIRTY-RRIP-POLICY-1: 2-2-1-3-0-3-1-1- DIRTY-RRIP-POLICY-2: 2-2-1-3-0-3-1-1-
 PSEL width: 10
Heartbeat CPU 0 instructions: 10000000 cycles: 4688066 heartbeat IPC: 2.13308 cumulative IPC: 2.13308 (Simulation time: 0 hr 0 min 17 sec) 
Heartbeat CPU 0 instructions: 20000000 cycles: 9325334 heartbeat IPC: 2.15644 cumulative IPC: 2.1447 (Simulation time: 0 hr 0 min 35 sec) 
Heartbeat CPU 0 instructions: 30000003 cycles: 14019728 heartbeat IPC: 2.1302 cumulative IPC: 2.13984 (Simulation time: 0 hr 0 min 52 sec) 
Heartbeat CPU 0 instructions: 40000000 cycles: 18670146 heartbeat IPC: 2.15034 cumulative IPC: 2.14246 (Simulation time: 0 hr 1 min 10 sec) 
Heartbeat CPU 0 instructions: 50000003 cycles: 23323509 heartbeat IPC: 2.14898 cumulative IPC: 2.14376 (Simulation time: 0 hr 1 min 27 sec) 
Heartbeat CPU 0 instructions: 60000000 cycles: 27976116 heartbeat IPC: 2.14933 cumulative IPC: 2.14469 (Simulation time: 0 hr 1 min 44 sec) 
Heartbeat CPU 0 instructions: 70000002 cycles: 32367325 heartbeat IPC: 2.27728 cumulative IPC: 2.16267 (Simulation time: 0 hr 1 min 59 sec) 
Heartbeat CPU 0 instructions: 80000000 cycles: 36304133 heartbeat IPC: 2.54013 cumulative IPC: 2.20361 (Simulation time: 0 hr 2 min 12 sec) 
Heartbeat CPU 0 instructions: 90000000 cycles: 40249444 heartbeat IPC: 2.53465 cumulative IPC: 2.23606 (Simulation time: 0 hr 2 min 24 sec) 
Heartbeat CPU 0 instructions: 100000000 cycles: 44211839 heartbeat IPC: 2.52373 cumulative IPC: 2.26184 (Simulation time: 0 hr 2 min 36 sec) 

Warmup complete CPU 0 instructions: 100000002 cycles: 44211840 (Simulation time: 0 hr 2 min 36 sec) 

Heartbeat CPU 0 instructions: 110000000 cycles: 53388652 heartbeat IPC: 1.0897 cumulative IPC: 1.0897 (Simulation time: 0 hr 2 min 56 sec) 
Heartbeat CPU 0 instructions: 120000000 cycles: 62553186 heartbeat IPC: 1.09116 cumulative IPC: 1.09043 (Simulation time: 0 hr 3 min 15 sec) 
Heartbeat CPU 0 instructions: 130000002 cycles: 71722804 heartbeat IPC: 1.09056 cumulative IPC: 1.09047 (Simulation time: 0 hr 3 min 35 sec) 
Heartbeat CPU 0 instructions: 140000000 cycles: 80696329 heartbeat IPC: 1.11439 cumulative IPC: 1.09636 (Simulation time: 0 hr 3 min 55 sec) 
Heartbeat CPU 0 instructions: 150000003 cycles: 89815771 heartbeat IPC: 1.09656 cumulative IPC: 1.0964 (Simulation time: 0 hr 4 min 14 sec) 
Heartbeat CPU 0 instructions: 160000000 cycles: 100411589 heartbeat IPC: 0.943768 cumulative IPC: 1.06762 (Simulation time: 0 hr 4 min 36 sec) 
Heartbeat CPU 0 instructions: 170000000 cycles: 112884960 heartbeat IPC: 0.801708 cumulative IPC: 1.01932 (Simulation time: 0 hr 5 min 1 sec) 
Heartbeat CPU 0 instructions: 180000000 cycles: 125398280 heartbeat IPC: 0.799148 cumulative IPC: 0.985386 (Simulation time: 0 hr 5 min 25 sec) 
Heartbeat CPU 0 instructions: 190000000 cycles: 138200339 heartbeat IPC: 0.781124 cumulative IPC: 0.957564 (Simulation time: 0 hr 5 min 50 sec) 
Heartbeat CPU 0 instructions: 200000000 cycles: 152154928 heartbeat IPC: 0.71661 cumulative IPC: 0.926414 (Simulation time: 0 hr 6 min 14 sec) 
Heartbeat CPU 0 instructions: 210000001 cycles: 166116973 heartbeat IPC: 0.716228 cumulative IPC: 0.902341 (Simulation time: 0 hr 6 min 39 sec) 
Heartbeat CPU 0 instructions: 220000000 cycles: 179879648 heartbeat IPC: 0.726603 cumulative IPC: 0.884513 (Simulation time: 0 hr 7 min 4 sec) 
Heartbeat CPU 0 instructions: 230000000 cycles: 193474720 heartbeat IPC: 0.735561 cumulative IPC: 0.870947 (Simulation time: 0 hr 7 min 29 sec) 
Heartbeat CPU 0 instructions: 240000000 cycles: 207106633 heartbeat IPC: 0.733573 cumulative IPC: 0.85945 (Simulation time: 0 hr 7 min 55 sec) 
Heartbeat CPU 0 instructions: 250000003 cycles: 218122589 heartbeat IPC: 0.907774 cumulative IPC: 0.862511 (Simulation time: 0 hr 8 min 18 sec) 
Heartbeat CPU 0 instructions: 260000000 cycles: 225957248 heartbeat IPC: 1.27638 cumulative IPC: 0.880352 (Simulation time: 0 hr 8 min 38 sec) 
Heartbeat CPU 0 instructions: 270000003 cycles: 234413076 heartbeat IPC: 1.18262 cumulative IPC: 0.89379 (Simulation time: 0 hr 8 min 59 sec) 
Heartbeat CPU 0 instructions: 280000000 cycles: 243567800 heartbeat IPC: 1.09233 cumulative IPC: 0.902908 (Simulation time: 0 hr 9 min 20 sec) 
Heartbeat CPU 0 instructions: 290000000 cycles: 252650575 heartbeat IPC: 1.10099 cumulative IPC: 0.911539 (Simulation time: 0 hr 9 min 42 sec) 
Heartbeat CPU 0 instructions: 300000000 cycles: 261671913 heartbeat IPC: 1.10848 cumulative IPC: 0.919709 (Simulation time: 0 hr 10 min 3 sec) 
Heartbeat CPU 0 instructions: 310000000 cycles: 270738389 heartbeat IPC: 1.10296 cumulative IPC: 0.927044 (Simulation time: 0 hr 10 min 26 sec) 
Heartbeat CPU 0 instructions: 320000000 cycles: 279841804 heartbeat IPC: 1.09849 cumulative IPC: 0.933667 (Simulation time: 0 hr 10 min 48 sec) 
Heartbeat CPU 0 instructions: 330000002 cycles: 288861154 heartbeat IPC: 1.10873 cumulative IPC: 0.940121 (Simulation time: 0 hr 11 min 11 sec) 
Heartbeat CPU 0 instructions: 340000000 cycles: 299170911 heartbeat IPC: 0.969955 cumulative IPC: 0.941328 (Simulation time: 0 hr 11 min 34 sec) 
Heartbeat CPU 0 instructions: 350000001 cycles: 308105675 heartbeat IPC: 1.11922 cumulative IPC: 0.947351 (Simulation time: 0 hr 11 min 56 sec) 
Heartbeat CPU 0 instructions: 360000000 cycles: 317015908 heartbeat IPC: 1.12231 cumulative IPC: 0.953065 (Simulation time: 0 hr 12 min 17 sec) 
Heartbeat CPU 0 instructions: 370000000 cycles: 325906097 heartbeat IPC: 1.12484 cumulative IPC: 0.958486 (Simulation time: 0 hr 12 min 39 sec) 
Heartbeat CPU 0 instructions: 380000000 cycles: 334726942 heartbeat IPC: 1.13368 cumulative IPC: 0.963805 (Simulation time: 0 hr 13 min 0 sec) 
Heartbeat CPU 0 instructions: 390000001 cycles: 343350049 heartbeat IPC: 1.15967 cumulative IPC: 0.969452 (Simulation time: 0 hr 13 min 21 sec) 
Heartbeat CPU 0 instructions: 400000000 cycles: 352037280 heartbeat IPC: 1.15111 cumulative IPC: 0.974578 (Simulation time: 0 hr 13 min 42 sec) 
Heartbeat CPU 0 instructions: 410000003 cycles: 360617903 heartbeat IPC: 1.16542 cumulative IPC: 0.979754 (Simulation time: 0 hr 14 min 3 sec) 
Heartbeat CPU 0 instructions: 420000000 cycles: 369271153 heartbeat IPC: 1.15563 cumulative IPC: 0.984436 (Simulation time: 0 hr 14 min 24 sec) 
Heartbeat CPU 0 instructions: 430000001 cycles: 377823142 heartbeat IPC: 1.16932 cumulative IPC: 0.989175 (Simulation time: 0 hr 14 min 45 sec) 
Heartbeat CPU 0 instructions: 440000000 cycles: 386320348 heartbeat IPC: 1.17686 cumulative IPC: 0.993837 (Simulation time: 0 hr 15 min 6 sec) 
Heartbeat CPU 0 instructions: 450000001 cycles: 396198765 heartbeat IPC: 1.01231 cumulative IPC: 0.994355 (Simulation time: 0 hr 15 min 29 sec) 
Heartbeat CPU 0 instructions: 460000000 cycles: 404696771 heartbeat IPC: 1.17675 cumulative IPC: 0.998655 (Simulation time: 0 hr 15 min 50 sec) 
Heartbeat CPU 0 instructions: 470000003 cycles: 413049621 heartbeat IPC: 1.1972 cumulative IPC: 1.00315 (Simulation time: 0 hr 16 min 11 sec) 
Heartbeat CPU 0 instructions: 480000000 cycles: 421434126 heartbeat IPC: 1.19268 cumulative IPC: 1.00736 (Simulation time: 0 hr 16 min 31 sec) 
Heartbeat CPU 0 instructions: 490000000 cycles: 429798082 heartbeat IPC: 1.19561 cumulative IPC: 1.01145 (Simulation time: 0 hr 16 min 52 sec) 
Heartbeat CPU 0 instructions: 500000000 cycles: 438177997 heartbeat IPC: 1.19333 cumulative IPC: 1.01532 (Simulation time: 0 hr 17 min 12 sec) 
Heartbeat CPU 0 instructions: 510000001 cycles: 446498008 heartbeat IPC: 1.20192 cumulative IPC: 1.01917 (Simulation time: 0 hr 17 min 32 sec) 
Heartbeat CPU 0 instructions: 520000000 cycles: 454858826 heartbeat IPC: 1.19606 cumulative IPC: 1.02278 (Simulation time: 0 hr 17 min 53 sec) 
Heartbeat CPU 0 instructions: 530000001 cycles: 463217247 heartbeat IPC: 1.1964 cumulative IPC: 1.02624 (Simulation time: 0 hr 18 min 13 sec) 
Heartbeat CPU 0 instructions: 540000000 cycles: 471763455 heartbeat IPC: 1.17011 cumulative IPC: 1.02912 (Simulation time: 0 hr 18 min 34 sec) 
Heartbeat CPU 0 instructions: 550000000 cycles: 480352587 heartbeat IPC: 1.16426 cumulative IPC: 1.03178 (Simulation time: 0 hr 18 min 55 sec) 
Heartbeat CPU 0 instructions: 560000000 cycles: 488709883 heartbeat IPC: 1.19656 cumulative IPC: 1.03488 (Simulation time: 0 hr 19 min 15 sec) 
Heartbeat CPU 0 instructions: 570000001 cycles: 500444086 heartbeat IPC: 0.85221 cumulative IPC: 1.03018 (Simulation time: 0 hr 19 min 38 sec) 
Heartbeat CPU 0 instructions: 580000000 cycles: 511877332 heartbeat IPC: 0.874642 cumulative IPC: 1.02637 (Simulation time: 0 hr 20 min 0 sec) 
Heartbeat CPU 0 instructions: 590000001 cycles: 523520773 heartbeat IPC: 0.858853 cumulative IPC: 1.02231 (Simulation time: 0 hr 20 min 23 sec) 
Heartbeat CPU 0 instructions: 600000000 cycles: 534854808 heartbeat IPC: 0.882298 cumulative IPC: 1.01907 (Simulation time: 0 hr 20 min 45 sec) 
Finished CPU 0 instructions: 500000001 cycles: 490642981 cumulative IPC: 1.01907 (Simulation time: 0 hr 20 min 45 sec) 

CPU 0 Branch Prediction Accuracy: 99.7422% MPKI: 0.173296
Number of Branches: 33608403 Number of Mispredictions: 86648
Number of LOAD Instructions: 180215231
Number of LOAD Instructions (ROI): 180215231
Number of STORE Instructions: 36067263
Number of STORE Instructions (ROI): 36067263
Total Destination Memory Operands: 38428915
Total Destination Memory Operands (ROI): 38428915
Total Source Memory Operands: 180215231
Total Source Memory Operands (ROI): 180215231
Number of DEPENDED LOADS: 3041797
Number of DEPENDED LOADS (ROI): 3041797
Number of SQ_ADDED: 38428892
Number of SQ_ADDED (ROI): 38428892
Number of LQ_ADDED: 207897336
Number of LQ_ADDED (ROI): 207897336
Number of Instructions read from trace: 600000257

ChampSim completed all CPUs

Region of Interest Statistics

CPU 0 cumulative IPC: 1.01907 instructions: 500000001 cycles: 490642981
ITLB TOTAL     ACCESS:   91998982  HIT:   91998963  MISS:         19
ITLB LOAD      ACCESS:   91998982  HIT:   91998963  MISS:         19
ITLB RFO       ACCESS:          0  HIT:          0  MISS:          0
ITLB PREFETCH  ACCESS:          0  HIT:          0  MISS:          0
ITLB WRITEBACK ACCESS:          0  HIT:          0  MISS:          0
ITLB PREFETCH  REQUESTED:          0  ISSUED:          0  USEFUL:          0  USELESS:          0
ITLB TOTAL MSHR MERGED:         40
ITLB LOAD MSHR MERGED:         40
ITLB RFO MSHR MERGED:          0
ITLB PREFETCH MSHR MERGED:          0
ITLB WRITEBACK MSHR MERGED:          0
ITLB TOTAL ACCESSES:   91999022 HITS:   91998963 MISSES:         59
ITLB LOAD ACCESSES:   91999022 HITS:   91998963 MISSES:         59
ITLB RFO ACCESSES:          0 HITS:          0 MISSES:          0
ITLB PREFETCH ACCESSES:          0 HITS:          0 MISSES:          0
ITLB WRITEBACK ACCESSES:          0 HITS:          0 MISSES:          0
ITLB RQ ACCESS:  500000003
ITLB RQ TO_CACHE:   91999022
ITLB RQ MERGED:  408000981
ITLB RQ FORWARD:          0
ITLB WQ ACCESS:          0
ITLB WQ TO_CACHE:          0
ITLB WQ MERGED:          0
ITLB WQ FORWARD:          0
DTLB TOTAL     ACCESS:  141952061  HIT:  141585600  MISS:     366461
DTLB LOAD      ACCESS:  119337469  HIT:  119023884  MISS:     313585
DTLB RFO       ACCESS:   22614592  HIT:   22561716  MISS:      52876
DTLB PREFETCH  ACCESS:          0  HIT:          0  MISS:          0
DTLB WRITEBACK ACCESS:          0  HIT:          0  MISS:          0
DTLB PREFETCH  REQUESTED:          0  ISSUED:          0  USEFUL:          0  USELESS:          0
DTLB TOTAL MSHR MERGED:     288286
DTLB LOAD MSHR MERGED:     239933
DTLB RFO MSHR MERGED:      48353
DTLB PREFETCH MSHR MERGED:          0
DTLB WRITEBACK MSHR MERGED:          0
DTLB TOTAL ACCESSES:  142240347 HITS:  141585600 MISSES:     654747
DTLB LOAD ACCESSES:  119577402 HITS:  119023884 MISSES:     553518
DTLB RFO ACCESSES:   22662945 HITS:   22561716 MISSES:     101229
DTLB PREFETCH ACCESSES:          0 HITS:          0 MISSES:          0
DTLB WRITEBACK ACCESSES:          0 HITS:          0 MISSES:          0
DTLB RQ ACCESS:  184791180
DTLB RQ TO_CACHE:  142240347
DTLB RQ MERGED:   42550833
DTLB RQ FORWARD:          0
DTLB WQ ACCESS:          0
DTLB WQ TO_CACHE:          0
DTLB WQ MERGED:          0
DTLB WQ FORWARD:          0
L1D TOTAL     ACCESS:  187936921  HIT:  174492934  MISS:   13443987
L1D LOAD      ACCESS:  111658482  HIT:  108215170  MISS:    3443312
L1D RFO       ACCESS:   18078080  HIT:   15296322  MISS:    2781758
L1D PREFETCH  ACCESS:   58200359  HIT:   50981442  MISS:    7218917
L1D WRITEBACK ACCESS:          0  HIT:          0  MISS:          0
L1D PREFETCH  REQUESTED:  116462458  ISSUED:  115101823  USEFUL:    7009556  USELESS:     209361
L1D TOTAL MSHR MERGED:   33997380
L1D LOAD MSHR MERGED:    7691758
L1D RFO MSHR MERGED:   10174527
L1D PREFETCH MSHR MERGED:   16131095
L1D WRITEBACK MSHR MERGED:          0
L1D TOTAL ACCESSES:  221934803 HITS:  174493435 MISSES:   47441368
L1D LOAD ACCESSES:  116462593 HITS:  108215305 MISSES:    8247288
L1D RFO ACCESSES:   28252546 HITS:   15296322 MISSES:   12956224
L1D PREFETCH ACCESSES:   77219664 HITS:   50981808 MISSES:   26237856
L1D WRITEBACK ACCESSES:          0 HITS:          0 MISSES:          0
L1D RQ ACCESS:  156535114
L1D RQ TO_CACHE:  116462461
L1D RQ MERGED:   40072518
L1D RQ FORWARD:          0
L1D WQ ACCESS:   28256066
L1D WQ TO_CACHE:   28252546
L1D WQ MERGED:       3520
L1D WQ FORWARD:        501
L1I TOTAL     ACCESS:  115987743  HIT:  115986795  MISS:        948
L1I LOAD      ACCESS:  115987743  HIT:  115986795  MISS:        948
L1I RFO       ACCESS:          0  HIT:          0  MISS:          0
L1I PREFETCH  ACCESS:          0  HIT:          0  MISS:          0
L1I WRITEBACK ACCESS:          0  HIT:          0  MISS:          0
L1I PREFETCH  REQUESTED:          0  ISSUED:          0  USEFUL:          0  USELESS:          0
L1I TOTAL MSHR MERGED:       1614
L1I LOAD MSHR MERGED:       1614
L1I RFO MSHR MERGED:          0
L1I PREFETCH MSHR MERGED:          0
L1I WRITEBACK MSHR MERGED:          0
L1I TOTAL ACCESSES:  115989357 HITS:  115986795 MISSES:       2562
L1I LOAD ACCESSES:  115989357 HITS:  115986795 MISSES:       2562
L1I RFO ACCESSES:          0 HITS:          0 MISSES:          0
L1I PREFETCH ACCESSES:          0 HITS:          0 MISSES:          0
L1I WRITEBACK ACCESSES:          0 HITS:          0 MISSES:          0
L1I RQ ACCESS:  500000007
L1I RQ TO_CACHE:  115989357
L1I RQ MERGED:  384010650
L1I RQ FORWARD:          0
L1I WQ ACCESS:          0
L1I WQ TO_CACHE:          0
L1I WQ MERGED:          0
L1I WQ FORWARD:          0
L2C TOTAL     ACCESS:   16689331  HIT:    4845147  MISS:   11844184
L2C LOAD      ACCESS:     556446  HIT:      95341  MISS:     461105
L2C RFO       ACCESS:    2781697  HIT:     266808  MISS:    2514889
L2C PREFETCH  ACCESS:   10130557  HIT:    1264646  MISS:    8865911
L2C WRITEBACK ACCESS:    3220631  HIT:    3218352  MISS:       2279
L2C PREFETCH  REQUESTED:      25878  ISSUED:      25878  USEFUL:      92839  USELESS:    8771142
L2C TOTAL MSHR MERGED:        565
L2C LOAD MSHR MERGED:          7
L2C RFO MSHR MERGED:          0
L2C PREFETCH MSHR MERGED:        558
L2C WRITEBACK MSHR MERGED:          0
L2C TOTAL ACCESSES:   16690039 HITS:    4845200 MISSES:   11844839
L2C LOAD ACCESSES:     556478 HITS:      95373 MISSES:     461105
L2C RFO ACCESSES:    2781697 HITS:     266808 MISSES:    2514889
L2C PREFETCH ACCESSES:   10131233 HITS:    1264667 MISSES:    8866566
L2C WRITEBACK ACCESSES:    3220631 HITS:    3218352 MISSES:       2279
L2C RQ ACCESS:    3338175
L2C RQ TO_CACHE:    3338143
L2C RQ MERGED:          0
L2C RQ FORWARD:          0
L2C WQ ACCESS:    3220631
L2C WQ TO_CACHE:    3220631
L2C WQ MERGED:          0
L2C WQ FORWARD:         53
LLC TOTAL     ACCESS:   14742321  HIT:    6509996  MISS:    8232325
LLC LOAD      ACCESS:     461095  HIT:     244344  MISS:     216751
LLC RFO       ACCESS:    2514871  HIT:    1572648  MISS:     942223
LLC PREFETCH  ACCESS:    8865942  HIT:    2756594  MISS:    6109348
LLC WRITEBACK ACCESS:    2900413  HIT:    1936410  MISS:     964003
LLC PREFETCH  REQUESTED:          0  ISSUED:          0  USEFUL:       4953  USELESS:    6105467
LLC TOTAL MSHR MERGED:          5
LLC LOAD MSHR MERGED:          0
LLC RFO MSHR MERGED:          0
LLC PREFETCH MSHR MERGED:          5
LLC WRITEBACK MSHR MERGED:          0
LLC TOTAL ACCESSES:   14742398 HITS:    6510067 MISSES:    8232331
LLC LOAD ACCESSES:     461098 HITS:     244347 MISSES:     216751
LLC RFO ACCESSES:    2514889 HITS:    1572666 MISSES:     942223
LLC PREFETCH ACCESSES:    8865998 HITS:    2756644 MISSES:    6109354
LLC WRITEBACK ACCESSES:    2900413 HITS:    1936410 MISSES:     964003
LLC 0 RQ ACCESS:    2975987
LLC 0 RQ TO_CACHE:    2975966
LLC 0 RQ MERGED:          0
LLC 0 RQ FORWARD:          0
LLC WQ ACCESS:    2900413
LLC WQ TO_CACHE:    2900413
LLC WQ MERGED:          0
LLC WQ FORWARD:         71
Major fault: 0 Minor fault: 57518
CPU 0 L1D next line prefetcher final stats
CPU 0 L2C PC-based stride prefetcher final stats
All Misses: 8941835
All Hits: 7296667
SD Algo Stats - Switches: 0 SRR-Repls: 224353 BRR-Repls: 0

DRAM Statistics
 CHANNEL 0
 RQ ROW_BUFFER_HIT:    3791007  ROW_BUFFER_MISS:    3471816
 DBUS_CONGESTED:    3568951
 WQ ROW_BUFFER_HIT:     149910  ROW_BUFFER_MISS:    1079280  FULL:          0

 AVG_CONGESTED_CYCLE: 12
LOADS RETIRED: 157818985
INSTR RETIRED: 500000000
