
*** ChampSim Multicore Out-of-Order Simulator ***

Warmup Instructions: 100000000
Simulation Instructions: 500000000
Number of CPUs: 1
LLC sets: 2048
LLC ways: 16
Clean RRIP Policies: 2213230222132302 Dirty RRIP Policies: 2203130222031302 PSEL Width: 10 Track Set: 4294967295 PSEL Mask: 1 Demote Mask: 3040104030401040DS Algo: 0Window size: 0
Off-chip DRAM Size: 4096 MB Channels: 1 Width: 64-bit Data Rate: 1600 MT/s

CPU 0 runs /mnt/beegfs/iconst01/spec2017/Omnetpp.trace.gz
NOT SORTED
TRACE STRING: /mnt/beegfs/iconst01/spec2017/Omnetpp.trace.gz
SORTED
TRACE STRING: /mnt/beegfs/iconst01/spec2017/Omnetpp.trace.gz
INITIAL
TRACE STRING: /mnt/beegfs/iconst01/spec2017/Omnetpp.trace.gz

champsim_seed used: 739

CPU 0 L1D next line prefetcher
CPU 0 L2C IP-based stride prefetcher
Initialize DRRIP state
Assign rand_sets[0]: 454  LLC: 2048
rand_sets[0]: 454
Assign rand_sets[1]: 1662  LLC: 2048
rand_sets[1]: 1662
Assign rand_sets[2]: 1921  LLC: 2048
rand_sets[2]: 1921
Assign rand_sets[3]: 1131  LLC: 2048
rand_sets[3]: 1131
Assign rand_sets[4]: 331  LLC: 2048
rand_sets[4]: 331
Assign rand_sets[5]: 1531  LLC: 2048
rand_sets[5]: 1531
Assign rand_sets[6]: 482  LLC: 2048
rand_sets[6]: 482
Assign rand_sets[7]: 1275  LLC: 2048
rand_sets[7]: 1275
Assign rand_sets[8]: 1876  LLC: 2048
rand_sets[8]: 1876
Assign rand_sets[9]: 2038  LLC: 2048
rand_sets[9]: 2038
Assign rand_sets[10]: 701  LLC: 2048
rand_sets[10]: 701
Assign rand_sets[11]: 479  LLC: 2048
rand_sets[11]: 479
Assign rand_sets[12]: 892  LLC: 2048
rand_sets[12]: 892
Assign rand_sets[13]: 1820  LLC: 2048
rand_sets[13]: 1820
Assign rand_sets[14]: 1505  LLC: 2048
rand_sets[14]: 1505
Assign rand_sets[15]: 1159  LLC: 2048
rand_sets[15]: 1159
Assign rand_sets[16]: 513  LLC: 2048
rand_sets[16]: 513
Assign rand_sets[17]: 703  LLC: 2048
rand_sets[17]: 703
Assign rand_sets[18]: 561  LLC: 2048
rand_sets[18]: 561
Assign rand_sets[19]: 990  LLC: 2048
rand_sets[19]: 990
Assign rand_sets[20]: 342  LLC: 2048
rand_sets[20]: 342
Assign rand_sets[21]: 882  LLC: 2048
rand_sets[21]: 882
Assign rand_sets[22]: 15  LLC: 2048
rand_sets[22]: 15
Assign rand_sets[23]: 71  LLC: 2048
rand_sets[23]: 71
Assign rand_sets[24]: 1127  LLC: 2048
rand_sets[24]: 1127
Assign rand_sets[25]: 1382  LLC: 2048
rand_sets[25]: 1382
Assign rand_sets[26]: 647  LLC: 2048
rand_sets[26]: 647
Assign rand_sets[27]: 857  LLC: 2048
rand_sets[27]: 857
Assign rand_sets[28]: 1450  LLC: 2048
rand_sets[28]: 1450
Assign rand_sets[29]: 1160  LLC: 2048
rand_sets[29]: 1160
Assign rand_sets[30]: 1852  LLC: 2048
rand_sets[30]: 1852
Assign rand_sets[31]: 1881  LLC: 2048
rand_sets[31]: 1881
Assign rand_sets[32]: 1770  LLC: 2048
rand_sets[32]: 1770
Assign rand_sets[33]: 1622  LLC: 2048
rand_sets[33]: 1622
Assign rand_sets[34]: 275  LLC: 2048
rand_sets[34]: 275
Assign rand_sets[35]: 635  LLC: 2048
rand_sets[35]: 635
Assign rand_sets[36]: 466  LLC: 2048
rand_sets[36]: 466
Assign rand_sets[37]: 1413  LLC: 2048
rand_sets[37]: 1413
Assign rand_sets[38]: 417  LLC: 2048
rand_sets[38]: 417
Assign rand_sets[39]: 472  LLC: 2048
rand_sets[39]: 472
Assign rand_sets[40]: 1340  LLC: 2048
rand_sets[40]: 1340
Assign rand_sets[41]: 852  LLC: 2048
rand_sets[41]: 852
Assign rand_sets[42]: 1365  LLC: 2048
rand_sets[42]: 1365
Assign rand_sets[43]: 47  LLC: 2048
rand_sets[43]: 47
Assign rand_sets[44]: 823  LLC: 2048
rand_sets[44]: 823
Assign rand_sets[45]: 686  LLC: 2048
rand_sets[45]: 686
Assign rand_sets[46]: 1637  LLC: 2048
rand_sets[46]: 1637
Assign rand_sets[47]: 1115  LLC: 2048
rand_sets[47]: 1115
Assign rand_sets[48]: 986  LLC: 2048
rand_sets[48]: 986
Assign rand_sets[49]: 258  LLC: 2048
rand_sets[49]: 258
Assign rand_sets[50]: 633  LLC: 2048
rand_sets[50]: 633
Assign rand_sets[51]: 920  LLC: 2048
rand_sets[51]: 920
Assign rand_sets[52]: 204  LLC: 2048
rand_sets[52]: 204
Assign rand_sets[53]: 227  LLC: 2048
rand_sets[53]: 227
Assign rand_sets[54]: 1818  LLC: 2048
rand_sets[54]: 1818
Assign rand_sets[55]: 886  LLC: 2048
rand_sets[55]: 886
Assign rand_sets[56]: 1422  LLC: 2048
rand_sets[56]: 1422
Assign rand_sets[57]: 607  LLC: 2048
rand_sets[57]: 607
Assign rand_sets[58]: 217  LLC: 2048
rand_sets[58]: 217
Assign rand_sets[59]: 1945  LLC: 2048
rand_sets[59]: 1945
Assign rand_sets[60]: 143  LLC: 2048
rand_sets[60]: 143
Assign rand_sets[61]: 1311  LLC: 2048
rand_sets[61]: 1311
Assign rand_sets[62]: 319  LLC: 2048
rand_sets[62]: 319
Assign rand_sets[63]: 1846  LLC: 2048
rand_sets[63]: 1846
 CLEAN-RRIP-POLICY-1: 2-2-1-3-2-3-0-2- CLEAN-RRIP-POLICY-2: 2-2-1-3-2-3-0-2-
 DIRTY-RRIP-POLICY-1: 2-2-0-3-1-3-0-2- DIRTY-RRIP-POLICY-2: 2-2-0-3-1-3-0-2-
 PSEL width: 10
Heartbeat CPU 0 instructions: 10000000 cycles: 7319939 heartbeat IPC: 1.36613 cumulative IPC: 1.36613 (Simulation time: 0 hr 0 min 20 sec) 
Heartbeat CPU 0 instructions: 20000000 cycles: 14623802 heartbeat IPC: 1.36914 cumulative IPC: 1.36763 (Simulation time: 0 hr 0 min 39 sec) 
Heartbeat CPU 0 instructions: 30000003 cycles: 21925255 heartbeat IPC: 1.36959 cumulative IPC: 1.36829 (Simulation time: 0 hr 0 min 59 sec) 
Heartbeat CPU 0 instructions: 40000000 cycles: 29213510 heartbeat IPC: 1.37207 cumulative IPC: 1.36923 (Simulation time: 0 hr 1 min 18 sec) 
Heartbeat CPU 0 instructions: 50000000 cycles: 36490040 heartbeat IPC: 1.37428 cumulative IPC: 1.37024 (Simulation time: 0 hr 1 min 38 sec) 
Heartbeat CPU 0 instructions: 60000000 cycles: 43770106 heartbeat IPC: 1.37361 cumulative IPC: 1.3708 (Simulation time: 0 hr 1 min 58 sec) 
Heartbeat CPU 0 instructions: 70000001 cycles: 51055425 heartbeat IPC: 1.37262 cumulative IPC: 1.37106 (Simulation time: 0 hr 2 min 18 sec) 
Heartbeat CPU 0 instructions: 80000000 cycles: 58330504 heartbeat IPC: 1.37456 cumulative IPC: 1.3715 (Simulation time: 0 hr 2 min 38 sec) 
Heartbeat CPU 0 instructions: 90000000 cycles: 65636932 heartbeat IPC: 1.36866 cumulative IPC: 1.37118 (Simulation time: 0 hr 2 min 58 sec) 
Heartbeat CPU 0 instructions: 100000000 cycles: 72929120 heartbeat IPC: 1.37133 cumulative IPC: 1.37119 (Simulation time: 0 hr 3 min 18 sec) 

Warmup complete CPU 0 instructions: 100000002 cycles: 72929121 (Simulation time: 0 hr 3 min 18 sec) 

Heartbeat CPU 0 instructions: 110000002 cycles: 113293761 heartbeat IPC: 0.247742 cumulative IPC: 0.247742 (Simulation time: 0 hr 3 min 58 sec) 
Heartbeat CPU 0 instructions: 120000000 cycles: 153362964 heartbeat IPC: 0.249568 cumulative IPC: 0.248652 (Simulation time: 0 hr 4 min 38 sec) 
Heartbeat CPU 0 instructions: 130000002 cycles: 193662024 heartbeat IPC: 0.248145 cumulative IPC: 0.248482 (Simulation time: 0 hr 5 min 17 sec) 
Heartbeat CPU 0 instructions: 140000000 cycles: 234060451 heartbeat IPC: 0.247534 cumulative IPC: 0.248245 (Simulation time: 0 hr 5 min 58 sec) 
Heartbeat CPU 0 instructions: 150000002 cycles: 274035654 heartbeat IPC: 0.250155 cumulative IPC: 0.248624 (Simulation time: 0 hr 6 min 38 sec) 
Heartbeat CPU 0 instructions: 160000000 cycles: 314025431 heartbeat IPC: 0.250064 cumulative IPC: 0.248863 (Simulation time: 0 hr 7 min 17 sec) 
Heartbeat CPU 0 instructions: 170000001 cycles: 353281788 heartbeat IPC: 0.254736 cumulative IPC: 0.249686 (Simulation time: 0 hr 7 min 57 sec) 
Heartbeat CPU 0 instructions: 180000000 cycles: 393272216 heartbeat IPC: 0.25006 cumulative IPC: 0.249732 (Simulation time: 0 hr 8 min 36 sec) 
Heartbeat CPU 0 instructions: 190000002 cycles: 433245353 heartbeat IPC: 0.250168 cumulative IPC: 0.249781 (Simulation time: 0 hr 9 min 16 sec) 
Heartbeat CPU 0 instructions: 200000000 cycles: 474427943 heartbeat IPC: 0.242821 cumulative IPC: 0.249067 (Simulation time: 0 hr 9 min 56 sec) 
Heartbeat CPU 0 instructions: 210000003 cycles: 514446577 heartbeat IPC: 0.249884 cumulative IPC: 0.249141 (Simulation time: 0 hr 10 min 36 sec) 
Heartbeat CPU 0 instructions: 220000000 cycles: 554691570 heartbeat IPC: 0.248478 cumulative IPC: 0.249085 (Simulation time: 0 hr 11 min 16 sec) 
Heartbeat CPU 0 instructions: 230000000 cycles: 594894775 heartbeat IPC: 0.248736 cumulative IPC: 0.249059 (Simulation time: 0 hr 11 min 56 sec) 
Heartbeat CPU 0 instructions: 240000000 cycles: 634851216 heartbeat IPC: 0.250273 cumulative IPC: 0.249145 (Simulation time: 0 hr 12 min 35 sec) 
Heartbeat CPU 0 instructions: 250000000 cycles: 674832725 heartbeat IPC: 0.250116 cumulative IPC: 0.249209 (Simulation time: 0 hr 13 min 14 sec) 
Heartbeat CPU 0 instructions: 260000000 cycles: 714925734 heartbeat IPC: 0.24942 cumulative IPC: 0.249223 (Simulation time: 0 hr 13 min 54 sec) 
Heartbeat CPU 0 instructions: 270000000 cycles: 755074512 heartbeat IPC: 0.249074 cumulative IPC: 0.249214 (Simulation time: 0 hr 14 min 33 sec) 
Heartbeat CPU 0 instructions: 280000000 cycles: 795555798 heartbeat IPC: 0.247028 cumulative IPC: 0.249091 (Simulation time: 0 hr 15 min 13 sec) 
Heartbeat CPU 0 instructions: 290000001 cycles: 835283504 heartbeat IPC: 0.251714 cumulative IPC: 0.249228 (Simulation time: 0 hr 15 min 52 sec) 
Heartbeat CPU 0 instructions: 300000000 cycles: 875665718 heartbeat IPC: 0.247634 cumulative IPC: 0.249148 (Simulation time: 0 hr 16 min 30 sec) 
Heartbeat CPU 0 instructions: 310000000 cycles: 916008250 heartbeat IPC: 0.247877 cumulative IPC: 0.249087 (Simulation time: 0 hr 17 min 9 sec) 
Heartbeat CPU 0 instructions: 320000000 cycles: 956067618 heartbeat IPC: 0.249629 cumulative IPC: 0.249112 (Simulation time: 0 hr 17 min 48 sec) 
Heartbeat CPU 0 instructions: 330000000 cycles: 996104918 heartbeat IPC: 0.249767 cumulative IPC: 0.24914 (Simulation time: 0 hr 18 min 27 sec) 
Heartbeat CPU 0 instructions: 340000000 cycles: 1036741713 heartbeat IPC: 0.246082 cumulative IPC: 0.249011 (Simulation time: 0 hr 19 min 6 sec) 
Heartbeat CPU 0 instructions: 350000001 cycles: 1076896709 heartbeat IPC: 0.249035 cumulative IPC: 0.249012 (Simulation time: 0 hr 19 min 45 sec) 
Heartbeat CPU 0 instructions: 360000000 cycles: 1117324052 heartbeat IPC: 0.247357 cumulative IPC: 0.248948 (Simulation time: 0 hr 20 min 24 sec) 
Heartbeat CPU 0 instructions: 370000000 cycles: 1156821337 heartbeat IPC: 0.253182 cumulative IPC: 0.249102 (Simulation time: 0 hr 21 min 2 sec) 
Heartbeat CPU 0 instructions: 380000000 cycles: 1197226149 heartbeat IPC: 0.247495 cumulative IPC: 0.249045 (Simulation time: 0 hr 21 min 41 sec) 
Heartbeat CPU 0 instructions: 390000001 cycles: 1237158519 heartbeat IPC: 0.250423 cumulative IPC: 0.249092 (Simulation time: 0 hr 22 min 20 sec) 
Heartbeat CPU 0 instructions: 400000000 cycles: 1277209761 heartbeat IPC: 0.24968 cumulative IPC: 0.249111 (Simulation time: 0 hr 22 min 58 sec) 
Heartbeat CPU 0 instructions: 410000000 cycles: 1317085603 heartbeat IPC: 0.250778 cumulative IPC: 0.249165 (Simulation time: 0 hr 23 min 37 sec) 
Heartbeat CPU 0 instructions: 420000000 cycles: 1357013295 heartbeat IPC: 0.250453 cumulative IPC: 0.249205 (Simulation time: 0 hr 24 min 15 sec) 
Heartbeat CPU 0 instructions: 430000000 cycles: 1397005617 heartbeat IPC: 0.250048 cumulative IPC: 0.24923 (Simulation time: 0 hr 24 min 54 sec) 
Heartbeat CPU 0 instructions: 440000000 cycles: 1437022941 heartbeat IPC: 0.249892 cumulative IPC: 0.24925 (Simulation time: 0 hr 25 min 33 sec) 
Heartbeat CPU 0 instructions: 450000002 cycles: 1476883379 heartbeat IPC: 0.250875 cumulative IPC: 0.249296 (Simulation time: 0 hr 26 min 11 sec) 
Heartbeat CPU 0 instructions: 460000000 cycles: 1516220541 heartbeat IPC: 0.254212 cumulative IPC: 0.24943 (Simulation time: 0 hr 26 min 50 sec) 
Heartbeat CPU 0 instructions: 470000000 cycles: 1556365405 heartbeat IPC: 0.249098 cumulative IPC: 0.249421 (Simulation time: 0 hr 27 min 28 sec) 
Heartbeat CPU 0 instructions: 480000000 cycles: 1596148669 heartbeat IPC: 0.251362 cumulative IPC: 0.249472 (Simulation time: 0 hr 28 min 7 sec) 
Heartbeat CPU 0 instructions: 490000001 cycles: 1636112220 heartbeat IPC: 0.250228 cumulative IPC: 0.249491 (Simulation time: 0 hr 28 min 46 sec) 
Heartbeat CPU 0 instructions: 500000000 cycles: 1676304535 heartbeat IPC: 0.248804 cumulative IPC: 0.249474 (Simulation time: 0 hr 29 min 23 sec) 
Heartbeat CPU 0 instructions: 510000000 cycles: 1715938643 heartbeat IPC: 0.252308 cumulative IPC: 0.249542 (Simulation time: 0 hr 30 min 0 sec) 
Heartbeat CPU 0 instructions: 520000000 cycles: 1756345676 heartbeat IPC: 0.247482 cumulative IPC: 0.249493 (Simulation time: 0 hr 30 min 38 sec) 
Heartbeat CPU 0 instructions: 530000000 cycles: 1796183458 heartbeat IPC: 0.251018 cumulative IPC: 0.249528 (Simulation time: 0 hr 31 min 14 sec) 
Heartbeat CPU 0 instructions: 540000000 cycles: 1835792003 heartbeat IPC: 0.252471 cumulative IPC: 0.249594 (Simulation time: 0 hr 31 min 50 sec) 
Heartbeat CPU 0 instructions: 550000001 cycles: 1876111748 heartbeat IPC: 0.248017 cumulative IPC: 0.249559 (Simulation time: 0 hr 32 min 26 sec) 
Heartbeat CPU 0 instructions: 560000000 cycles: 1916525710 heartbeat IPC: 0.247439 cumulative IPC: 0.249512 (Simulation time: 0 hr 33 min 3 sec) 
Heartbeat CPU 0 instructions: 570000003 cycles: 1956886354 heartbeat IPC: 0.247766 cumulative IPC: 0.249475 (Simulation time: 0 hr 33 min 39 sec) 
Heartbeat CPU 0 instructions: 580000000 cycles: 1997097614 heartbeat IPC: 0.248686 cumulative IPC: 0.249458 (Simulation time: 0 hr 34 min 16 sec) 
Heartbeat CPU 0 instructions: 590000001 cycles: 2037749724 heartbeat IPC: 0.24599 cumulative IPC: 0.249387 (Simulation time: 0 hr 34 min 52 sec) 
Heartbeat CPU 0 instructions: 600000000 cycles: 2078151441 heartbeat IPC: 0.247514 cumulative IPC: 0.249349 (Simulation time: 0 hr 35 min 29 sec) 
Finished CPU 0 instructions: 500000000 cycles: 2005222328 cumulative IPC: 0.249349 (Simulation time: 0 hr 35 min 29 sec) 

CPU 0 Branch Prediction Accuracy: 96.2429% MPKI: 5.85335
Number of Branches: 77897976 Number of Mispredictions: 2926674
Number of LOAD Instructions: 193081861
Number of LOAD Instructions (ROI): 193081861
Number of STORE Instructions: 97310749
Number of STORE Instructions (ROI): 97310749
Total Destination Memory Operands: 106368027
Total Destination Memory Operands (ROI): 106368027
Total Source Memory Operands: 193081861
Total Source Memory Operands (ROI): 193081861
Number of DEPENDED LOADS: 6436868
Number of DEPENDED LOADS (ROI): 6436868
Number of SQ_ADDED: 106367982
Number of SQ_ADDED (ROI): 106367982
Number of LQ_ADDED: 425914192
Number of LQ_ADDED (ROI): 425914192
Number of Instructions read from trace: 600000256

ChampSim completed all CPUs

Region of Interest Statistics

CPU 0 cumulative IPC: 0.249349 instructions: 500000000 cycles: 2005222328
ITLB TOTAL     ACCESS:  151255257  HIT:  151239426  MISS:      15831
ITLB LOAD      ACCESS:  151255257  HIT:  151239426  MISS:      15831
ITLB RFO       ACCESS:          0  HIT:          0  MISS:          0
ITLB PREFETCH  ACCESS:          0  HIT:          0  MISS:          0
ITLB WRITEBACK ACCESS:          0  HIT:          0  MISS:          0
ITLB PREFETCH  REQUESTED:          0  ISSUED:          0  USEFUL:          0  USELESS:          0
ITLB TOTAL MSHR MERGED:      17597
ITLB LOAD MSHR MERGED:      17597
ITLB RFO MSHR MERGED:          0
ITLB PREFETCH MSHR MERGED:          0
ITLB WRITEBACK MSHR MERGED:          0
ITLB TOTAL ACCESSES:  151272854 HITS:  151239426 MISSES:      33428
ITLB LOAD ACCESSES:  151272854 HITS:  151239426 MISSES:      33428
ITLB RFO ACCESSES:          0 HITS:          0 MISSES:          0
ITLB PREFETCH ACCESSES:          0 HITS:          0 MISSES:          0
ITLB WRITEBACK ACCESSES:          0 HITS:          0 MISSES:          0
ITLB RQ ACCESS:  500000242
ITLB RQ TO_CACHE:  151272854
ITLB RQ MERGED:  348727388
ITLB RQ FORWARD:          0
ITLB WQ ACCESS:          0
ITLB WQ TO_CACHE:          0
ITLB WQ MERGED:          0
ITLB WQ FORWARD:          0
DTLB TOTAL     ACCESS:  199564559  HIT:  194185501  MISS:    5379058
DTLB LOAD      ACCESS:  123136907  HIT:  118118335  MISS:    5018572
DTLB RFO       ACCESS:   76427652  HIT:   76067166  MISS:     360486
DTLB PREFETCH  ACCESS:          0  HIT:          0  MISS:          0
DTLB WRITEBACK ACCESS:          0  HIT:          0  MISS:          0
DTLB PREFETCH  REQUESTED:          0  ISSUED:          0  USEFUL:          0  USELESS:          0
DTLB TOTAL MSHR MERGED:     917160
DTLB LOAD MSHR MERGED:     807267
DTLB RFO MSHR MERGED:     109893
DTLB PREFETCH MSHR MERGED:          0
DTLB WRITEBACK MSHR MERGED:          0
DTLB TOTAL ACCESSES:  200481719 HITS:  194185501 MISSES:    6296218
DTLB LOAD ACCESSES:  123944174 HITS:  118118335 MISSES:    5825839
DTLB RFO ACCESSES:   76537545 HITS:   76067166 MISSES:     470379
DTLB PREFETCH ACCESSES:          0 HITS:          0 MISSES:          0
DTLB WRITEBACK ACCESSES:          0 HITS:          0 MISSES:          0
DTLB RQ ACCESS:  243888374
DTLB RQ TO_CACHE:  200481719
DTLB RQ MERGED:   43406655
DTLB RQ FORWARD:          0
DTLB WQ ACCESS:          0
DTLB WQ TO_CACHE:          0
DTLB WQ MERGED:          0
DTLB WQ FORWARD:          0
L1D TOTAL     ACCESS:  335638494  HIT:  317542271  MISS:   18096223
L1D LOAD      ACCESS:  127701010  HIT:  118759742  MISS:    8941268
L1D RFO       ACCESS:   87090937  HIT:   86308935  MISS:     782002
L1D PREFETCH  ACCESS:  120846547  HIT:  112473594  MISS:    8372953
L1D WRITEBACK ACCESS:          0  HIT:          0  MISS:          0
L1D PREFETCH  REQUESTED:  128479421  ISSUED:  126881447  USEFUL:    1744447  USELESS:    6628518
L1D TOTAL MSHR MERGED:    3825913
L1D LOAD MSHR MERGED:     940635
L1D RFO MSHR MERGED:    1057035
L1D PREFETCH MSHR MERGED:    1828243
L1D WRITEBACK MSHR MERGED:          0
L1D TOTAL ACCESSES:  339549653 HITS:  317627517 MISSES:   21922136
L1D LOAD ACCESSES:  128479842 HITS:  118760163 MISSES:    9719679
L1D RFO ACCESSES:   88086653 HITS:   86308935 MISSES:    1777718
L1D PREFETCH ACCESSES:  122983158 HITS:  112558419 MISSES:   10424739
L1D WRITEBACK ACCESSES:          0 HITS:          0 MISSES:          0
L1D RQ ACCESS:  155256989
L1D RQ TO_CACHE:  128479421
L1D RQ MERGED:   26777147
L1D RQ FORWARD:          0
L1D WQ ACCESS:   88631385
L1D WQ TO_CACHE:   88086652
L1D WQ MERGED:     544733
L1D WQ FORWARD:      85246
L1I TOTAL     ACCESS:  175559832  HIT:  175293364  MISS:     266468
L1I LOAD      ACCESS:  175559832  HIT:  175293364  MISS:     266468
L1I RFO       ACCESS:          0  HIT:          0  MISS:          0
L1I PREFETCH  ACCESS:          0  HIT:          0  MISS:          0
L1I WRITEBACK ACCESS:          0  HIT:          0  MISS:          0
L1I PREFETCH  REQUESTED:          0  ISSUED:          0  USEFUL:          0  USELESS:          0
L1I TOTAL MSHR MERGED:     213034
L1I LOAD MSHR MERGED:     213034
L1I RFO MSHR MERGED:          0
L1I PREFETCH MSHR MERGED:          0
L1I WRITEBACK MSHR MERGED:          0
L1I TOTAL ACCESSES:  175772866 HITS:  175293364 MISSES:     479502
L1I LOAD ACCESSES:  175772866 HITS:  175293364 MISSES:     479502
L1I RFO ACCESSES:          0 HITS:          0 MISSES:          0
L1I PREFETCH ACCESSES:          0 HITS:          0 MISSES:          0
L1I WRITEBACK ACCESSES:          0 HITS:          0 MISSES:          0
L1I RQ ACCESS:  500000242
L1I RQ TO_CACHE:  175772866
L1I RQ MERGED:  324227376
L1I RQ FORWARD:          0
L1I WQ ACCESS:          0
L1I WQ TO_CACHE:          0
L1I WQ MERGED:          0
L1I WQ FORWARD:          0
L2C TOTAL     ACCESS:   23738773  HIT:   12113007  MISS:   11625766
L2C LOAD      ACCESS:    9044331  HIT:    3564781  MISS:    5479550
L2C RFO       ACCESS:     720625  HIT:     130369  MISS:     590256
L2C PREFETCH  ACCESS:    8613494  HIT:    3086228  MISS:    5527266
L2C WRITEBACK ACCESS:    5360323  HIT:    5331629  MISS:      28694
L2C PREFETCH  REQUESTED:      18039  ISSUED:      18039  USEFUL:     323017  USELESS:    5204424
L2C TOTAL MSHR MERGED:         22
L2C LOAD MSHR MERGED:          2
L2C RFO MSHR MERGED:          0
L2C PREFETCH MSHR MERGED:         20
L2C WRITEBACK MSHR MERGED:          0
L2C TOTAL ACCESSES:   23740594 HITS:   12114802 MISSES:   11625792
L2C LOAD ACCESSES:    9045512 HITS:    3565962 MISSES:    5479550
L2C RFO ACCESSES:     720683 HITS:     130427 MISSES:     590256
L2C PREFETCH ACCESSES:    8614076 HITS:    3086784 MISSES:    5527292
L2C WRITEBACK ACCESSES:    5360323 HITS:    5331629 MISSES:      28694
L2C RQ ACCESS:    9766195
L2C RQ TO_CACHE:    9764956
L2C RQ MERGED:          0
L2C RQ FORWARD:          0
L2C WQ ACCESS:    5360323
L2C WQ TO_CACHE:    5360323
L2C WQ MERGED:          0
L2C WQ FORWARD:       1795
LLC TOTAL     ACCESS:   15448689  HIT:    6615314  MISS:    8833375
LLC LOAD      ACCESS:    5479519  HIT:    2091379  MISS:    3388140
LLC RFO       ACCESS:     590254  HIT:     288176  MISS:     302078
LLC PREFETCH  ACCESS:    5527255  HIT:    1130516  MISS:    4396739
LLC WRITEBACK ACCESS:    3851661  HIT:    3105243  MISS:     746418
LLC PREFETCH  REQUESTED:          0  ISSUED:          0  USEFUL:      25010  USELESS:    4372262
LLC TOTAL MSHR MERGED:          0
LLC LOAD MSHR MERGED:          0
LLC RFO MSHR MERGED:          0
LLC PREFETCH MSHR MERGED:          0
LLC WRITEBACK MSHR MERGED:          0
LLC TOTAL ACCESSES:   15448737 HITS:    6615362 MISSES:    8833375
LLC LOAD ACCESSES:    5479548 HITS:    2091408 MISSES:    3388140
LLC RFO ACCESSES:     590256 HITS:     288178 MISSES:     302078
LLC PREFETCH ACCESSES:    5527272 HITS:    1130533 MISSES:    4396739
LLC WRITEBACK ACCESSES:    3851661 HITS:    3105243 MISSES:     746418
LLC 0 RQ ACCESS:    6069804
LLC 0 RQ TO_CACHE:    6069773
LLC 0 RQ MERGED:          0
LLC 0 RQ FORWARD:          0
LLC WQ ACCESS:    3851661
LLC WQ TO_CACHE:    3851661
LLC WQ MERGED:          0
LLC WQ FORWARD:         48
Major fault: 0 Minor fault: 44814
CPU 0 L1D next line prefetcher final stats
CPU 0 L2C PC-based stride prefetcher final stats
All Misses: 10692753
All Hits: 7928441
SD Algo Stats - Switches: 0 SRR-Repls: 3866627 BRR-Repls: 0

DRAM Statistics
 CHANNEL 0
 RQ ROW_BUFFER_HIT:    1432159  ROW_BUFFER_MISS:    6653515
 DBUS_CONGESTED:    5405580
 WQ ROW_BUFFER_HIT:     172178  ROW_BUFFER_MISS:    2053702  FULL:          0

 AVG_CONGESTED_CYCLE: 13
LOADS RETIRED: 160808997
INSTR RETIRED: 500000000
