
*** ChampSim Multicore Out-of-Order Simulator ***

Warmup Instructions: 100000000
Simulation Instructions: 500000000
Number of CPUs: 1
LLC sets: 2048
LLC ways: 16
Clean RRIP Policies: 323132303231323 Dirty RRIP Policies: 2303230323032303 PSEL Width: 10 Track Set: 4294967295 PSEL Mask: 1 Demote Mask: 2313143323131433DS Algo: 0Window size: 0
Off-chip DRAM Size: 4096 MB Channels: 1 Width: 64-bit Data Rate: 1600 MT/s

CPU 0 runs /mnt/beegfs/iconst01/spec2017/Gcc.trace.gz
NOT SORTED
TRACE STRING: /mnt/beegfs/iconst01/spec2017/Gcc.trace.gz
SORTED
TRACE STRING: /mnt/beegfs/iconst01/spec2017/Gcc.trace.gz
INITIAL
TRACE STRING: /mnt/beegfs/iconst01/spec2017/Gcc.trace.gz

champsim_seed used: 269

CPU 0 L1D next line prefetcher
CPU 0 L2C IP-based stride prefetcher
Initialize DRRIP state
Assign rand_sets[0]: 454  LLC: 2048
rand_sets[0]: 454
Assign rand_sets[1]: 1662  LLC: 2048
rand_sets[1]: 1662
Assign rand_sets[2]: 1921  LLC: 2048
rand_sets[2]: 1921
Assign rand_sets[3]: 1131  LLC: 2048
rand_sets[3]: 1131
Assign rand_sets[4]: 331  LLC: 2048
rand_sets[4]: 331
Assign rand_sets[5]: 1531  LLC: 2048
rand_sets[5]: 1531
Assign rand_sets[6]: 482  LLC: 2048
rand_sets[6]: 482
Assign rand_sets[7]: 1275  LLC: 2048
rand_sets[7]: 1275
Assign rand_sets[8]: 1876  LLC: 2048
rand_sets[8]: 1876
Assign rand_sets[9]: 2038  LLC: 2048
rand_sets[9]: 2038
Assign rand_sets[10]: 701  LLC: 2048
rand_sets[10]: 701
Assign rand_sets[11]: 479  LLC: 2048
rand_sets[11]: 479
Assign rand_sets[12]: 892  LLC: 2048
rand_sets[12]: 892
Assign rand_sets[13]: 1820  LLC: 2048
rand_sets[13]: 1820
Assign rand_sets[14]: 1505  LLC: 2048
rand_sets[14]: 1505
Assign rand_sets[15]: 1159  LLC: 2048
rand_sets[15]: 1159
Assign rand_sets[16]: 513  LLC: 2048
rand_sets[16]: 513
Assign rand_sets[17]: 703  LLC: 2048
rand_sets[17]: 703
Assign rand_sets[18]: 561  LLC: 2048
rand_sets[18]: 561
Assign rand_sets[19]: 990  LLC: 2048
rand_sets[19]: 990
Assign rand_sets[20]: 342  LLC: 2048
rand_sets[20]: 342
Assign rand_sets[21]: 882  LLC: 2048
rand_sets[21]: 882
Assign rand_sets[22]: 15  LLC: 2048
rand_sets[22]: 15
Assign rand_sets[23]: 71  LLC: 2048
rand_sets[23]: 71
Assign rand_sets[24]: 1127  LLC: 2048
rand_sets[24]: 1127
Assign rand_sets[25]: 1382  LLC: 2048
rand_sets[25]: 1382
Assign rand_sets[26]: 647  LLC: 2048
rand_sets[26]: 647
Assign rand_sets[27]: 857  LLC: 2048
rand_sets[27]: 857
Assign rand_sets[28]: 1450  LLC: 2048
rand_sets[28]: 1450
Assign rand_sets[29]: 1160  LLC: 2048
rand_sets[29]: 1160
Assign rand_sets[30]: 1852  LLC: 2048
rand_sets[30]: 1852
Assign rand_sets[31]: 1881  LLC: 2048
rand_sets[31]: 1881
Assign rand_sets[32]: 1770  LLC: 2048
rand_sets[32]: 1770
Assign rand_sets[33]: 1622  LLC: 2048
rand_sets[33]: 1622
Assign rand_sets[34]: 275  LLC: 2048
rand_sets[34]: 275
Assign rand_sets[35]: 635  LLC: 2048
rand_sets[35]: 635
Assign rand_sets[36]: 466  LLC: 2048
rand_sets[36]: 466
Assign rand_sets[37]: 1413  LLC: 2048
rand_sets[37]: 1413
Assign rand_sets[38]: 417  LLC: 2048
rand_sets[38]: 417
Assign rand_sets[39]: 472  LLC: 2048
rand_sets[39]: 472
Assign rand_sets[40]: 1340  LLC: 2048
rand_sets[40]: 1340
Assign rand_sets[41]: 852  LLC: 2048
rand_sets[41]: 852
Assign rand_sets[42]: 1365  LLC: 2048
rand_sets[42]: 1365
Assign rand_sets[43]: 47  LLC: 2048
rand_sets[43]: 47
Assign rand_sets[44]: 823  LLC: 2048
rand_sets[44]: 823
Assign rand_sets[45]: 686  LLC: 2048
rand_sets[45]: 686
Assign rand_sets[46]: 1637  LLC: 2048
rand_sets[46]: 1637
Assign rand_sets[47]: 1115  LLC: 2048
rand_sets[47]: 1115
Assign rand_sets[48]: 986  LLC: 2048
rand_sets[48]: 986
Assign rand_sets[49]: 258  LLC: 2048
rand_sets[49]: 258
Assign rand_sets[50]: 633  LLC: 2048
rand_sets[50]: 633
Assign rand_sets[51]: 920  LLC: 2048
rand_sets[51]: 920
Assign rand_sets[52]: 204  LLC: 2048
rand_sets[52]: 204
Assign rand_sets[53]: 227  LLC: 2048
rand_sets[53]: 227
Assign rand_sets[54]: 1818  LLC: 2048
rand_sets[54]: 1818
Assign rand_sets[55]: 886  LLC: 2048
rand_sets[55]: 886
Assign rand_sets[56]: 1422  LLC: 2048
rand_sets[56]: 1422
Assign rand_sets[57]: 607  LLC: 2048
rand_sets[57]: 607
Assign rand_sets[58]: 217  LLC: 2048
rand_sets[58]: 217
Assign rand_sets[59]: 1945  LLC: 2048
rand_sets[59]: 1945
Assign rand_sets[60]: 143  LLC: 2048
rand_sets[60]: 143
Assign rand_sets[61]: 1311  LLC: 2048
rand_sets[61]: 1311
Assign rand_sets[62]: 319  LLC: 2048
rand_sets[62]: 319
Assign rand_sets[63]: 1846  LLC: 2048
rand_sets[63]: 1846
 CLEAN-RRIP-POLICY-1: 0-3-2-3-1-3-2-3- CLEAN-RRIP-POLICY-2: 0-3-2-3-1-3-2-3-
 DIRTY-RRIP-POLICY-1: 2-3-0-3-2-3-0-3- DIRTY-RRIP-POLICY-2: 2-3-0-3-2-3-0-3-
 PSEL width: 10
Heartbeat CPU 0 instructions: 10000001 cycles: 7321910 heartbeat IPC: 1.36576 cumulative IPC: 1.36576 (Simulation time: 0 hr 0 min 19 sec) 
Heartbeat CPU 0 instructions: 20000000 cycles: 14329102 heartbeat IPC: 1.42711 cumulative IPC: 1.39576 (Simulation time: 0 hr 0 min 37 sec) 
Heartbeat CPU 0 instructions: 30000001 cycles: 21047073 heartbeat IPC: 1.48854 cumulative IPC: 1.42538 (Simulation time: 0 hr 0 min 57 sec) 
Heartbeat CPU 0 instructions: 40000000 cycles: 27510369 heartbeat IPC: 1.5472 cumulative IPC: 1.454 (Simulation time: 0 hr 1 min 17 sec) 
Heartbeat CPU 0 instructions: 50000001 cycles: 33613551 heartbeat IPC: 1.63849 cumulative IPC: 1.4875 (Simulation time: 0 hr 1 min 36 sec) 
Heartbeat CPU 0 instructions: 60000000 cycles: 40096066 heartbeat IPC: 1.54261 cumulative IPC: 1.49641 (Simulation time: 0 hr 1 min 57 sec) 
Heartbeat CPU 0 instructions: 70000000 cycles: 47139968 heartbeat IPC: 1.41967 cumulative IPC: 1.48494 (Simulation time: 0 hr 2 min 15 sec) 
Heartbeat CPU 0 instructions: 80000000 cycles: 54236207 heartbeat IPC: 1.4092 cumulative IPC: 1.47503 (Simulation time: 0 hr 2 min 34 sec) 
Heartbeat CPU 0 instructions: 90000003 cycles: 61247300 heartbeat IPC: 1.42631 cumulative IPC: 1.46945 (Simulation time: 0 hr 2 min 52 sec) 
Heartbeat CPU 0 instructions: 100000000 cycles: 68421291 heartbeat IPC: 1.39392 cumulative IPC: 1.46153 (Simulation time: 0 hr 3 min 10 sec) 

Warmup complete CPU 0 instructions: 100000004 cycles: 68421292 (Simulation time: 0 hr 3 min 10 sec) 

Heartbeat CPU 0 instructions: 110000003 cycles: 97167727 heartbeat IPC: 0.347869 cumulative IPC: 0.347869 (Simulation time: 0 hr 3 min 47 sec) 
Heartbeat CPU 0 instructions: 120000000 cycles: 125066113 heartbeat IPC: 0.358444 cumulative IPC: 0.353077 (Simulation time: 0 hr 4 min 24 sec) 
Heartbeat CPU 0 instructions: 130000000 cycles: 150411890 heartbeat IPC: 0.394543 cumulative IPC: 0.365896 (Simulation time: 0 hr 5 min 1 sec) 
Heartbeat CPU 0 instructions: 140000000 cycles: 181939601 heartbeat IPC: 0.317181 cumulative IPC: 0.352366 (Simulation time: 0 hr 5 min 38 sec) 
Heartbeat CPU 0 instructions: 150000000 cycles: 213286090 heartbeat IPC: 0.319015 cumulative IPC: 0.345149 (Simulation time: 0 hr 6 min 15 sec) 
Heartbeat CPU 0 instructions: 160000000 cycles: 241271105 heartbeat IPC: 0.357334 cumulative IPC: 0.347122 (Simulation time: 0 hr 6 min 51 sec) 
Heartbeat CPU 0 instructions: 170000001 cycles: 269968955 heartbeat IPC: 0.348458 cumulative IPC: 0.347312 (Simulation time: 0 hr 7 min 29 sec) 
Heartbeat CPU 0 instructions: 180000000 cycles: 299176391 heartbeat IPC: 0.342379 cumulative IPC: 0.346688 (Simulation time: 0 hr 8 min 7 sec) 
Heartbeat CPU 0 instructions: 190000002 cycles: 327998703 heartbeat IPC: 0.346954 cumulative IPC: 0.346717 (Simulation time: 0 hr 8 min 44 sec) 
Heartbeat CPU 0 instructions: 200000000 cycles: 357159396 heartbeat IPC: 0.342927 cumulative IPC: 0.346335 (Simulation time: 0 hr 9 min 22 sec) 
Heartbeat CPU 0 instructions: 210000002 cycles: 385794513 heartbeat IPC: 0.349222 cumulative IPC: 0.346595 (Simulation time: 0 hr 9 min 59 sec) 
Heartbeat CPU 0 instructions: 220000000 cycles: 416866996 heartbeat IPC: 0.321828 cumulative IPC: 0.344386 (Simulation time: 0 hr 10 min 35 sec) 
Heartbeat CPU 0 instructions: 230000000 cycles: 445486809 heartbeat IPC: 0.349408 cumulative IPC: 0.344768 (Simulation time: 0 hr 11 min 11 sec) 
Heartbeat CPU 0 instructions: 240000000 cycles: 472317973 heartbeat IPC: 0.372701 cumulative IPC: 0.346623 (Simulation time: 0 hr 11 min 46 sec) 
Heartbeat CPU 0 instructions: 250000000 cycles: 503061119 heartbeat IPC: 0.325276 cumulative IPC: 0.345113 (Simulation time: 0 hr 12 min 25 sec) 
Heartbeat CPU 0 instructions: 260000000 cycles: 530573913 heartbeat IPC: 0.363467 cumulative IPC: 0.346206 (Simulation time: 0 hr 13 min 1 sec) 
Heartbeat CPU 0 instructions: 270000003 cycles: 559650128 heartbeat IPC: 0.343924 cumulative IPC: 0.346071 (Simulation time: 0 hr 13 min 39 sec) 
Heartbeat CPU 0 instructions: 280000000 cycles: 588561540 heartbeat IPC: 0.345884 cumulative IPC: 0.346061 (Simulation time: 0 hr 14 min 18 sec) 
Heartbeat CPU 0 instructions: 290000000 cycles: 618098710 heartbeat IPC: 0.338556 cumulative IPC: 0.345657 (Simulation time: 0 hr 14 min 56 sec) 
Heartbeat CPU 0 instructions: 300000000 cycles: 649642289 heartbeat IPC: 0.317022 cumulative IPC: 0.344103 (Simulation time: 0 hr 15 min 33 sec) 
Heartbeat CPU 0 instructions: 310000001 cycles: 680262617 heartbeat IPC: 0.32658 cumulative IPC: 0.343226 (Simulation time: 0 hr 16 min 10 sec) 
Heartbeat CPU 0 instructions: 320000000 cycles: 709906662 heartbeat IPC: 0.337336 cumulative IPC: 0.342954 (Simulation time: 0 hr 16 min 47 sec) 
Heartbeat CPU 0 instructions: 330000000 cycles: 739577125 heartbeat IPC: 0.337036 cumulative IPC: 0.342692 (Simulation time: 0 hr 17 min 23 sec) 
Heartbeat CPU 0 instructions: 340000000 cycles: 770076368 heartbeat IPC: 0.327877 cumulative IPC: 0.342048 (Simulation time: 0 hr 18 min 1 sec) 
Heartbeat CPU 0 instructions: 350000003 cycles: 797849169 heartbeat IPC: 0.360065 cumulative IPC: 0.342734 (Simulation time: 0 hr 18 min 37 sec) 
Heartbeat CPU 0 instructions: 360000000 cycles: 829175414 heartbeat IPC: 0.319221 cumulative IPC: 0.341766 (Simulation time: 0 hr 19 min 13 sec) 
Heartbeat CPU 0 instructions: 370000000 cycles: 860654416 heartbeat IPC: 0.317672 cumulative IPC: 0.340809 (Simulation time: 0 hr 19 min 50 sec) 
Heartbeat CPU 0 instructions: 380000000 cycles: 892617280 heartbeat IPC: 0.312863 cumulative IPC: 0.339725 (Simulation time: 0 hr 20 min 27 sec) 
Heartbeat CPU 0 instructions: 390000001 cycles: 923619280 heartbeat IPC: 0.32256 cumulative IPC: 0.339103 (Simulation time: 0 hr 21 min 3 sec) 
Heartbeat CPU 0 instructions: 400000000 cycles: 955464413 heartbeat IPC: 0.31402 cumulative IPC: 0.338202 (Simulation time: 0 hr 21 min 39 sec) 
Heartbeat CPU 0 instructions: 410000001 cycles: 986125515 heartbeat IPC: 0.326146 cumulative IPC: 0.337799 (Simulation time: 0 hr 22 min 16 sec) 
Heartbeat CPU 0 instructions: 420000000 cycles: 1016877841 heartbeat IPC: 0.325179 cumulative IPC: 0.33739 (Simulation time: 0 hr 22 min 52 sec) 
Heartbeat CPU 0 instructions: 430000002 cycles: 1048012036 heartbeat IPC: 0.32119 cumulative IPC: 0.336875 (Simulation time: 0 hr 23 min 28 sec) 
Heartbeat CPU 0 instructions: 440000000 cycles: 1080273382 heartbeat IPC: 0.309968 cumulative IPC: 0.336017 (Simulation time: 0 hr 24 min 2 sec) 
Heartbeat CPU 0 instructions: 450000002 cycles: 1112420713 heartbeat IPC: 0.311068 cumulative IPC: 0.335249 (Simulation time: 0 hr 24 min 36 sec) 
Heartbeat CPU 0 instructions: 460000000 cycles: 1143443133 heartbeat IPC: 0.322347 cumulative IPC: 0.334877 (Simulation time: 0 hr 25 min 10 sec) 
Heartbeat CPU 0 instructions: 470000000 cycles: 1174062616 heartbeat IPC: 0.326589 cumulative IPC: 0.334647 (Simulation time: 0 hr 25 min 43 sec) 
Heartbeat CPU 0 instructions: 480000000 cycles: 1204854439 heartbeat IPC: 0.324762 cumulative IPC: 0.33438 (Simulation time: 0 hr 26 min 15 sec) 
Heartbeat CPU 0 instructions: 490000000 cycles: 1235395405 heartbeat IPC: 0.327429 cumulative IPC: 0.334198 (Simulation time: 0 hr 26 min 48 sec) 
Heartbeat CPU 0 instructions: 500000000 cycles: 1266372739 heartbeat IPC: 0.322817 cumulative IPC: 0.333903 (Simulation time: 0 hr 27 min 20 sec) 
Heartbeat CPU 0 instructions: 510000000 cycles: 1302148828 heartbeat IPC: 0.279516 cumulative IPC: 0.332326 (Simulation time: 0 hr 27 min 54 sec) 
Heartbeat CPU 0 instructions: 520000000 cycles: 1330592576 heartbeat IPC: 0.351571 cumulative IPC: 0.33276 (Simulation time: 0 hr 28 min 25 sec) 
Heartbeat CPU 0 instructions: 530000001 cycles: 1361593737 heartbeat IPC: 0.322569 cumulative IPC: 0.332516 (Simulation time: 0 hr 28 min 57 sec) 
Heartbeat CPU 0 instructions: 540000000 cycles: 1391044957 heartbeat IPC: 0.339544 cumulative IPC: 0.332672 (Simulation time: 0 hr 29 min 29 sec) 
Heartbeat CPU 0 instructions: 550000001 cycles: 1420727139 heartbeat IPC: 0.336902 cumulative IPC: 0.332765 (Simulation time: 0 hr 30 min 2 sec) 
Heartbeat CPU 0 instructions: 560000000 cycles: 1446578628 heartbeat IPC: 0.386825 cumulative IPC: 0.333779 (Simulation time: 0 hr 30 min 32 sec) 
Heartbeat CPU 0 instructions: 570000000 cycles: 1477362585 heartbeat IPC: 0.324845 cumulative IPC: 0.333584 (Simulation time: 0 hr 31 min 4 sec) 
Heartbeat CPU 0 instructions: 580000000 cycles: 1506518930 heartbeat IPC: 0.342979 cumulative IPC: 0.333774 (Simulation time: 0 hr 31 min 36 sec) 
Heartbeat CPU 0 instructions: 590000001 cycles: 1532031645 heartbeat IPC: 0.391961 cumulative IPC: 0.334789 (Simulation time: 0 hr 32 min 5 sec) 
Heartbeat CPU 0 instructions: 600000000 cycles: 1559643684 heartbeat IPC: 0.362161 cumulative IPC: 0.335295 (Simulation time: 0 hr 32 min 36 sec) 
Finished CPU 0 instructions: 500000000 cycles: 1491222414 cumulative IPC: 0.335295 (Simulation time: 0 hr 32 min 36 sec) 

CPU 0 Branch Prediction Accuracy: 86.4311% MPKI: 26.2662
Number of Branches: 96788573 Number of Mispredictions: 13133102
Number of LOAD Instructions: 164682285
Number of LOAD Instructions (ROI): 164682285
Number of STORE Instructions: 78194750
Number of STORE Instructions (ROI): 78194750
Total Destination Memory Operands: 83268534
Total Destination Memory Operands (ROI): 83268534
Total Source Memory Operands: 164712438
Total Source Memory Operands (ROI): 164712438
Number of DEPENDED LOADS: 7051763
Number of DEPENDED LOADS (ROI): 7051763
Number of SQ_ADDED: 83268522
Number of SQ_ADDED (ROI): 83268522
Number of LQ_ADDED: 236667050
Number of LQ_ADDED (ROI): 236667050
Number of Instructions read from trace: 600000066

ChampSim completed all CPUs

Region of Interest Statistics

CPU 0 cumulative IPC: 0.335295 instructions: 500000000 cycles: 1491222414
ITLB TOTAL     ACCESS:  100536009  HIT:  100331563  MISS:     204446
ITLB LOAD      ACCESS:  100536009  HIT:  100331563  MISS:     204446
ITLB RFO       ACCESS:          0  HIT:          0  MISS:          0
ITLB PREFETCH  ACCESS:          0  HIT:          0  MISS:          0
ITLB WRITEBACK ACCESS:          0  HIT:          0  MISS:          0
ITLB PREFETCH  REQUESTED:          0  ISSUED:          0  USEFUL:          0  USELESS:          0
ITLB TOTAL MSHR MERGED:     172423
ITLB LOAD MSHR MERGED:     172423
ITLB RFO MSHR MERGED:          0
ITLB PREFETCH MSHR MERGED:          0
ITLB WRITEBACK MSHR MERGED:          0
ITLB TOTAL ACCESSES:  100708432 HITS:  100331563 MISSES:     376869
ITLB LOAD ACCESSES:  100708432 HITS:  100331563 MISSES:     376869
ITLB RFO ACCESSES:          0 HITS:          0 MISSES:          0
ITLB PREFETCH ACCESSES:          0 HITS:          0 MISSES:          0
ITLB WRITEBACK ACCESSES:          0 HITS:          0 MISSES:          0
ITLB RQ ACCESS:  500000057
ITLB RQ TO_CACHE:  100708432
ITLB RQ MERGED:  399291625
ITLB RQ FORWARD:          0
ITLB WQ ACCESS:          0
ITLB WQ TO_CACHE:          0
ITLB WQ MERGED:          0
ITLB WQ FORWARD:          0
DTLB TOTAL     ACCESS:  165360308  HIT:  164725954  MISS:     634354
DTLB LOAD      ACCESS:  106308774  HIT:  105738680  MISS:     570094
DTLB RFO       ACCESS:   59051534  HIT:   58987274  MISS:      64260
DTLB PREFETCH  ACCESS:          0  HIT:          0  MISS:          0
DTLB WRITEBACK ACCESS:          0  HIT:          0  MISS:          0
DTLB PREFETCH  REQUESTED:          0  ISSUED:          0  USEFUL:          0  USELESS:          0
DTLB TOTAL MSHR MERGED:      99365
DTLB LOAD MSHR MERGED:      59052
DTLB RFO MSHR MERGED:      40313
DTLB PREFETCH MSHR MERGED:          0
DTLB WRITEBACK MSHR MERGED:          0
DTLB TOTAL ACCESSES:  165459673 HITS:  164725954 MISSES:     733719
DTLB LOAD ACCESSES:  106367826 HITS:  105738680 MISSES:     629146
DTLB RFO ACCESSES:   59091847 HITS:   58987274 MISSES:     104573
DTLB PREFETCH ACCESSES:          0 HITS:          0 MISSES:          0
DTLB WRITEBACK ACCESSES:          0 HITS:          0 MISSES:          0
DTLB RQ ACCESS:  200319190
DTLB RQ TO_CACHE:  165459673
DTLB RQ MERGED:   34859517
DTLB RQ FORWARD:          0
DTLB WQ ACCESS:          0
DTLB WQ TO_CACHE:          0
DTLB WQ MERGED:          0
DTLB WQ FORWARD:          0
L1D TOTAL     ACCESS:  281881833  HIT:  273972422  MISS:    7909411
L1D LOAD      ACCESS:  110439020  HIT:  107158836  MISS:    3280184
L1D RFO       ACCESS:   67131214  HIT:   66241107  MISS:     890107
L1D PREFETCH  ACCESS:  104311599  HIT:  100572479  MISS:    3739120
L1D WRITEBACK ACCESS:          0  HIT:          0  MISS:          0
L1D PREFETCH  REQUESTED:  110842051  ISSUED:  109142585  USEFUL:    1659636  USELESS:    2079448
L1D TOTAL MSHR MERGED:    2880995
L1D LOAD MSHR MERGED:     503159
L1D RFO MSHR MERGED:    1854812
L1D PREFETCH MSHR MERGED:     523024
L1D WRITEBACK MSHR MERGED:          0
L1D TOTAL ACCESSES:  284790296 HITS:  273999890 MISSES:   10790406
L1D LOAD ACCESSES:  110843521 HITS:  107160306 MISSES:    3683215
L1D RFO ACCESSES:   68974604 HITS:   66241107 MISSES:    2733497
L1D PREFETCH ACCESSES:  104972171 HITS:  100598477 MISSES:    4373694
L1D WRITEBACK ACCESSES:          0 HITS:          0 MISSES:          0
L1D RQ ACCESS:  130766587
L1D RQ TO_CACHE:  110842054
L1D RQ MERGED:   19923063
L1D RQ FORWARD:          0
L1D WQ ACCESS:   69552603
L1D WQ TO_CACHE:   68974605
L1D WQ MERGED:     577998
L1D WQ FORWARD:      27468
L1I TOTAL     ACCESS:  126577318  HIT:  122338801  MISS:    4238517
L1I LOAD      ACCESS:  126577318  HIT:  122338801  MISS:    4238517
L1I RFO       ACCESS:          0  HIT:          0  MISS:          0
L1I PREFETCH  ACCESS:          0  HIT:          0  MISS:          0
L1I WRITEBACK ACCESS:          0  HIT:          0  MISS:          0
L1I PREFETCH  REQUESTED:          0  ISSUED:          0  USEFUL:          0  USELESS:          0
L1I TOTAL MSHR MERGED:    1841041
L1I LOAD MSHR MERGED:    1841041
L1I RFO MSHR MERGED:          0
L1I PREFETCH MSHR MERGED:          0
L1I WRITEBACK MSHR MERGED:          0
L1I TOTAL ACCESSES:  128418362 HITS:  122338801 MISSES:    6079561
L1I LOAD ACCESSES:  128418362 HITS:  122338801 MISSES:    6079561
L1I RFO ACCESSES:          0 HITS:          0 MISSES:          0
L1I PREFETCH ACCESSES:          0 HITS:          0 MISSES:          0
L1I WRITEBACK ACCESSES:          0 HITS:          0 MISSES:          0
L1I RQ ACCESS:  500000057
L1I RQ TO_CACHE:  128418362
L1I RQ MERGED:  371581695
L1I RQ FORWARD:          0
L1I WQ ACCESS:          0
L1I WQ TO_CACHE:          0
L1I WQ MERGED:          0
L1I WQ FORWARD:          0
L2C TOTAL     ACCESS:   14904524  HIT:   11158197  MISS:    3746327
L2C LOAD      ACCESS:    7418369  HIT:    5098355  MISS:    2320014
L2C RFO       ACCESS:     878588  HIT:     409959  MISS:     468629
L2C PREFETCH  ACCESS:    4568334  HIT:    3627913  MISS:     940421
L2C WRITEBACK ACCESS:    2039233  HIT:    2021970  MISS:      17263
L2C PREFETCH  REQUESTED:     842854  ISSUED:     842854  USEFUL:     203231  USELESS:     736897
L2C TOTAL MSHR MERGED:       7765
L2C LOAD MSHR MERGED:       1035
L2C RFO MSHR MERGED:          0
L2C PREFETCH MSHR MERGED:       6730
L2C WRITEBACK MSHR MERGED:          0
L2C TOTAL ACCESSES:   14913247 HITS:   11158642 MISSES:    3754605
L2C LOAD ACCESSES:    7418573 HITS:    5098559 MISSES:    2320014
L2C RFO ACCESSES:     878685 HITS:     410056 MISSES:     468629
L2C PREFETCH ACCESSES:    4576756 HITS:    3628057 MISSES:     948699
L2C WRITEBACK ACCESSES:    2039233 HITS:    2021970 MISSES:      17263
L2C RQ ACCESS:    8297261
L2C RQ TO_CACHE:    8296960
L2C RQ MERGED:          0
L2C RQ FORWARD:          0
L2C WQ ACCESS:    2039233
L2C WQ TO_CACHE:    2039233
L2C WQ MERGED:          0
L2C WQ FORWARD:        445
LLC TOTAL     ACCESS:    4609666  HIT:    2956158  MISS:    1653508
LLC LOAD      ACCESS:    2318969  HIT:    1265650  MISS:    1053319
LLC RFO       ACCESS:     468622  HIT:     392500  MISS:      76122
LLC PREFETCH  ACCESS:     941839  HIT:     559258  MISS:     382581
LLC WRITEBACK ACCESS:     880236  HIT:     738750  MISS:     141486
LLC PREFETCH  REQUESTED:          0  ISSUED:          0  USEFUL:      10513  USELESS:     371258
LLC TOTAL MSHR MERGED:        113
LLC LOAD MSHR MERGED:         32
LLC RFO MSHR MERGED:          0
LLC PREFETCH MSHR MERGED:         81
LLC WRITEBACK MSHR MERGED:          0
LLC TOTAL ACCESSES:    4609806 HITS:    2956185 MISSES:    1653621
LLC LOAD ACCESSES:    2318979 HITS:    1265660 MISSES:    1053319
LLC RFO ACCESSES:     468629 HITS:     392507 MISSES:      76122
LLC PREFETCH ACCESSES:     941962 HITS:     559268 MISSES:     382694
LLC WRITEBACK ACCESSES:     880236 HITS:     738750 MISSES:     141486
LLC 0 RQ ACCESS:    2787608
LLC 0 RQ TO_CACHE:    2787591
LLC 0 RQ MERGED:          0
LLC 0 RQ FORWARD:          0
LLC WQ ACCESS:     880236
LLC WQ TO_CACHE:     880236
LLC WQ MERGED:          0
LLC WQ FORWARD:         27
Major fault: 0 Minor fault: 12862
CPU 0 L1D next line prefetcher final stats
CPU 0 L2C PC-based stride prefetcher final stats
All Misses: 1944906
All Hits: 3481764
SD Algo Stats - Switches: 0 SRR-Repls: 1198497 BRR-Repls: 0

DRAM Statistics
 CHANNEL 0
 RQ ROW_BUFFER_HIT:     449137  ROW_BUFFER_MISS:    1058446
 DBUS_CONGESTED:     551863
 WQ ROW_BUFFER_HIT:      12505  ROW_BUFFER_MISS:     188894  FULL:          0

 AVG_CONGESTED_CYCLE: 13
LOADS RETIRED: 136549171
INSTR RETIRED: 500000000
