
*** ChampSim Multicore Out-of-Order Simulator ***

Warmup Instructions: 100000000
Simulation Instructions: 500000000
Number of CPUs: 1
LLC sets: 2048
LLC ways: 16
Clean RRIP Policies: 2213230222132302 Dirty RRIP Policies: 2203130222031302 PSEL Width: 10 Track Set: 4294967295 PSEL Mask: 1 Demote Mask: 3040100130401001DS Algo: 0Window size: 0
Off-chip DRAM Size: 4096 MB Channels: 1 Width: 64-bit Data Rate: 1600 MT/s

CPU 0 runs /mnt/beegfs/iconst01/spec2017/Blender.trace.gz
NOT SORTED
TRACE STRING: /mnt/beegfs/iconst01/spec2017/Blender.trace.gz
SORTED
TRACE STRING: /mnt/beegfs/iconst01/spec2017/Blender.trace.gz
INITIAL
TRACE STRING: /mnt/beegfs/iconst01/spec2017/Blender.trace.gz

champsim_seed used: 700

CPU 0 L1D next line prefetcher
CPU 0 L2C IP-based stride prefetcher
Initialize DRRIP state
Assign rand_sets[0]: 454  LLC: 2048
rand_sets[0]: 454
Assign rand_sets[1]: 1662  LLC: 2048
rand_sets[1]: 1662
Assign rand_sets[2]: 1921  LLC: 2048
rand_sets[2]: 1921
Assign rand_sets[3]: 1131  LLC: 2048
rand_sets[3]: 1131
Assign rand_sets[4]: 331  LLC: 2048
rand_sets[4]: 331
Assign rand_sets[5]: 1531  LLC: 2048
rand_sets[5]: 1531
Assign rand_sets[6]: 482  LLC: 2048
rand_sets[6]: 482
Assign rand_sets[7]: 1275  LLC: 2048
rand_sets[7]: 1275
Assign rand_sets[8]: 1876  LLC: 2048
rand_sets[8]: 1876
Assign rand_sets[9]: 2038  LLC: 2048
rand_sets[9]: 2038
Assign rand_sets[10]: 701  LLC: 2048
rand_sets[10]: 701
Assign rand_sets[11]: 479  LLC: 2048
rand_sets[11]: 479
Assign rand_sets[12]: 892  LLC: 2048
rand_sets[12]: 892
Assign rand_sets[13]: 1820  LLC: 2048
rand_sets[13]: 1820
Assign rand_sets[14]: 1505  LLC: 2048
rand_sets[14]: 1505
Assign rand_sets[15]: 1159  LLC: 2048
rand_sets[15]: 1159
Assign rand_sets[16]: 513  LLC: 2048
rand_sets[16]: 513
Assign rand_sets[17]: 703  LLC: 2048
rand_sets[17]: 703
Assign rand_sets[18]: 561  LLC: 2048
rand_sets[18]: 561
Assign rand_sets[19]: 990  LLC: 2048
rand_sets[19]: 990
Assign rand_sets[20]: 342  LLC: 2048
rand_sets[20]: 342
Assign rand_sets[21]: 882  LLC: 2048
rand_sets[21]: 882
Assign rand_sets[22]: 15  LLC: 2048
rand_sets[22]: 15
Assign rand_sets[23]: 71  LLC: 2048
rand_sets[23]: 71
Assign rand_sets[24]: 1127  LLC: 2048
rand_sets[24]: 1127
Assign rand_sets[25]: 1382  LLC: 2048
rand_sets[25]: 1382
Assign rand_sets[26]: 647  LLC: 2048
rand_sets[26]: 647
Assign rand_sets[27]: 857  LLC: 2048
rand_sets[27]: 857
Assign rand_sets[28]: 1450  LLC: 2048
rand_sets[28]: 1450
Assign rand_sets[29]: 1160  LLC: 2048
rand_sets[29]: 1160
Assign rand_sets[30]: 1852  LLC: 2048
rand_sets[30]: 1852
Assign rand_sets[31]: 1881  LLC: 2048
rand_sets[31]: 1881
Assign rand_sets[32]: 1770  LLC: 2048
rand_sets[32]: 1770
Assign rand_sets[33]: 1622  LLC: 2048
rand_sets[33]: 1622
Assign rand_sets[34]: 275  LLC: 2048
rand_sets[34]: 275
Assign rand_sets[35]: 635  LLC: 2048
rand_sets[35]: 635
Assign rand_sets[36]: 466  LLC: 2048
rand_sets[36]: 466
Assign rand_sets[37]: 1413  LLC: 2048
rand_sets[37]: 1413
Assign rand_sets[38]: 417  LLC: 2048
rand_sets[38]: 417
Assign rand_sets[39]: 472  LLC: 2048
rand_sets[39]: 472
Assign rand_sets[40]: 1340  LLC: 2048
rand_sets[40]: 1340
Assign rand_sets[41]: 852  LLC: 2048
rand_sets[41]: 852
Assign rand_sets[42]: 1365  LLC: 2048
rand_sets[42]: 1365
Assign rand_sets[43]: 47  LLC: 2048
rand_sets[43]: 47
Assign rand_sets[44]: 823  LLC: 2048
rand_sets[44]: 823
Assign rand_sets[45]: 686  LLC: 2048
rand_sets[45]: 686
Assign rand_sets[46]: 1637  LLC: 2048
rand_sets[46]: 1637
Assign rand_sets[47]: 1115  LLC: 2048
rand_sets[47]: 1115
Assign rand_sets[48]: 986  LLC: 2048
rand_sets[48]: 986
Assign rand_sets[49]: 258  LLC: 2048
rand_sets[49]: 258
Assign rand_sets[50]: 633  LLC: 2048
rand_sets[50]: 633
Assign rand_sets[51]: 920  LLC: 2048
rand_sets[51]: 920
Assign rand_sets[52]: 204  LLC: 2048
rand_sets[52]: 204
Assign rand_sets[53]: 227  LLC: 2048
rand_sets[53]: 227
Assign rand_sets[54]: 1818  LLC: 2048
rand_sets[54]: 1818
Assign rand_sets[55]: 886  LLC: 2048
rand_sets[55]: 886
Assign rand_sets[56]: 1422  LLC: 2048
rand_sets[56]: 1422
Assign rand_sets[57]: 607  LLC: 2048
rand_sets[57]: 607
Assign rand_sets[58]: 217  LLC: 2048
rand_sets[58]: 217
Assign rand_sets[59]: 1945  LLC: 2048
rand_sets[59]: 1945
Assign rand_sets[60]: 143  LLC: 2048
rand_sets[60]: 143
Assign rand_sets[61]: 1311  LLC: 2048
rand_sets[61]: 1311
Assign rand_sets[62]: 319  LLC: 2048
rand_sets[62]: 319
Assign rand_sets[63]: 1846  LLC: 2048
rand_sets[63]: 1846
 CLEAN-RRIP-POLICY-1: 2-2-1-3-2-3-0-2- CLEAN-RRIP-POLICY-2: 2-2-1-3-2-3-0-2-
 DIRTY-RRIP-POLICY-1: 2-2-0-3-1-3-0-2- DIRTY-RRIP-POLICY-2: 2-2-0-3-1-3-0-2-
 PSEL width: 10
Heartbeat CPU 0 instructions: 10000002 cycles: 5480930 heartbeat IPC: 1.82451 cumulative IPC: 1.82451 (Simulation time: 0 hr 0 min 13 sec) 
Heartbeat CPU 0 instructions: 20000000 cycles: 10913520 heartbeat IPC: 1.84074 cumulative IPC: 1.83259 (Simulation time: 0 hr 0 min 27 sec) 
Heartbeat CPU 0 instructions: 30000000 cycles: 16447419 heartbeat IPC: 1.80704 cumulative IPC: 1.82399 (Simulation time: 0 hr 0 min 40 sec) 
Heartbeat CPU 0 instructions: 40000000 cycles: 21898255 heartbeat IPC: 1.83458 cumulative IPC: 1.82663 (Simulation time: 0 hr 0 min 54 sec) 
Heartbeat CPU 0 instructions: 50000000 cycles: 27400209 heartbeat IPC: 1.81754 cumulative IPC: 1.8248 (Simulation time: 0 hr 1 min 7 sec) 
Heartbeat CPU 0 instructions: 60000000 cycles: 32779053 heartbeat IPC: 1.85914 cumulative IPC: 1.83044 (Simulation time: 0 hr 1 min 21 sec) 
Heartbeat CPU 0 instructions: 70000001 cycles: 38335326 heartbeat IPC: 1.79977 cumulative IPC: 1.82599 (Simulation time: 0 hr 1 min 34 sec) 
Heartbeat CPU 0 instructions: 80000000 cycles: 43795496 heartbeat IPC: 1.83144 cumulative IPC: 1.82667 (Simulation time: 0 hr 1 min 48 sec) 
Heartbeat CPU 0 instructions: 90000000 cycles: 49242090 heartbeat IPC: 1.83601 cumulative IPC: 1.8277 (Simulation time: 0 hr 2 min 2 sec) 
Heartbeat CPU 0 instructions: 100000000 cycles: 54787146 heartbeat IPC: 1.80341 cumulative IPC: 1.82525 (Simulation time: 0 hr 2 min 15 sec) 

Warmup complete CPU 0 instructions: 100000002 cycles: 54787147 (Simulation time: 0 hr 2 min 15 sec) 

Heartbeat CPU 0 instructions: 110000001 cycles: 69148051 heartbeat IPC: 0.696335 cumulative IPC: 0.696335 (Simulation time: 0 hr 2 min 34 sec) 
Heartbeat CPU 0 instructions: 120000000 cycles: 84113567 heartbeat IPC: 0.668203 cumulative IPC: 0.681979 (Simulation time: 0 hr 2 min 54 sec) 
Heartbeat CPU 0 instructions: 130000000 cycles: 98585151 heartbeat IPC: 0.691009 cumulative IPC: 0.684963 (Simulation time: 0 hr 3 min 14 sec) 
Heartbeat CPU 0 instructions: 140000000 cycles: 112911790 heartbeat IPC: 0.698 cumulative IPC: 0.688176 (Simulation time: 0 hr 3 min 33 sec) 
Heartbeat CPU 0 instructions: 150000000 cycles: 127574351 heartbeat IPC: 0.682009 cumulative IPC: 0.686934 (Simulation time: 0 hr 3 min 53 sec) 
Heartbeat CPU 0 instructions: 160000000 cycles: 142624002 heartbeat IPC: 0.664467 cumulative IPC: 0.683085 (Simulation time: 0 hr 4 min 12 sec) 
Heartbeat CPU 0 instructions: 170000001 cycles: 157457768 heartbeat IPC: 0.674138 cumulative IPC: 0.681792 (Simulation time: 0 hr 4 min 31 sec) 
Heartbeat CPU 0 instructions: 180000000 cycles: 172326507 heartbeat IPC: 0.672552 cumulative IPC: 0.680623 (Simulation time: 0 hr 4 min 51 sec) 
Heartbeat CPU 0 instructions: 190000002 cycles: 186764955 heartbeat IPC: 0.692595 cumulative IPC: 0.681933 (Simulation time: 0 hr 5 min 11 sec) 
Heartbeat CPU 0 instructions: 200000000 cycles: 201107529 heartbeat IPC: 0.697225 cumulative IPC: 0.683432 (Simulation time: 0 hr 5 min 30 sec) 
Heartbeat CPU 0 instructions: 210000003 cycles: 215694759 heartbeat IPC: 0.685531 cumulative IPC: 0.683622 (Simulation time: 0 hr 5 min 50 sec) 
Heartbeat CPU 0 instructions: 220000000 cycles: 230349215 heartbeat IPC: 0.682386 cumulative IPC: 0.683519 (Simulation time: 0 hr 6 min 9 sec) 
Heartbeat CPU 0 instructions: 230000001 cycles: 245401057 heartbeat IPC: 0.664371 cumulative IPC: 0.682007 (Simulation time: 0 hr 6 min 29 sec) 
Heartbeat CPU 0 instructions: 240000000 cycles: 260277327 heartbeat IPC: 0.672211 cumulative IPC: 0.681298 (Simulation time: 0 hr 6 min 49 sec) 
Heartbeat CPU 0 instructions: 250000003 cycles: 275059787 heartbeat IPC: 0.676478 cumulative IPC: 0.680974 (Simulation time: 0 hr 7 min 8 sec) 
Heartbeat CPU 0 instructions: 260000000 cycles: 290489950 heartbeat IPC: 0.648081 cumulative IPC: 0.678821 (Simulation time: 0 hr 7 min 28 sec) 
Heartbeat CPU 0 instructions: 270000003 cycles: 305064250 heartbeat IPC: 0.68614 cumulative IPC: 0.679247 (Simulation time: 0 hr 7 min 48 sec) 
Heartbeat CPU 0 instructions: 280000000 cycles: 319484836 heartbeat IPC: 0.693453 cumulative IPC: 0.680021 (Simulation time: 0 hr 8 min 7 sec) 
Heartbeat CPU 0 instructions: 290000002 cycles: 333894781 heartbeat IPC: 0.693965 cumulative IPC: 0.680741 (Simulation time: 0 hr 8 min 27 sec) 
Heartbeat CPU 0 instructions: 300000000 cycles: 349258079 heartbeat IPC: 0.650902 cumulative IPC: 0.679184 (Simulation time: 0 hr 8 min 47 sec) 
Heartbeat CPU 0 instructions: 310000000 cycles: 364176274 heartbeat IPC: 0.670322 cumulative IPC: 0.678757 (Simulation time: 0 hr 9 min 6 sec) 
Heartbeat CPU 0 instructions: 320000000 cycles: 378943584 heartbeat IPC: 0.677171 cumulative IPC: 0.678685 (Simulation time: 0 hr 9 min 25 sec) 
Heartbeat CPU 0 instructions: 330000000 cycles: 394652234 heartbeat IPC: 0.636592 cumulative IPC: 0.676739 (Simulation time: 0 hr 9 min 45 sec) 
Heartbeat CPU 0 instructions: 340000000 cycles: 409261952 heartbeat IPC: 0.684476 cumulative IPC: 0.677058 (Simulation time: 0 hr 10 min 5 sec) 
Heartbeat CPU 0 instructions: 350000000 cycles: 423830851 heartbeat IPC: 0.686394 cumulative IPC: 0.677427 (Simulation time: 0 hr 10 min 24 sec) 
Heartbeat CPU 0 instructions: 360000000 cycles: 438453184 heartbeat IPC: 0.683885 cumulative IPC: 0.677673 (Simulation time: 0 hr 10 min 43 sec) 
Heartbeat CPU 0 instructions: 370000002 cycles: 453825993 heartbeat IPC: 0.650499 cumulative IPC: 0.676626 (Simulation time: 0 hr 11 min 3 sec) 
Heartbeat CPU 0 instructions: 380000000 cycles: 468627384 heartbeat IPC: 0.675612 cumulative IPC: 0.67659 (Simulation time: 0 hr 11 min 23 sec) 
Heartbeat CPU 0 instructions: 390000003 cycles: 483522187 heartbeat IPC: 0.671375 cumulative IPC: 0.676408 (Simulation time: 0 hr 11 min 42 sec) 
Heartbeat CPU 0 instructions: 400000000 cycles: 499314292 heartbeat IPC: 0.633228 cumulative IPC: 0.674874 (Simulation time: 0 hr 12 min 2 sec) 
Heartbeat CPU 0 instructions: 410000001 cycles: 514280002 heartbeat IPC: 0.668194 cumulative IPC: 0.674657 (Simulation time: 0 hr 12 min 21 sec) 
Heartbeat CPU 0 instructions: 420000000 cycles: 528984023 heartbeat IPC: 0.680086 cumulative IPC: 0.674825 (Simulation time: 0 hr 12 min 40 sec) 
Heartbeat CPU 0 instructions: 430000000 cycles: 544340643 heartbeat IPC: 0.651185 cumulative IPC: 0.674084 (Simulation time: 0 hr 13 min 0 sec) 
Heartbeat CPU 0 instructions: 440000000 cycles: 559130443 heartbeat IPC: 0.676142 cumulative IPC: 0.674144 (Simulation time: 0 hr 13 min 19 sec) 
Heartbeat CPU 0 instructions: 450000000 cycles: 574049568 heartbeat IPC: 0.670281 cumulative IPC: 0.674033 (Simulation time: 0 hr 13 min 38 sec) 
Heartbeat CPU 0 instructions: 460000000 cycles: 589751023 heartbeat IPC: 0.636884 cumulative IPC: 0.672943 (Simulation time: 0 hr 13 min 58 sec) 
Heartbeat CPU 0 instructions: 470000000 cycles: 604782235 heartbeat IPC: 0.665282 cumulative IPC: 0.672733 (Simulation time: 0 hr 14 min 16 sec) 
Heartbeat CPU 0 instructions: 480000000 cycles: 619641302 heartbeat IPC: 0.67299 cumulative IPC: 0.67274 (Simulation time: 0 hr 14 min 36 sec) 
Heartbeat CPU 0 instructions: 490000002 cycles: 634853066 heartbeat IPC: 0.657386 cumulative IPC: 0.672337 (Simulation time: 0 hr 14 min 55 sec) 
Heartbeat CPU 0 instructions: 500000000 cycles: 649693734 heartbeat IPC: 0.673824 cumulative IPC: 0.672374 (Simulation time: 0 hr 15 min 14 sec) 
Heartbeat CPU 0 instructions: 510000001 cycles: 664757694 heartbeat IPC: 0.663836 cumulative IPC: 0.672164 (Simulation time: 0 hr 15 min 33 sec) 
Heartbeat CPU 0 instructions: 520000000 cycles: 680173961 heartbeat IPC: 0.648665 cumulative IPC: 0.671584 (Simulation time: 0 hr 15 min 53 sec) 
Heartbeat CPU 0 instructions: 530000001 cycles: 695547968 heartbeat IPC: 0.650449 cumulative IPC: 0.671077 (Simulation time: 0 hr 16 min 12 sec) 
Heartbeat CPU 0 instructions: 540000000 cycles: 710098730 heartbeat IPC: 0.687249 cumulative IPC: 0.671436 (Simulation time: 0 hr 16 min 31 sec) 
Heartbeat CPU 0 instructions: 550000001 cycles: 725320622 heartbeat IPC: 0.656949 cumulative IPC: 0.671107 (Simulation time: 0 hr 16 min 50 sec) 
Heartbeat CPU 0 instructions: 560000000 cycles: 740091927 heartbeat IPC: 0.676988 cumulative IPC: 0.671234 (Simulation time: 0 hr 17 min 9 sec) 
Heartbeat CPU 0 instructions: 570000002 cycles: 755191111 heartbeat IPC: 0.662288 cumulative IPC: 0.671041 (Simulation time: 0 hr 17 min 27 sec) 
Heartbeat CPU 0 instructions: 580000000 cycles: 770158537 heartbeat IPC: 0.668117 cumulative IPC: 0.67098 (Simulation time: 0 hr 17 min 46 sec) 
Heartbeat CPU 0 instructions: 590000001 cycles: 785118115 heartbeat IPC: 0.668468 cumulative IPC: 0.670929 (Simulation time: 0 hr 18 min 5 sec) 
Heartbeat CPU 0 instructions: 600000000 cycles: 799747729 heartbeat IPC: 0.683545 cumulative IPC: 0.671176 (Simulation time: 0 hr 18 min 24 sec) 
Finished CPU 0 instructions: 500000000 cycles: 744960590 cumulative IPC: 0.671176 (Simulation time: 0 hr 18 min 24 sec) 

CPU 0 Branch Prediction Accuracy: 93.7783% MPKI: 10.0718
Number of Branches: 80940586 Number of Mispredictions: 5035908
Number of LOAD Instructions: 184238101
Number of LOAD Instructions (ROI): 184238101
Number of STORE Instructions: 33143298
Number of STORE Instructions (ROI): 33143298
Total Destination Memory Operands: 33324321
Total Destination Memory Operands (ROI): 33324321
Total Source Memory Operands: 184238101
Total Source Memory Operands (ROI): 184238101
Number of DEPENDED LOADS: 4461501
Number of DEPENDED LOADS (ROI): 4461501
Number of SQ_ADDED: 33324292
Number of SQ_ADDED (ROI): 33324292
Number of LQ_ADDED: 184867092
Number of LQ_ADDED (ROI): 184867092
Number of Instructions read from trace: 600000256

ChampSim completed all CPUs

Region of Interest Statistics

CPU 0 cumulative IPC: 0.671176 instructions: 500000000 cycles: 744960590
ITLB TOTAL     ACCESS:   77745195  HIT:   77745195  MISS:          0
ITLB LOAD      ACCESS:   77745195  HIT:   77745195  MISS:          0
ITLB RFO       ACCESS:          0  HIT:          0  MISS:          0
ITLB PREFETCH  ACCESS:          0  HIT:          0  MISS:          0
ITLB WRITEBACK ACCESS:          0  HIT:          0  MISS:          0
ITLB PREFETCH  REQUESTED:          0  ISSUED:          0  USEFUL:          0  USELESS:          0
ITLB TOTAL MSHR MERGED:          0
ITLB LOAD MSHR MERGED:          0
ITLB RFO MSHR MERGED:          0
ITLB PREFETCH MSHR MERGED:          0
ITLB WRITEBACK MSHR MERGED:          0
ITLB TOTAL ACCESSES:   77745195 HITS:   77745195 MISSES:          0
ITLB LOAD ACCESSES:   77745195 HITS:   77745195 MISSES:          0
ITLB RFO ACCESSES:          0 HITS:          0 MISSES:          0
ITLB PREFETCH ACCESSES:          0 HITS:          0 MISSES:          0
ITLB WRITEBACK ACCESSES:          0 HITS:          0 MISSES:          0
ITLB RQ ACCESS:  500000245
ITLB RQ TO_CACHE:   77745195
ITLB RQ MERGED:  422255050
ITLB RQ FORWARD:          0
ITLB WQ ACCESS:          0
ITLB WQ TO_CACHE:          0
ITLB WQ MERGED:          0
ITLB WQ FORWARD:          0
DTLB TOTAL     ACCESS:   88436474  HIT:   87299624  MISS:    1136850
DTLB LOAD      ACCESS:   66310026  HIT:   65177416  MISS:    1132610
DTLB RFO       ACCESS:   22126448  HIT:   22122208  MISS:       4240
DTLB PREFETCH  ACCESS:          0  HIT:          0  MISS:          0
DTLB WRITEBACK ACCESS:          0  HIT:          0  MISS:          0
DTLB PREFETCH  REQUESTED:          0  ISSUED:          0  USEFUL:          0  USELESS:          0
DTLB TOTAL MSHR MERGED:     135528
DTLB LOAD MSHR MERGED:     133710
DTLB RFO MSHR MERGED:       1818
DTLB PREFETCH MSHR MERGED:          0
DTLB WRITEBACK MSHR MERGED:          0
DTLB TOTAL ACCESSES:   88572002 HITS:   87299624 MISSES:    1272378
DTLB LOAD ACCESSES:   66443736 HITS:   65177416 MISSES:    1266320
DTLB RFO ACCESSES:   22128266 HITS:   22122208 MISSES:       6058
DTLB PREFETCH ACCESSES:          0 HITS:          0 MISSES:          0
DTLB WRITEBACK ACCESSES:          0 HITS:          0 MISSES:          0
DTLB RQ ACCESS:  177579208
DTLB RQ TO_CACHE:   88572002
DTLB RQ MERGED:   89007206
DTLB RQ FORWARD:          0
DTLB WQ ACCESS:          0
DTLB WQ TO_CACHE:          0
DTLB WQ MERGED:          0
DTLB WQ FORWARD:          0
L1D TOTAL     ACCESS:  142103183  HIT:  136544135  MISS:    5559048
L1D LOAD      ACCESS:   61384603  HIT:   58282023  MISS:    3102580
L1D RFO       ACCESS:   27668577  HIT:   27586767  MISS:      81810
L1D PREFETCH  ACCESS:   53050003  HIT:   50675345  MISS:    2374658
L1D WRITEBACK ACCESS:          0  HIT:          0  MISS:          0
L1D PREFETCH  REQUESTED:   61670559  ISSUED:   60752359  USEFUL:     667771  USELESS:    1706892
L1D TOTAL MSHR MERGED:    1176746
L1D LOAD MSHR MERGED:     382904
L1D RFO MSHR MERGED:     164503
L1D PREFETCH MSHR MERGED:     629339
L1D WRITEBACK MSHR MERGED:          0
L1D TOTAL ACCESSES:  143377547 HITS:  136641753 MISSES:    6735794
L1D LOAD ACCESSES:   61670571 HITS:   58282035 MISSES:    3388536
L1D RFO ACCESSES:   27829288 HITS:   27586767 MISSES:     242521
L1D PREFETCH ACCESSES:   53877688 HITS:   50772951 MISSES:    3104737
L1D WRITEBACK ACCESSES:          0 HITS:          0 MISSES:          0
L1D RQ ACCESS:  149746242
L1D RQ TO_CACHE:   61670559
L1D RQ MERGED:   88075671
L1D RQ FORWARD:          0
L1D WQ ACCESS:   27832966
L1D WQ TO_CACHE:   27829288
L1D WQ MERGED:       3678
L1D WQ FORWARD:      97618
L1I TOTAL     ACCESS:   96222615  HIT:   96063349  MISS:     159266
L1I LOAD      ACCESS:   96222615  HIT:   96063349  MISS:     159266
L1I RFO       ACCESS:          0  HIT:          0  MISS:          0
L1I PREFETCH  ACCESS:          0  HIT:          0  MISS:          0
L1I WRITEBACK ACCESS:          0  HIT:          0  MISS:          0
L1I PREFETCH  REQUESTED:          0  ISSUED:          0  USEFUL:          0  USELESS:          0
L1I TOTAL MSHR MERGED:     130188
L1I LOAD MSHR MERGED:     130188
L1I RFO MSHR MERGED:          0
L1I PREFETCH MSHR MERGED:          0
L1I WRITEBACK MSHR MERGED:          0
L1I TOTAL ACCESSES:   96352803 HITS:   96063349 MISSES:     289454
L1I LOAD ACCESSES:   96352803 HITS:   96063349 MISSES:     289454
L1I RFO ACCESSES:          0 HITS:          0 MISSES:          0
L1I PREFETCH ACCESSES:          0 HITS:          0 MISSES:          0
L1I WRITEBACK ACCESSES:          0 HITS:          0 MISSES:          0
L1I RQ ACCESS:  500000245
L1I RQ TO_CACHE:   96352803
L1I RQ MERGED:  403647442
L1I RQ FORWARD:          0
L1I WQ ACCESS:          0
L1I WQ TO_CACHE:          0
L1I WQ MERGED:          0
L1I WQ FORWARD:          0
L2C TOTAL     ACCESS:    5911371  HIT:    3062694  MISS:    2848677
L2C LOAD      ACCESS:    3164888  HIT:    1583159  MISS:    1581729
L2C RFO       ACCESS:      77942  HIT:      45087  MISS:      32855
L2C PREFETCH  ACCESS:    2525011  HIT:    1296502  MISS:    1228509
L2C WRITEBACK ACCESS:     143530  HIT:     137946  MISS:       5584
L2C PREFETCH  REQUESTED:      52724  ISSUED:      52724  USEFUL:      18825  USELESS:    1209724
L2C TOTAL MSHR MERGED:       2180
L2C LOAD MSHR MERGED:        784
L2C RFO MSHR MERGED:          0
L2C PREFETCH MSHR MERGED:       1396
L2C WRITEBACK MSHR MERGED:          0
L2C TOTAL ACCESSES:    5913642 HITS:    3062780 MISSES:    2850862
L2C LOAD ACCESSES:    3164898 HITS:    1583169 MISSES:    1581729
L2C RFO ACCESSES:      78018 HITS:      45163 MISSES:      32855
L2C PREFETCH ACCESSES:    2527196 HITS:    1296502 MISSES:    1230694
L2C WRITEBACK ACCESSES:     143530 HITS:     137946 MISSES:       5584
L2C RQ ACCESS:    3242916
L2C RQ TO_CACHE:    3242830
L2C RQ MERGED:          0
L2C RQ FORWARD:          0
L2C WQ ACCESS:     143530
L2C WQ TO_CACHE:     143530
L2C WQ MERGED:          0
L2C WQ FORWARD:         86
LLC TOTAL     ACCESS:    2892633  HIT:    1899163  MISS:     993470
LLC LOAD      ACCESS:    1580945  HIT:    1150703  MISS:     430242
LLC RFO       ACCESS:      32845  HIT:      32121  MISS:        724
LLC PREFETCH  ACCESS:    1229298  HIT:     668333  MISS:     560965
LLC WRITEBACK ACCESS:      49545  HIT:      48006  MISS:       1539
LLC PREFETCH  REQUESTED:          0  ISSUED:          0  USEFUL:       3163  USELESS:     557726
LLC TOTAL MSHR MERGED:          0
LLC LOAD MSHR MERGED:          0
LLC RFO MSHR MERGED:          0
LLC PREFETCH MSHR MERGED:          0
LLC WRITEBACK MSHR MERGED:          0
LLC TOTAL ACCESSES:    2892643 HITS:    1899173 MISSES:     993470
LLC LOAD ACCESSES:    1580945 HITS:    1150703 MISSES:     430242
LLC RFO ACCESSES:      32855 HITS:      32131 MISSES:        724
LLC PREFETCH ACCESSES:    1229298 HITS:     668333 MISSES:     560965
LLC WRITEBACK ACCESSES:      49545 HITS:      48006 MISSES:       1539
LLC 0 RQ ACCESS:    1613800
LLC 0 RQ TO_CACHE:    1613790
LLC 0 RQ MERGED:          0
LLC 0 RQ FORWARD:          0
LLC WQ ACCESS:      49545
LLC WQ TO_CACHE:      49545
LLC WQ MERGED:          0
LLC WQ FORWARD:         10
Major fault: 0 Minor fault: 8460
CPU 0 L1D next line prefetcher final stats
CPU 0 L2C PC-based stride prefetcher final stats
All Misses: 1216580
All Hits: 2212648
SD Algo Stats - Switches: 0 SRR-Repls: 500572 BRR-Repls: 0

DRAM Statistics
 CHANNEL 0
 RQ ROW_BUFFER_HIT:     331562  ROW_BUFFER_MISS:     659709
 DBUS_CONGESTED:     314650
 WQ ROW_BUFFER_HIT:        344  ROW_BUFFER_MISS:       1451  FULL:          0

 AVG_CONGESTED_CYCLE: 12
LOADS RETIRED: 153532848
INSTR RETIRED: 500000000
