
*** ChampSim Multicore Out-of-Order Simulator ***

Warmup Instructions: 100000000
Simulation Instructions: 500000000
Number of CPUs: 1
LLC sets: 2048
LLC ways: 16
Clean RRIP Policies: 1213230212132302 Dirty RRIP Policies: 2203130222031302 PSEL Width: 10 Track Set: 4294967295 PSEL Mask: 1 Demote Mask: 1240100012401000DS Algo: 0Window size: 0
Off-chip DRAM Size: 4096 MB Channels: 1 Width: 64-bit Data Rate: 1600 MT/s

CPU 0 runs /mnt/beegfs/iconst01/spec2017/Lbm.trace.gz
NOT SORTED
TRACE STRING: /mnt/beegfs/iconst01/spec2017/Lbm.trace.gz
SORTED
TRACE STRING: /mnt/beegfs/iconst01/spec2017/Lbm.trace.gz
INITIAL
TRACE STRING: /mnt/beegfs/iconst01/spec2017/Lbm.trace.gz

champsim_seed used: 283

CPU 0 L1D next line prefetcher
CPU 0 L2C IP-based stride prefetcher
Initialize DRRIP state
Assign rand_sets[0]: 454  LLC: 2048
rand_sets[0]: 454
Assign rand_sets[1]: 1662  LLC: 2048
rand_sets[1]: 1662
Assign rand_sets[2]: 1921  LLC: 2048
rand_sets[2]: 1921
Assign rand_sets[3]: 1131  LLC: 2048
rand_sets[3]: 1131
Assign rand_sets[4]: 331  LLC: 2048
rand_sets[4]: 331
Assign rand_sets[5]: 1531  LLC: 2048
rand_sets[5]: 1531
Assign rand_sets[6]: 482  LLC: 2048
rand_sets[6]: 482
Assign rand_sets[7]: 1275  LLC: 2048
rand_sets[7]: 1275
Assign rand_sets[8]: 1876  LLC: 2048
rand_sets[8]: 1876
Assign rand_sets[9]: 2038  LLC: 2048
rand_sets[9]: 2038
Assign rand_sets[10]: 701  LLC: 2048
rand_sets[10]: 701
Assign rand_sets[11]: 479  LLC: 2048
rand_sets[11]: 479
Assign rand_sets[12]: 892  LLC: 2048
rand_sets[12]: 892
Assign rand_sets[13]: 1820  LLC: 2048
rand_sets[13]: 1820
Assign rand_sets[14]: 1505  LLC: 2048
rand_sets[14]: 1505
Assign rand_sets[15]: 1159  LLC: 2048
rand_sets[15]: 1159
Assign rand_sets[16]: 513  LLC: 2048
rand_sets[16]: 513
Assign rand_sets[17]: 703  LLC: 2048
rand_sets[17]: 703
Assign rand_sets[18]: 561  LLC: 2048
rand_sets[18]: 561
Assign rand_sets[19]: 990  LLC: 2048
rand_sets[19]: 990
Assign rand_sets[20]: 342  LLC: 2048
rand_sets[20]: 342
Assign rand_sets[21]: 882  LLC: 2048
rand_sets[21]: 882
Assign rand_sets[22]: 15  LLC: 2048
rand_sets[22]: 15
Assign rand_sets[23]: 71  LLC: 2048
rand_sets[23]: 71
Assign rand_sets[24]: 1127  LLC: 2048
rand_sets[24]: 1127
Assign rand_sets[25]: 1382  LLC: 2048
rand_sets[25]: 1382
Assign rand_sets[26]: 647  LLC: 2048
rand_sets[26]: 647
Assign rand_sets[27]: 857  LLC: 2048
rand_sets[27]: 857
Assign rand_sets[28]: 1450  LLC: 2048
rand_sets[28]: 1450
Assign rand_sets[29]: 1160  LLC: 2048
rand_sets[29]: 1160
Assign rand_sets[30]: 1852  LLC: 2048
rand_sets[30]: 1852
Assign rand_sets[31]: 1881  LLC: 2048
rand_sets[31]: 1881
Assign rand_sets[32]: 1770  LLC: 2048
rand_sets[32]: 1770
Assign rand_sets[33]: 1622  LLC: 2048
rand_sets[33]: 1622
Assign rand_sets[34]: 275  LLC: 2048
rand_sets[34]: 275
Assign rand_sets[35]: 635  LLC: 2048
rand_sets[35]: 635
Assign rand_sets[36]: 466  LLC: 2048
rand_sets[36]: 466
Assign rand_sets[37]: 1413  LLC: 2048
rand_sets[37]: 1413
Assign rand_sets[38]: 417  LLC: 2048
rand_sets[38]: 417
Assign rand_sets[39]: 472  LLC: 2048
rand_sets[39]: 472
Assign rand_sets[40]: 1340  LLC: 2048
rand_sets[40]: 1340
Assign rand_sets[41]: 852  LLC: 2048
rand_sets[41]: 852
Assign rand_sets[42]: 1365  LLC: 2048
rand_sets[42]: 1365
Assign rand_sets[43]: 47  LLC: 2048
rand_sets[43]: 47
Assign rand_sets[44]: 823  LLC: 2048
rand_sets[44]: 823
Assign rand_sets[45]: 686  LLC: 2048
rand_sets[45]: 686
Assign rand_sets[46]: 1637  LLC: 2048
rand_sets[46]: 1637
Assign rand_sets[47]: 1115  LLC: 2048
rand_sets[47]: 1115
Assign rand_sets[48]: 986  LLC: 2048
rand_sets[48]: 986
Assign rand_sets[49]: 258  LLC: 2048
rand_sets[49]: 258
Assign rand_sets[50]: 633  LLC: 2048
rand_sets[50]: 633
Assign rand_sets[51]: 920  LLC: 2048
rand_sets[51]: 920
Assign rand_sets[52]: 204  LLC: 2048
rand_sets[52]: 204
Assign rand_sets[53]: 227  LLC: 2048
rand_sets[53]: 227
Assign rand_sets[54]: 1818  LLC: 2048
rand_sets[54]: 1818
Assign rand_sets[55]: 886  LLC: 2048
rand_sets[55]: 886
Assign rand_sets[56]: 1422  LLC: 2048
rand_sets[56]: 1422
Assign rand_sets[57]: 607  LLC: 2048
rand_sets[57]: 607
Assign rand_sets[58]: 217  LLC: 2048
rand_sets[58]: 217
Assign rand_sets[59]: 1945  LLC: 2048
rand_sets[59]: 1945
Assign rand_sets[60]: 143  LLC: 2048
rand_sets[60]: 143
Assign rand_sets[61]: 1311  LLC: 2048
rand_sets[61]: 1311
Assign rand_sets[62]: 319  LLC: 2048
rand_sets[62]: 319
Assign rand_sets[63]: 1846  LLC: 2048
rand_sets[63]: 1846
 CLEAN-RRIP-POLICY-1: 1-2-1-3-2-3-0-2- CLEAN-RRIP-POLICY-2: 1-2-1-3-2-3-0-2-
 DIRTY-RRIP-POLICY-1: 2-2-0-3-1-3-0-2- DIRTY-RRIP-POLICY-2: 2-2-0-3-1-3-0-2-
 PSEL width: 10
Heartbeat CPU 0 instructions: 10000000 cycles: 4321556 heartbeat IPC: 2.31398 cumulative IPC: 2.31398 (Simulation time: 0 hr 0 min 17 sec) 
Heartbeat CPU 0 instructions: 20000000 cycles: 8643591 heartbeat IPC: 2.31372 cumulative IPC: 2.31385 (Simulation time: 0 hr 0 min 35 sec) 
Heartbeat CPU 0 instructions: 30000000 cycles: 12965386 heartbeat IPC: 2.31385 cumulative IPC: 2.31385 (Simulation time: 0 hr 0 min 52 sec) 
Heartbeat CPU 0 instructions: 40000000 cycles: 17291380 heartbeat IPC: 2.31161 cumulative IPC: 2.31329 (Simulation time: 0 hr 1 min 10 sec) 
Heartbeat CPU 0 instructions: 50000000 cycles: 21613198 heartbeat IPC: 2.31384 cumulative IPC: 2.3134 (Simulation time: 0 hr 1 min 27 sec) 
Heartbeat CPU 0 instructions: 60000000 cycles: 25935053 heartbeat IPC: 2.31382 cumulative IPC: 2.31347 (Simulation time: 0 hr 1 min 44 sec) 
Heartbeat CPU 0 instructions: 70000000 cycles: 30256458 heartbeat IPC: 2.31406 cumulative IPC: 2.31356 (Simulation time: 0 hr 2 min 2 sec) 
Heartbeat CPU 0 instructions: 80000000 cycles: 34582677 heartbeat IPC: 2.31149 cumulative IPC: 2.3133 (Simulation time: 0 hr 2 min 20 sec) 
Heartbeat CPU 0 instructions: 90000003 cycles: 38904760 heartbeat IPC: 2.3137 cumulative IPC: 2.31334 (Simulation time: 0 hr 2 min 37 sec) 
Heartbeat CPU 0 instructions: 100000000 cycles: 43226181 heartbeat IPC: 2.31405 cumulative IPC: 2.31341 (Simulation time: 0 hr 2 min 55 sec) 

Warmup complete CPU 0 instructions: 100000001 cycles: 43226182 (Simulation time: 0 hr 2 min 55 sec) 

Heartbeat CPU 0 instructions: 110000000 cycles: 57445195 heartbeat IPC: 0.703284 cumulative IPC: 0.703284 (Simulation time: 0 hr 3 min 20 sec) 
Heartbeat CPU 0 instructions: 120000000 cycles: 71708542 heartbeat IPC: 0.701098 cumulative IPC: 0.702189 (Simulation time: 0 hr 3 min 45 sec) 
Heartbeat CPU 0 instructions: 130000000 cycles: 85862324 heartbeat IPC: 0.706525 cumulative IPC: 0.703628 (Simulation time: 0 hr 4 min 10 sec) 
Heartbeat CPU 0 instructions: 140000000 cycles: 99844684 heartbeat IPC: 0.715187 cumulative IPC: 0.706483 (Simulation time: 0 hr 4 min 34 sec) 
Heartbeat CPU 0 instructions: 150000003 cycles: 113327990 heartbeat IPC: 0.741658 cumulative IPC: 0.713248 (Simulation time: 0 hr 4 min 59 sec) 
Heartbeat CPU 0 instructions: 160000000 cycles: 127110014 heartbeat IPC: 0.725583 cumulative IPC: 0.715275 (Simulation time: 0 hr 5 min 24 sec) 
Heartbeat CPU 0 instructions: 170000002 cycles: 141421928 heartbeat IPC: 0.698719 cumulative IPC: 0.712862 (Simulation time: 0 hr 5 min 49 sec) 
Heartbeat CPU 0 instructions: 180000000 cycles: 155201139 heartbeat IPC: 0.725731 cumulative IPC: 0.714445 (Simulation time: 0 hr 6 min 13 sec) 
Heartbeat CPU 0 instructions: 190000003 cycles: 171762444 heartbeat IPC: 0.603817 cumulative IPC: 0.700192 (Simulation time: 0 hr 6 min 41 sec) 
Heartbeat CPU 0 instructions: 200000000 cycles: 192005172 heartbeat IPC: 0.494004 cumulative IPC: 0.672138 (Simulation time: 0 hr 7 min 11 sec) 
Heartbeat CPU 0 instructions: 210000001 cycles: 206001187 heartbeat IPC: 0.714489 cumulative IPC: 0.675779 (Simulation time: 0 hr 7 min 36 sec) 
Heartbeat CPU 0 instructions: 220000000 cycles: 219721368 heartbeat IPC: 0.728853 cumulative IPC: 0.679905 (Simulation time: 0 hr 8 min 1 sec) 
Heartbeat CPU 0 instructions: 230000001 cycles: 233597102 heartbeat IPC: 0.720683 cumulative IPC: 0.682877 (Simulation time: 0 hr 8 min 26 sec) 
Heartbeat CPU 0 instructions: 240000000 cycles: 247702113 heartbeat IPC: 0.708968 cumulative IPC: 0.684677 (Simulation time: 0 hr 8 min 50 sec) 
Heartbeat CPU 0 instructions: 250000000 cycles: 262146792 heartbeat IPC: 0.692296 cumulative IPC: 0.68518 (Simulation time: 0 hr 9 min 16 sec) 
Heartbeat CPU 0 instructions: 260000000 cycles: 276816867 heartbeat IPC: 0.68166 cumulative IPC: 0.684959 (Simulation time: 0 hr 9 min 41 sec) 
Heartbeat CPU 0 instructions: 270000002 cycles: 291413881 heartbeat IPC: 0.685072 cumulative IPC: 0.684965 (Simulation time: 0 hr 10 min 7 sec) 
Heartbeat CPU 0 instructions: 280000000 cycles: 306166013 heartbeat IPC: 0.677868 cumulative IPC: 0.684567 (Simulation time: 0 hr 10 min 32 sec) 
Heartbeat CPU 0 instructions: 290000003 cycles: 321527633 heartbeat IPC: 0.650973 cumulative IPC: 0.682713 (Simulation time: 0 hr 10 min 58 sec) 
Heartbeat CPU 0 instructions: 300000000 cycles: 336474899 heartbeat IPC: 0.669018 cumulative IPC: 0.682015 (Simulation time: 0 hr 11 min 24 sec) 
Heartbeat CPU 0 instructions: 310000000 cycles: 352215485 heartbeat IPC: 0.6353 cumulative IPC: 0.679635 (Simulation time: 0 hr 11 min 50 sec) 
Heartbeat CPU 0 instructions: 320000000 cycles: 367782424 heartbeat IPC: 0.642387 cumulative IPC: 0.677849 (Simulation time: 0 hr 12 min 16 sec) 
Heartbeat CPU 0 instructions: 330000002 cycles: 382675626 heartbeat IPC: 0.671447 cumulative IPC: 0.677568 (Simulation time: 0 hr 12 min 41 sec) 
Heartbeat CPU 0 instructions: 340000000 cycles: 398657189 heartbeat IPC: 0.625721 cumulative IPC: 0.675237 (Simulation time: 0 hr 13 min 7 sec) 
Heartbeat CPU 0 instructions: 350000001 cycles: 413022216 heartbeat IPC: 0.696135 cumulative IPC: 0.676048 (Simulation time: 0 hr 13 min 32 sec) 
Heartbeat CPU 0 instructions: 360000000 cycles: 428208248 heartbeat IPC: 0.6585 cumulative IPC: 0.675356 (Simulation time: 0 hr 13 min 57 sec) 
Heartbeat CPU 0 instructions: 370000000 cycles: 442711900 heartbeat IPC: 0.689481 cumulative IPC: 0.675869 (Simulation time: 0 hr 14 min 22 sec) 
Heartbeat CPU 0 instructions: 380000000 cycles: 457582339 heartbeat IPC: 0.672475 cumulative IPC: 0.675747 (Simulation time: 0 hr 14 min 47 sec) 
Heartbeat CPU 0 instructions: 390000000 cycles: 471818700 heartbeat IPC: 0.702427 cumulative IPC: 0.676633 (Simulation time: 0 hr 15 min 12 sec) 
Heartbeat CPU 0 instructions: 400000000 cycles: 486002343 heartbeat IPC: 0.705037 cumulative IPC: 0.677543 (Simulation time: 0 hr 15 min 37 sec) 
Heartbeat CPU 0 instructions: 410000000 cycles: 499784439 heartbeat IPC: 0.725579 cumulative IPC: 0.678993 (Simulation time: 0 hr 16 min 1 sec) 
Heartbeat CPU 0 instructions: 420000000 cycles: 513781003 heartbeat IPC: 0.714461 cumulative IPC: 0.680048 (Simulation time: 0 hr 16 min 25 sec) 
Heartbeat CPU 0 instructions: 430000002 cycles: 527137723 heartbeat IPC: 0.748687 cumulative IPC: 0.681943 (Simulation time: 0 hr 16 min 49 sec) 
Heartbeat CPU 0 instructions: 440000000 cycles: 540607239 heartbeat IPC: 0.742417 cumulative IPC: 0.683581 (Simulation time: 0 hr 17 min 13 sec) 
Heartbeat CPU 0 instructions: 450000000 cycles: 554336971 heartbeat IPC: 0.728346 cumulative IPC: 0.684783 (Simulation time: 0 hr 17 min 37 sec) 
Heartbeat CPU 0 instructions: 460000000 cycles: 568934251 heartbeat IPC: 0.685059 cumulative IPC: 0.684791 (Simulation time: 0 hr 18 min 2 sec) 
Heartbeat CPU 0 instructions: 470000000 cycles: 582816691 heartbeat IPC: 0.720334 cumulative IPC: 0.685705 (Simulation time: 0 hr 18 min 26 sec) 
Heartbeat CPU 0 instructions: 480000000 cycles: 596734813 heartbeat IPC: 0.718488 cumulative IPC: 0.68653 (Simulation time: 0 hr 18 min 51 sec) 
Heartbeat CPU 0 instructions: 490000001 cycles: 611028837 heartbeat IPC: 0.699593 cumulative IPC: 0.686858 (Simulation time: 0 hr 19 min 15 sec) 
Heartbeat CPU 0 instructions: 500000000 cycles: 625075206 heartbeat IPC: 0.711928 cumulative IPC: 0.687464 (Simulation time: 0 hr 19 min 40 sec) 
Heartbeat CPU 0 instructions: 510000002 cycles: 638924617 heartbeat IPC: 0.722053 cumulative IPC: 0.688268 (Simulation time: 0 hr 20 min 4 sec) 
Heartbeat CPU 0 instructions: 520000000 cycles: 652644822 heartbeat IPC: 0.728852 cumulative IPC: 0.689181 (Simulation time: 0 hr 20 min 28 sec) 
Heartbeat CPU 0 instructions: 530000001 cycles: 666515249 heartbeat IPC: 0.720958 cumulative IPC: 0.689889 (Simulation time: 0 hr 20 min 52 sec) 
Heartbeat CPU 0 instructions: 540000000 cycles: 680739629 heartbeat IPC: 0.703018 cumulative IPC: 0.690181 (Simulation time: 0 hr 21 min 17 sec) 
Heartbeat CPU 0 instructions: 550000003 cycles: 694389627 heartbeat IPC: 0.732601 cumulative IPC: 0.691071 (Simulation time: 0 hr 21 min 41 sec) 
Heartbeat CPU 0 instructions: 560000000 cycles: 708871841 heartbeat IPC: 0.690502 cumulative IPC: 0.691058 (Simulation time: 0 hr 22 min 6 sec) 
Heartbeat CPU 0 instructions: 570000001 cycles: 722763901 heartbeat IPC: 0.719836 cumulative IPC: 0.691647 (Simulation time: 0 hr 22 min 30 sec) 
Heartbeat CPU 0 instructions: 580000000 cycles: 736140272 heartbeat IPC: 0.747587 cumulative IPC: 0.692727 (Simulation time: 0 hr 22 min 54 sec) 
Heartbeat CPU 0 instructions: 590000003 cycles: 749089897 heartbeat IPC: 0.772223 cumulative IPC: 0.694185 (Simulation time: 0 hr 23 min 18 sec) 
Heartbeat CPU 0 instructions: 600000000 cycles: 762825433 heartbeat IPC: 0.728038 cumulative IPC: 0.694831 (Simulation time: 0 hr 23 min 42 sec) 
Finished CPU 0 instructions: 500000000 cycles: 719599259 cumulative IPC: 0.694831 (Simulation time: 0 hr 23 min 42 sec) 

CPU 0 Branch Prediction Accuracy: 99.5915% MPKI: 0.037126
Number of Branches: 4544106 Number of Mispredictions: 18563
Number of LOAD Instructions: 149787067
Number of LOAD Instructions (ROI): 149787067
Number of STORE Instructions: 77239062
Number of STORE Instructions (ROI): 77239062
Total Destination Memory Operands: 77239062
Total Destination Memory Operands (ROI): 77239062
Total Source Memory Operands: 149787067
Total Source Memory Operands (ROI): 149787067
Number of DEPENDED LOADS: 19245832
Number of DEPENDED LOADS (ROI): 19245832
Number of SQ_ADDED: 77239036
Number of SQ_ADDED (ROI): 77239036
Number of LQ_ADDED: 149787020
Number of LQ_ADDED (ROI): 149787020
Number of Instructions read from trace: 600000256

ChampSim completed all CPUs

Region of Interest Statistics

CPU 0 cumulative IPC: 0.694831 instructions: 500000000 cycles: 719599259
ITLB TOTAL     ACCESS:   86453625  HIT:   86453624  MISS:          1
ITLB LOAD      ACCESS:   86453625  HIT:   86453624  MISS:          1
ITLB RFO       ACCESS:          0  HIT:          0  MISS:          0
ITLB PREFETCH  ACCESS:          0  HIT:          0  MISS:          0
ITLB WRITEBACK ACCESS:          0  HIT:          0  MISS:          0
ITLB PREFETCH  REQUESTED:          0  ISSUED:          0  USEFUL:          0  USELESS:          0
ITLB TOTAL MSHR MERGED:          1
ITLB LOAD MSHR MERGED:          1
ITLB RFO MSHR MERGED:          0
ITLB PREFETCH MSHR MERGED:          0
ITLB WRITEBACK MSHR MERGED:          0
ITLB TOTAL ACCESSES:   86453626 HITS:   86453624 MISSES:          2
ITLB LOAD ACCESSES:   86453626 HITS:   86453624 MISSES:          2
ITLB RFO ACCESSES:          0 HITS:          0 MISSES:          0
ITLB PREFETCH ACCESSES:          0 HITS:          0 MISSES:          0
ITLB WRITEBACK ACCESSES:          0 HITS:          0 MISSES:          0
ITLB RQ ACCESS:  500000002
ITLB RQ TO_CACHE:   86453626
ITLB RQ MERGED:  413546376
ITLB RQ FORWARD:          0
ITLB WQ ACCESS:          0
ITLB WQ TO_CACHE:          0
ITLB WQ MERGED:          0
ITLB WQ FORWARD:          0
DTLB TOTAL     ACCESS:   98111607  HIT:   97926346  MISS:     185261
DTLB LOAD      ACCESS:   55041974  HIT:   54995663  MISS:      46311
DTLB RFO       ACCESS:   43069633  HIT:   42930683  MISS:     138950
DTLB PREFETCH  ACCESS:          0  HIT:          0  MISS:          0
DTLB WRITEBACK ACCESS:          0  HIT:          0  MISS:          0
DTLB PREFETCH  REQUESTED:          0  ISSUED:          0  USEFUL:          0  USELESS:          0
DTLB TOTAL MSHR MERGED:      83494
DTLB LOAD MSHR MERGED:      83486
DTLB RFO MSHR MERGED:          8
DTLB PREFETCH MSHR MERGED:          0
DTLB WRITEBACK MSHR MERGED:          0
DTLB TOTAL ACCESSES:   98195101 HITS:   97926346 MISSES:     268755
DTLB LOAD ACCESSES:   55125460 HITS:   54995663 MISSES:     129797
DTLB RFO ACCESSES:   43069641 HITS:   42930683 MISSES:     138958
DTLB PREFETCH ACCESSES:          0 HITS:          0 MISSES:          0
DTLB WRITEBACK ACCESSES:          0 HITS:          0 MISSES:          0
DTLB RQ ACCESS:  173636695
DTLB RQ TO_CACHE:   98195101
DTLB RQ MERGED:   75441594
DTLB RQ FORWARD:          0
DTLB WQ ACCESS:          0
DTLB WQ TO_CACHE:          0
DTLB WQ MERGED:          0
DTLB WQ FORWARD:          0
L1D TOTAL     ACCESS:  164623715  HIT:  145051157  MISS:   19572558
L1D LOAD      ACCESS:   60581140  HIT:   58729362  MISS:    1851778
L1D RFO       ACCESS:   64514093  HIT:   47911950  MISS:   16602143
L1D PREFETCH  ACCESS:   39528482  HIT:   38409845  MISS:    1118637
L1D WRITEBACK ACCESS:          0  HIT:          0  MISS:          0
L1D PREFETCH  REQUESTED:   61787484  ISSUED:   61494722  USEFUL:    1116720  USELESS:       1917
L1D TOTAL MSHR MERGED:    3550389
L1D LOAD MSHR MERGED:    1278094
L1D RFO MSHR MERGED:      11639
L1D PREFETCH MSHR MERGED:    2260656
L1D WRITEBACK MSHR MERGED:          0
L1D TOTAL ACCESSES:  168731785 HITS:  145608839 MISSES:   23122946
L1D LOAD ACCESSES:   62037833 HITS:   58979711 MISSES:    3058122
L1D RFO ACCESSES:   64525702 HITS:   47911950 MISSES:   16613752
L1D PREFETCH ACCESSES:   42168250 HITS:   38717178 MISSES:    3451072
L1D WRITEBACK ACCESSES:          0 HITS:          0 MISSES:          0
L1D RQ ACCESS:  109095380
L1D RQ TO_CACHE:   61787484
L1D RQ MERGED:   47057547
L1D RQ FORWARD:          0
L1D WQ ACCESS:   64541313
L1D WQ TO_CACHE:   64525703
L1D WQ MERGED:      15610
L1D WQ FORWARD:     557682
L1I TOTAL     ACCESS:  107763028  HIT:  107763020  MISS:          8
L1I LOAD      ACCESS:  107763028  HIT:  107763020  MISS:          8
L1I RFO       ACCESS:          0  HIT:          0  MISS:          0
L1I PREFETCH  ACCESS:          0  HIT:          0  MISS:          0
L1I WRITEBACK ACCESS:          0  HIT:          0  MISS:          0
L1I PREFETCH  REQUESTED:          0  ISSUED:          0  USEFUL:          0  USELESS:          0
L1I TOTAL MSHR MERGED:          3
L1I LOAD MSHR MERGED:          3
L1I RFO MSHR MERGED:          0
L1I PREFETCH MSHR MERGED:          0
L1I WRITEBACK MSHR MERGED:          0
L1I TOTAL ACCESSES:  107763031 HITS:  107763020 MISSES:         11
L1I LOAD ACCESSES:  107763031 HITS:  107763020 MISSES:         11
L1I RFO ACCESSES:          0 HITS:          0 MISSES:          0
L1I PREFETCH ACCESSES:          0 HITS:          0 MISSES:          0
L1I WRITEBACK ACCESSES:          0 HITS:          0 MISSES:          0
L1I RQ ACCESS:  500000007
L1I RQ TO_CACHE:  107763031
L1I RQ MERGED:  392236976
L1I RQ FORWARD:          0
L1I WQ ACCESS:          0
L1I WQ TO_CACHE:          0
L1I WQ MERGED:          0
L1I WQ FORWARD:          0
L2C TOTAL     ACCESS:   36819559  HIT:   24861950  MISS:   11957609
L2C LOAD      ACCESS:    1780036  HIT:     259580  MISS:    1520456
L2C RFO       ACCESS:   16602111  HIT:    7610717  MISS:    8991394
L2C PREFETCH  ACCESS:    1835230  HIT:     390699  MISS:    1444531
L2C WRITEBACK ACCESS:   16602182  HIT:   16600954  MISS:       1228
L2C PREFETCH  REQUESTED:     815531  ISSUED:     815531  USEFUL:     257272  USELESS:    1187541
L2C TOTAL MSHR MERGED:       2883
L2C LOAD MSHR MERGED:        645
L2C RFO MSHR MERGED:          0
L2C PREFETCH MSHR MERGED:       2238
L2C WRITEBACK MSHR MERGED:          0
L2C TOTAL ACCESSES:   36990203 HITS:   24861953 MISSES:   12128250
L2C LOAD ACCESSES:    1780036 HITS:     259580 MISSES:    1520456
L2C RFO ACCESSES:   16602113 HITS:    7610720 MISSES:    8991393
L2C PREFETCH ACCESSES:    2005872 HITS:     390699 MISSES:    1615173
L2C WRITEBACK ACCESSES:   16602182 HITS:   16600954 MISSES:       1228
L2C RQ ACCESS:   18382149
L2C RQ TO_CACHE:   18382146
L2C RQ MERGED:          0
L2C RQ FORWARD:          0
L2C WQ ACCESS:   16602182
L2C WQ TO_CACHE:   16602182
L2C WQ MERGED:          0
L2C WQ FORWARD:          3
LLC TOTAL     ACCESS:   21113339  HIT:    2227284  MISS:   18886055
LLC LOAD      ACCESS:    1519811  HIT:      60758  MISS:    1459053
LLC RFO       ACCESS:    8991382  HIT:     925583  MISS:    8065799
LLC PREFETCH  ACCESS:    1609932  HIT:     103672  MISS:    1506260
LLC WRITEBACK ACCESS:    8992214  HIT:    1137271  MISS:    7854943
LLC PREFETCH  REQUESTED:          0  ISSUED:          0  USEFUL:      60621  USELESS:    1445517
LLC TOTAL MSHR MERGED:       2675
LLC LOAD MSHR MERGED:        215
LLC RFO MSHR MERGED:          0
LLC PREFETCH MSHR MERGED:       2460
LLC WRITEBACK MSHR MERGED:          0
LLC TOTAL ACCESSES:   21116025 HITS:    2227296 MISSES:   18888729
LLC LOAD ACCESSES:    1519811 HITS:      60758 MISSES:    1459053
LLC RFO ACCESSES:    8991393 HITS:     925595 MISSES:    8065798
LLC PREFETCH ACCESSES:    1612607 HITS:     103672 MISSES:    1508935
LLC WRITEBACK ACCESSES:    8992214 HITS:    1137271 MISSES:    7854943
LLC 0 RQ ACCESS:   10511204
LLC 0 RQ TO_CACHE:   10511192
LLC 0 RQ MERGED:          0
LLC 0 RQ FORWARD:          0
LLC WQ ACCESS:    8992214
LLC WQ TO_CACHE:    8992214
LLC WQ MERGED:          0
LLC WQ FORWARD:         12
Major fault: 0 Minor fault: 102360
CPU 0 L1D next line prefetcher final stats
CPU 0 L2C PC-based stride prefetcher final stats
All Misses: 22472076
All Hits: 2616774
SD Algo Stats - Switches: 0 SRR-Repls: 1637706 BRR-Repls: 0

DRAM Statistics
 CHANNEL 0
 RQ ROW_BUFFER_HIT:    3716361  ROW_BUFFER_MISS:    7312919
 DBUS_CONGESTED:   13028558
 WQ ROW_BUFFER_HIT:    1262166  ROW_BUFFER_MISS:    6803306  FULL:          0

 AVG_CONGESTED_CYCLE: 13
LOADS RETIRED: 124982196
INSTR RETIRED: 500000000
