
*** ChampSim Multicore Out-of-Order Simulator ***

Warmup Instructions: 100000000
Simulation Instructions: 500000000
Number of CPUs: 1
LLC sets: 2048
LLC ways: 16
Clean RRIP Policies: 1213230212132302 Dirty RRIP Policies: 2203130222031302 PSEL Width: 10 Track Set: 4294967295 PSEL Mask: 1 Demote Mask: 1240100012401000DS Algo: 0Window size: 0
Off-chip DRAM Size: 4096 MB Channels: 1 Width: 64-bit Data Rate: 1600 MT/s

CPU 0 runs /mnt/beegfs/iconst01/spec2017/x264.trace.gz
NOT SORTED
TRACE STRING: /mnt/beegfs/iconst01/spec2017/x264.trace.gz
SORTED
TRACE STRING: /mnt/beegfs/iconst01/spec2017/x264.trace.gz
INITIAL
TRACE STRING: /mnt/beegfs/iconst01/spec2017/x264.trace.gz

champsim_seed used: 276

CPU 0 L1D next line prefetcher
CPU 0 L2C IP-based stride prefetcher
Initialize DRRIP state
Assign rand_sets[0]: 454  LLC: 2048
rand_sets[0]: 454
Assign rand_sets[1]: 1662  LLC: 2048
rand_sets[1]: 1662
Assign rand_sets[2]: 1921  LLC: 2048
rand_sets[2]: 1921
Assign rand_sets[3]: 1131  LLC: 2048
rand_sets[3]: 1131
Assign rand_sets[4]: 331  LLC: 2048
rand_sets[4]: 331
Assign rand_sets[5]: 1531  LLC: 2048
rand_sets[5]: 1531
Assign rand_sets[6]: 482  LLC: 2048
rand_sets[6]: 482
Assign rand_sets[7]: 1275  LLC: 2048
rand_sets[7]: 1275
Assign rand_sets[8]: 1876  LLC: 2048
rand_sets[8]: 1876
Assign rand_sets[9]: 2038  LLC: 2048
rand_sets[9]: 2038
Assign rand_sets[10]: 701  LLC: 2048
rand_sets[10]: 701
Assign rand_sets[11]: 479  LLC: 2048
rand_sets[11]: 479
Assign rand_sets[12]: 892  LLC: 2048
rand_sets[12]: 892
Assign rand_sets[13]: 1820  LLC: 2048
rand_sets[13]: 1820
Assign rand_sets[14]: 1505  LLC: 2048
rand_sets[14]: 1505
Assign rand_sets[15]: 1159  LLC: 2048
rand_sets[15]: 1159
Assign rand_sets[16]: 513  LLC: 2048
rand_sets[16]: 513
Assign rand_sets[17]: 703  LLC: 2048
rand_sets[17]: 703
Assign rand_sets[18]: 561  LLC: 2048
rand_sets[18]: 561
Assign rand_sets[19]: 990  LLC: 2048
rand_sets[19]: 990
Assign rand_sets[20]: 342  LLC: 2048
rand_sets[20]: 342
Assign rand_sets[21]: 882  LLC: 2048
rand_sets[21]: 882
Assign rand_sets[22]: 15  LLC: 2048
rand_sets[22]: 15
Assign rand_sets[23]: 71  LLC: 2048
rand_sets[23]: 71
Assign rand_sets[24]: 1127  LLC: 2048
rand_sets[24]: 1127
Assign rand_sets[25]: 1382  LLC: 2048
rand_sets[25]: 1382
Assign rand_sets[26]: 647  LLC: 2048
rand_sets[26]: 647
Assign rand_sets[27]: 857  LLC: 2048
rand_sets[27]: 857
Assign rand_sets[28]: 1450  LLC: 2048
rand_sets[28]: 1450
Assign rand_sets[29]: 1160  LLC: 2048
rand_sets[29]: 1160
Assign rand_sets[30]: 1852  LLC: 2048
rand_sets[30]: 1852
Assign rand_sets[31]: 1881  LLC: 2048
rand_sets[31]: 1881
Assign rand_sets[32]: 1770  LLC: 2048
rand_sets[32]: 1770
Assign rand_sets[33]: 1622  LLC: 2048
rand_sets[33]: 1622
Assign rand_sets[34]: 275  LLC: 2048
rand_sets[34]: 275
Assign rand_sets[35]: 635  LLC: 2048
rand_sets[35]: 635
Assign rand_sets[36]: 466  LLC: 2048
rand_sets[36]: 466
Assign rand_sets[37]: 1413  LLC: 2048
rand_sets[37]: 1413
Assign rand_sets[38]: 417  LLC: 2048
rand_sets[38]: 417
Assign rand_sets[39]: 472  LLC: 2048
rand_sets[39]: 472
Assign rand_sets[40]: 1340  LLC: 2048
rand_sets[40]: 1340
Assign rand_sets[41]: 852  LLC: 2048
rand_sets[41]: 852
Assign rand_sets[42]: 1365  LLC: 2048
rand_sets[42]: 1365
Assign rand_sets[43]: 47  LLC: 2048
rand_sets[43]: 47
Assign rand_sets[44]: 823  LLC: 2048
rand_sets[44]: 823
Assign rand_sets[45]: 686  LLC: 2048
rand_sets[45]: 686
Assign rand_sets[46]: 1637  LLC: 2048
rand_sets[46]: 1637
Assign rand_sets[47]: 1115  LLC: 2048
rand_sets[47]: 1115
Assign rand_sets[48]: 986  LLC: 2048
rand_sets[48]: 986
Assign rand_sets[49]: 258  LLC: 2048
rand_sets[49]: 258
Assign rand_sets[50]: 633  LLC: 2048
rand_sets[50]: 633
Assign rand_sets[51]: 920  LLC: 2048
rand_sets[51]: 920
Assign rand_sets[52]: 204  LLC: 2048
rand_sets[52]: 204
Assign rand_sets[53]: 227  LLC: 2048
rand_sets[53]: 227
Assign rand_sets[54]: 1818  LLC: 2048
rand_sets[54]: 1818
Assign rand_sets[55]: 886  LLC: 2048
rand_sets[55]: 886
Assign rand_sets[56]: 1422  LLC: 2048
rand_sets[56]: 1422
Assign rand_sets[57]: 607  LLC: 2048
rand_sets[57]: 607
Assign rand_sets[58]: 217  LLC: 2048
rand_sets[58]: 217
Assign rand_sets[59]: 1945  LLC: 2048
rand_sets[59]: 1945
Assign rand_sets[60]: 143  LLC: 2048
rand_sets[60]: 143
Assign rand_sets[61]: 1311  LLC: 2048
rand_sets[61]: 1311
Assign rand_sets[62]: 319  LLC: 2048
rand_sets[62]: 319
Assign rand_sets[63]: 1846  LLC: 2048
rand_sets[63]: 1846
 CLEAN-RRIP-POLICY-1: 1-2-1-3-2-3-0-2- CLEAN-RRIP-POLICY-2: 1-2-1-3-2-3-0-2-
 DIRTY-RRIP-POLICY-1: 2-2-0-3-1-3-0-2- DIRTY-RRIP-POLICY-2: 2-2-0-3-1-3-0-2-
 PSEL width: 10
Heartbeat CPU 0 instructions: 10000000 cycles: 4124759 heartbeat IPC: 2.42438 cumulative IPC: 2.42438 (Simulation time: 0 hr 0 min 13 sec) 
Heartbeat CPU 0 instructions: 20000000 cycles: 8233863 heartbeat IPC: 2.43362 cumulative IPC: 2.42899 (Simulation time: 0 hr 0 min 27 sec) 
Heartbeat CPU 0 instructions: 30000003 cycles: 12464696 heartbeat IPC: 2.3636 cumulative IPC: 2.4068 (Simulation time: 0 hr 0 min 40 sec) 
Heartbeat CPU 0 instructions: 40000000 cycles: 16636669 heartbeat IPC: 2.39695 cumulative IPC: 2.40433 (Simulation time: 0 hr 0 min 53 sec) 
Heartbeat CPU 0 instructions: 50000000 cycles: 20699152 heartbeat IPC: 2.46155 cumulative IPC: 2.41556 (Simulation time: 0 hr 1 min 7 sec) 
Heartbeat CPU 0 instructions: 60000000 cycles: 25022638 heartbeat IPC: 2.31295 cumulative IPC: 2.39783 (Simulation time: 0 hr 1 min 20 sec) 
Heartbeat CPU 0 instructions: 70000000 cycles: 29370983 heartbeat IPC: 2.29973 cumulative IPC: 2.3833 (Simulation time: 0 hr 1 min 33 sec) 
Heartbeat CPU 0 instructions: 80000000 cycles: 33721106 heartbeat IPC: 2.29879 cumulative IPC: 2.3724 (Simulation time: 0 hr 1 min 46 sec) 
Heartbeat CPU 0 instructions: 90000002 cycles: 38032139 heartbeat IPC: 2.31963 cumulative IPC: 2.36642 (Simulation time: 0 hr 1 min 59 sec) 
Heartbeat CPU 0 instructions: 100000000 cycles: 42329090 heartbeat IPC: 2.32723 cumulative IPC: 2.36244 (Simulation time: 0 hr 2 min 12 sec) 

Warmup complete CPU 0 instructions: 100000001 cycles: 42329091 (Simulation time: 0 hr 2 min 12 sec) 

Heartbeat CPU 0 instructions: 110000001 cycles: 49400326 heartbeat IPC: 1.41418 cumulative IPC: 1.41418 (Simulation time: 0 hr 2 min 29 sec) 
Heartbeat CPU 0 instructions: 120000000 cycles: 58907294 heartbeat IPC: 1.05186 cumulative IPC: 1.2064 (Simulation time: 0 hr 2 min 48 sec) 
Heartbeat CPU 0 instructions: 130000000 cycles: 63732064 heartbeat IPC: 2.07264 cumulative IPC: 1.40167 (Simulation time: 0 hr 3 min 4 sec) 
Heartbeat CPU 0 instructions: 140000000 cycles: 68682387 heartbeat IPC: 2.02007 cumulative IPC: 1.51784 (Simulation time: 0 hr 3 min 21 sec) 
Heartbeat CPU 0 instructions: 150000002 cycles: 75505358 heartbeat IPC: 1.46564 cumulative IPC: 1.5071 (Simulation time: 0 hr 3 min 38 sec) 
Heartbeat CPU 0 instructions: 160000000 cycles: 83357704 heartbeat IPC: 1.2735 cumulative IPC: 1.46239 (Simulation time: 0 hr 3 min 56 sec) 
Heartbeat CPU 0 instructions: 170000000 cycles: 90774633 heartbeat IPC: 1.34827 cumulative IPC: 1.44492 (Simulation time: 0 hr 4 min 13 sec) 
Heartbeat CPU 0 instructions: 180000000 cycles: 98095100 heartbeat IPC: 1.36603 cumulative IPC: 1.43457 (Simulation time: 0 hr 4 min 29 sec) 
Heartbeat CPU 0 instructions: 190000002 cycles: 105278964 heartbeat IPC: 1.39201 cumulative IPC: 1.42971 (Simulation time: 0 hr 4 min 46 sec) 
Heartbeat CPU 0 instructions: 200000000 cycles: 112527670 heartbeat IPC: 1.37956 cumulative IPC: 1.42453 (Simulation time: 0 hr 5 min 3 sec) 
Heartbeat CPU 0 instructions: 210000000 cycles: 119405755 heartbeat IPC: 1.45389 cumulative IPC: 1.42715 (Simulation time: 0 hr 5 min 19 sec) 
Heartbeat CPU 0 instructions: 220000000 cycles: 126186176 heartbeat IPC: 1.47483 cumulative IPC: 1.43101 (Simulation time: 0 hr 5 min 35 sec) 
Heartbeat CPU 0 instructions: 230000003 cycles: 132918123 heartbeat IPC: 1.48545 cumulative IPC: 1.43505 (Simulation time: 0 hr 5 min 52 sec) 
Heartbeat CPU 0 instructions: 240000000 cycles: 139672858 heartbeat IPC: 1.48044 cumulative IPC: 1.4382 (Simulation time: 0 hr 6 min 8 sec) 
Heartbeat CPU 0 instructions: 250000001 cycles: 146405727 heartbeat IPC: 1.48525 cumulative IPC: 1.44125 (Simulation time: 0 hr 6 min 24 sec) 
Heartbeat CPU 0 instructions: 260000000 cycles: 153114653 heartbeat IPC: 1.49055 cumulative IPC: 1.44423 (Simulation time: 0 hr 6 min 40 sec) 
Heartbeat CPU 0 instructions: 270000001 cycles: 160089011 heartbeat IPC: 1.43382 cumulative IPC: 1.44362 (Simulation time: 0 hr 6 min 57 sec) 
Heartbeat CPU 0 instructions: 280000000 cycles: 167629283 heartbeat IPC: 1.32621 cumulative IPC: 1.43655 (Simulation time: 0 hr 7 min 14 sec) 
Heartbeat CPU 0 instructions: 290000000 cycles: 175553958 heartbeat IPC: 1.26188 cumulative IPC: 1.42616 (Simulation time: 0 hr 7 min 31 sec) 
Heartbeat CPU 0 instructions: 300000000 cycles: 183725375 heartbeat IPC: 1.22378 cumulative IPC: 1.41446 (Simulation time: 0 hr 7 min 49 sec) 
Heartbeat CPU 0 instructions: 310000002 cycles: 192029503 heartbeat IPC: 1.20422 cumulative IPC: 1.4028 (Simulation time: 0 hr 8 min 6 sec) 
Heartbeat CPU 0 instructions: 320000000 cycles: 202019928 heartbeat IPC: 1.00096 cumulative IPC: 1.37766 (Simulation time: 0 hr 8 min 26 sec) 
Heartbeat CPU 0 instructions: 330000002 cycles: 206667385 heartbeat IPC: 2.15171 cumulative IPC: 1.39955 (Simulation time: 0 hr 8 min 42 sec) 
Heartbeat CPU 0 instructions: 340000000 cycles: 211932867 heartbeat IPC: 1.89916 cumulative IPC: 1.41506 (Simulation time: 0 hr 8 min 59 sec) 
Heartbeat CPU 0 instructions: 350000000 cycles: 219148299 heartbeat IPC: 1.38592 cumulative IPC: 1.41387 (Simulation time: 0 hr 9 min 17 sec) 
Heartbeat CPU 0 instructions: 360000000 cycles: 226829606 heartbeat IPC: 1.30186 cumulative IPC: 1.40921 (Simulation time: 0 hr 9 min 34 sec) 
Heartbeat CPU 0 instructions: 370000000 cycles: 234242258 heartbeat IPC: 1.34904 cumulative IPC: 1.40689 (Simulation time: 0 hr 9 min 50 sec) 
Heartbeat CPU 0 instructions: 380000000 cycles: 241526965 heartbeat IPC: 1.37274 cumulative IPC: 1.40564 (Simulation time: 0 hr 10 min 7 sec) 
Heartbeat CPU 0 instructions: 390000000 cycles: 249648637 heartbeat IPC: 1.23127 cumulative IPC: 1.39881 (Simulation time: 0 hr 10 min 24 sec) 
Heartbeat CPU 0 instructions: 400000000 cycles: 257852269 heartbeat IPC: 1.21897 cumulative IPC: 1.39196 (Simulation time: 0 hr 10 min 42 sec) 
Heartbeat CPU 0 instructions: 410000001 cycles: 265682130 heartbeat IPC: 1.27716 cumulative IPC: 1.38794 (Simulation time: 0 hr 10 min 59 sec) 
Heartbeat CPU 0 instructions: 420000000 cycles: 273737607 heartbeat IPC: 1.24139 cumulative IPC: 1.38284 (Simulation time: 0 hr 11 min 16 sec) 
Heartbeat CPU 0 instructions: 430000001 cycles: 281997089 heartbeat IPC: 1.21073 cumulative IPC: 1.3769 (Simulation time: 0 hr 11 min 34 sec) 
Heartbeat CPU 0 instructions: 440000000 cycles: 290037636 heartbeat IPC: 1.2437 cumulative IPC: 1.37258 (Simulation time: 0 hr 11 min 51 sec) 
Heartbeat CPU 0 instructions: 450000001 cycles: 297907314 heartbeat IPC: 1.2707 cumulative IPC: 1.36944 (Simulation time: 0 hr 12 min 8 sec) 
Heartbeat CPU 0 instructions: 460000000 cycles: 307833829 heartbeat IPC: 1.0074 cumulative IPC: 1.35591 (Simulation time: 0 hr 12 min 28 sec) 
Heartbeat CPU 0 instructions: 470000002 cycles: 312474983 heartbeat IPC: 2.15464 cumulative IPC: 1.36963 (Simulation time: 0 hr 12 min 44 sec) 
Heartbeat CPU 0 instructions: 480000000 cycles: 317765675 heartbeat IPC: 1.89011 cumulative IPC: 1.37963 (Simulation time: 0 hr 13 min 0 sec) 
Heartbeat CPU 0 instructions: 490000001 cycles: 325082807 heartbeat IPC: 1.36666 cumulative IPC: 1.37929 (Simulation time: 0 hr 13 min 18 sec) 
Heartbeat CPU 0 instructions: 500000000 cycles: 333811679 heartbeat IPC: 1.14562 cumulative IPC: 1.37229 (Simulation time: 0 hr 13 min 38 sec) 
Heartbeat CPU 0 instructions: 510000002 cycles: 342543189 heartbeat IPC: 1.14528 cumulative IPC: 1.36569 (Simulation time: 0 hr 13 min 58 sec) 
Heartbeat CPU 0 instructions: 520000000 cycles: 351270726 heartbeat IPC: 1.1458 cumulative IPC: 1.35948 (Simulation time: 0 hr 14 min 17 sec) 
Heartbeat CPU 0 instructions: 530000000 cycles: 359977439 heartbeat IPC: 1.14854 cumulative IPC: 1.3537 (Simulation time: 0 hr 14 min 37 sec) 
Heartbeat CPU 0 instructions: 540000000 cycles: 368233258 heartbeat IPC: 1.21127 cumulative IPC: 1.35009 (Simulation time: 0 hr 14 min 56 sec) 
Heartbeat CPU 0 instructions: 550000000 cycles: 375273466 heartbeat IPC: 1.42041 cumulative IPC: 1.35158 (Simulation time: 0 hr 15 min 13 sec) 
Heartbeat CPU 0 instructions: 560000000 cycles: 381884155 heartbeat IPC: 1.5127 cumulative IPC: 1.35471 (Simulation time: 0 hr 15 min 29 sec) 
Heartbeat CPU 0 instructions: 570000002 cycles: 388467771 heartbeat IPC: 1.51892 cumulative IPC: 1.35784 (Simulation time: 0 hr 15 min 46 sec) 
Heartbeat CPU 0 instructions: 580000000 cycles: 395113536 heartbeat IPC: 1.50472 cumulative IPC: 1.3606 (Simulation time: 0 hr 16 min 2 sec) 
Heartbeat CPU 0 instructions: 590000002 cycles: 401801223 heartbeat IPC: 1.49529 cumulative IPC: 1.36311 (Simulation time: 0 hr 16 min 19 sec) 
Heartbeat CPU 0 instructions: 600000000 cycles: 408610583 heartbeat IPC: 1.46857 cumulative IPC: 1.36507 (Simulation time: 0 hr 16 min 36 sec) 
Finished CPU 0 instructions: 500000000 cycles: 366281500 cumulative IPC: 1.36507 (Simulation time: 0 hr 16 min 36 sec) 

CPU 0 Branch Prediction Accuracy: 93.4682% MPKI: 2.44079
Number of Branches: 18683822 Number of Mispredictions: 1220394
Number of LOAD Instructions: 142551610
Number of LOAD Instructions (ROI): 142551610
Number of STORE Instructions: 44807454
Number of STORE Instructions (ROI): 44807454
Total Destination Memory Operands: 48357071
Total Destination Memory Operands (ROI): 48357071
Total Source Memory Operands: 142551610
Total Source Memory Operands (ROI): 142551610
Number of DEPENDED LOADS: 7394860
Number of DEPENDED LOADS (ROI): 7394860
Number of SQ_ADDED: 48357051
Number of SQ_ADDED (ROI): 48357051
Number of LQ_ADDED: 157228265
Number of LQ_ADDED (ROI): 157228265
Number of Instructions read from trace: 600000256

ChampSim completed all CPUs

Region of Interest Statistics

CPU 0 cumulative IPC: 1.36507 instructions: 500000000 cycles: 366281500
ITLB TOTAL     ACCESS:   88179226  HIT:   88179157  MISS:         69
ITLB LOAD      ACCESS:   88179226  HIT:   88179157  MISS:         69
ITLB RFO       ACCESS:          0  HIT:          0  MISS:          0
ITLB PREFETCH  ACCESS:          0  HIT:          0  MISS:          0
ITLB WRITEBACK ACCESS:          0  HIT:          0  MISS:          0
ITLB PREFETCH  REQUESTED:          0  ISSUED:          0  USEFUL:          0  USELESS:          0
ITLB TOTAL MSHR MERGED:         83
ITLB LOAD MSHR MERGED:         83
ITLB RFO MSHR MERGED:          0
ITLB PREFETCH MSHR MERGED:          0
ITLB WRITEBACK MSHR MERGED:          0
ITLB TOTAL ACCESSES:   88179309 HITS:   88179157 MISSES:        152
ITLB LOAD ACCESSES:   88179309 HITS:   88179157 MISSES:        152
ITLB RFO ACCESSES:          0 HITS:          0 MISSES:          0
ITLB PREFETCH ACCESSES:          0 HITS:          0 MISSES:          0
ITLB WRITEBACK ACCESSES:          0 HITS:          0 MISSES:          0
ITLB RQ ACCESS:  500000000
ITLB RQ TO_CACHE:   88179309
ITLB RQ MERGED:  411820691
ITLB RQ FORWARD:          0
ITLB WQ ACCESS:          0
ITLB WQ TO_CACHE:          0
ITLB WQ MERGED:          0
ITLB WQ FORWARD:          0
DTLB TOTAL     ACCESS:   88203830  HIT:   88076413  MISS:     127417
DTLB LOAD      ACCESS:   59485736  HIT:   59393269  MISS:      92467
DTLB RFO       ACCESS:   28718094  HIT:   28683144  MISS:      34950
DTLB PREFETCH  ACCESS:          0  HIT:          0  MISS:          0
DTLB WRITEBACK ACCESS:          0  HIT:          0  MISS:          0
DTLB PREFETCH  REQUESTED:          0  ISSUED:          0  USEFUL:          0  USELESS:          0
DTLB TOTAL MSHR MERGED:     140904
DTLB LOAD MSHR MERGED:     107612
DTLB RFO MSHR MERGED:      33292
DTLB PREFETCH MSHR MERGED:          0
DTLB WRITEBACK MSHR MERGED:          0
DTLB TOTAL ACCESSES:   88344734 HITS:   88076413 MISSES:     268321
DTLB LOAD ACCESSES:   59593348 HITS:   59393269 MISSES:     200079
DTLB RFO ACCESSES:   28751386 HITS:   28683144 MISSES:      68242
DTLB PREFETCH ACCESSES:          0 HITS:          0 MISSES:          0
DTLB WRITEBACK ACCESSES:          0 HITS:          0 MISSES:          0
DTLB RQ ACCESS:  154559044
DTLB RQ TO_CACHE:   88344734
DTLB RQ MERGED:   66214310
DTLB RQ FORWARD:          0
DTLB WQ ACCESS:          0
DTLB WQ TO_CACHE:          0
DTLB WQ MERGED:          0
DTLB WQ FORWARD:          0
L1D TOTAL     ACCESS:  127895808  HIT:  124670387  MISS:    3225421
L1D LOAD      ACCESS:   53172533  HIT:   51976948  MISS:    1195585
L1D RFO       ACCESS:   37340574  HIT:   36726314  MISS:     614260
L1D PREFETCH  ACCESS:   37382701  HIT:   35967125  MISS:    1415576
L1D WRITEBACK ACCESS:          0  HIT:          0  MISS:          0
L1D PREFETCH  REQUESTED:   53658260  ISSUED:   52457916  USEFUL:     351843  USELESS:    1063698
L1D TOTAL MSHR MERGED:    2959291
L1D LOAD MSHR MERGED:     524764
L1D RFO MSHR MERGED:    1613608
L1D PREFETCH MSHR MERGED:     820919
L1D WRITEBACK MSHR MERGED:          0
L1D TOTAL ACCESSES:  130889775 HITS:  124705063 MISSES:    6184712
L1D LOAD ACCESSES:   53660937 HITS:   51979625 MISSES:    1681312
L1D RFO ACCESSES:   38952868 HITS:   36726314 MISSES:    2226554
L1D PREFETCH ACCESSES:   38275970 HITS:   35999124 MISSES:    2276846
L1D WRITEBACK ACCESSES:          0 HITS:          0 MISSES:          0
L1D RQ ACCESS:  113714152
L1D RQ TO_CACHE:   53658260
L1D RQ MERGED:   60053215
L1D RQ FORWARD:          0
L1D WQ ACCESS:   40844891
L1D WQ TO_CACHE:   38952868
L1D WQ MERGED:    1892023
L1D WQ FORWARD:      34676
L1I TOTAL     ACCESS:  108369925  HIT:  107810796  MISS:     559129
L1I LOAD      ACCESS:  108369925  HIT:  107810796  MISS:     559129
L1I RFO       ACCESS:          0  HIT:          0  MISS:          0
L1I PREFETCH  ACCESS:          0  HIT:          0  MISS:          0
L1I WRITEBACK ACCESS:          0  HIT:          0  MISS:          0
L1I PREFETCH  REQUESTED:          0  ISSUED:          0  USEFUL:          0  USELESS:          0
L1I TOTAL MSHR MERGED:     526199
L1I LOAD MSHR MERGED:     526199
L1I RFO MSHR MERGED:          0
L1I PREFETCH MSHR MERGED:          0
L1I WRITEBACK MSHR MERGED:          0
L1I TOTAL ACCESSES:  108896124 HITS:  107810796 MISSES:    1085328
L1I LOAD ACCESSES:  108896124 HITS:  107810796 MISSES:    1085328
L1I RFO ACCESSES:          0 HITS:          0 MISSES:          0
L1I PREFETCH ACCESSES:          0 HITS:          0 MISSES:          0
L1I WRITEBACK ACCESSES:          0 HITS:          0 MISSES:          0
L1I RQ ACCESS:  500000002
L1I RQ TO_CACHE:  108896124
L1I RQ MERGED:  391103878
L1I RQ FORWARD:          0
L1I WQ ACCESS:          0
L1I WQ TO_CACHE:          0
L1I WQ MERGED:          0
L1I WQ FORWARD:          0
L2C TOTAL     ACCESS:    4691279  HIT:    3865348  MISS:     825931
L2C LOAD      ACCESS:    1715565  HIT:    1562349  MISS:     153216
L2C RFO       ACCESS:     611518  HIT:     421125  MISS:     190393
L2C PREFETCH  ACCESS:    1661311  HIT:    1181176  MISS:     480135
L2C WRITEBACK ACCESS:     702885  HIT:     700698  MISS:       2187
L2C PREFETCH  REQUESTED:     256406  ISSUED:     256406  USEFUL:     172771  USELESS:     308030
L2C TOTAL MSHR MERGED:      13222
L2C LOAD MSHR MERGED:       4055
L2C RFO MSHR MERGED:          0
L2C PREFETCH MSHR MERGED:       9167
L2C WRITEBACK MSHR MERGED:          0
L2C TOTAL ACCESSES:    4712244 HITS:    3866956 MISSES:     845288
L2C LOAD ACCESSES:    1715677 HITS:    1562461 MISSES:     153216
L2C RFO ACCESSES:     612946 HITS:     422553 MISSES:     190393
L2C PREFETCH ACCESSES:    1680736 HITS:    1181244 MISSES:     499492
L2C WRITEBACK ACCESSES:     702885 HITS:     700698 MISSES:       2187
L2C RQ ACCESS:    2328623
L2C RQ TO_CACHE:    2327083
L2C RQ MERGED:          0
L2C RQ FORWARD:          0
L2C WQ ACCESS:     702885
L2C WQ TO_CACHE:     702885
L2C WQ MERGED:          0
L2C WQ FORWARD:       1608
LLC TOTAL     ACCESS:    1047637  HIT:     230395  MISS:     817242
LLC LOAD      ACCESS:     149157  HIT:      83746  MISS:      65411
LLC RFO       ACCESS:     190386  HIT:       6532  MISS:     183854
LLC PREFETCH  ACCESS:     487217  HIT:     104190  MISS:     383027
LLC WRITEBACK ACCESS:     220877  HIT:      35927  MISS:     184950
LLC PREFETCH  REQUESTED:          0  ISSUED:          0  USEFUL:       1984  USELESS:     381420
LLC TOTAL MSHR MERGED:       2320
LLC LOAD MSHR MERGED:        864
LLC RFO MSHR MERGED:          0
LLC PREFETCH MSHR MERGED:       1456
LLC WRITEBACK MSHR MERGED:          0
LLC TOTAL ACCESSES:    1049968 HITS:     230406 MISSES:     819562
LLC LOAD ACCESSES:     149161 HITS:      83750 MISSES:      65411
LLC RFO ACCESSES:     190393 HITS:       6539 MISSES:     183854
LLC PREFETCH ACCESSES:     489537 HITS:     104190 MISSES:     385347
LLC WRITEBACK ACCESSES:     220877 HITS:      35927 MISSES:     184950
LLC 0 RQ ACCESS:     339554
LLC 0 RQ TO_CACHE:     339543
LLC 0 RQ MERGED:          0
LLC 0 RQ FORWARD:          0
LLC WQ ACCESS:     220877
LLC WQ TO_CACHE:     220877
LLC WQ MERGED:          0
LLC WQ FORWARD:         11
Major fault: 0 Minor fault: 6811
CPU 0 L1D next line prefetcher final stats
CPU 0 L2C PC-based stride prefetcher final stats
All Misses: 958036
All Hits: 296584
SD Algo Stats - Switches: 0 SRR-Repls: 73016 BRR-Repls: 0

DRAM Statistics
 CHANNEL 0
 RQ ROW_BUFFER_HIT:     330227  ROW_BUFFER_MISS:     301953
 DBUS_CONGESTED:     437026
 WQ ROW_BUFFER_HIT:      31501  ROW_BUFFER_MISS:     184114  FULL:          0

 AVG_CONGESTED_CYCLE: 13
LOADS RETIRED: 119922929
INSTR RETIRED: 500000000
