
*** ChampSim Multicore Out-of-Order Simulator ***

Warmup Instructions: 100000000
Simulation Instructions: 500000000
Number of CPUs: 1
LLC sets: 2048
LLC ways: 16
Clean RRIP Policies: 1213230212132302 Dirty RRIP Policies: 2203130222031302 PSEL Width: 10 Track Set: 4294967295 PSEL Mask: 1 Demote Mask: 1240100012401000DS Algo: 0Window size: 0
Off-chip DRAM Size: 4096 MB Channels: 1 Width: 64-bit Data Rate: 1600 MT/s

CPU 0 runs /mnt/beegfs/iconst01/spec2017/Xz.trace.gz
NOT SORTED
TRACE STRING: /mnt/beegfs/iconst01/spec2017/Xz.trace.gz
SORTED
TRACE STRING: /mnt/beegfs/iconst01/spec2017/Xz.trace.gz
INITIAL
TRACE STRING: /mnt/beegfs/iconst01/spec2017/Xz.trace.gz

champsim_seed used: 210

CPU 0 L1D next line prefetcher
CPU 0 L2C IP-based stride prefetcher
Initialize DRRIP state
Assign rand_sets[0]: 454  LLC: 2048
rand_sets[0]: 454
Assign rand_sets[1]: 1662  LLC: 2048
rand_sets[1]: 1662
Assign rand_sets[2]: 1921  LLC: 2048
rand_sets[2]: 1921
Assign rand_sets[3]: 1131  LLC: 2048
rand_sets[3]: 1131
Assign rand_sets[4]: 331  LLC: 2048
rand_sets[4]: 331
Assign rand_sets[5]: 1531  LLC: 2048
rand_sets[5]: 1531
Assign rand_sets[6]: 482  LLC: 2048
rand_sets[6]: 482
Assign rand_sets[7]: 1275  LLC: 2048
rand_sets[7]: 1275
Assign rand_sets[8]: 1876  LLC: 2048
rand_sets[8]: 1876
Assign rand_sets[9]: 2038  LLC: 2048
rand_sets[9]: 2038
Assign rand_sets[10]: 701  LLC: 2048
rand_sets[10]: 701
Assign rand_sets[11]: 479  LLC: 2048
rand_sets[11]: 479
Assign rand_sets[12]: 892  LLC: 2048
rand_sets[12]: 892
Assign rand_sets[13]: 1820  LLC: 2048
rand_sets[13]: 1820
Assign rand_sets[14]: 1505  LLC: 2048
rand_sets[14]: 1505
Assign rand_sets[15]: 1159  LLC: 2048
rand_sets[15]: 1159
Assign rand_sets[16]: 513  LLC: 2048
rand_sets[16]: 513
Assign rand_sets[17]: 703  LLC: 2048
rand_sets[17]: 703
Assign rand_sets[18]: 561  LLC: 2048
rand_sets[18]: 561
Assign rand_sets[19]: 990  LLC: 2048
rand_sets[19]: 990
Assign rand_sets[20]: 342  LLC: 2048
rand_sets[20]: 342
Assign rand_sets[21]: 882  LLC: 2048
rand_sets[21]: 882
Assign rand_sets[22]: 15  LLC: 2048
rand_sets[22]: 15
Assign rand_sets[23]: 71  LLC: 2048
rand_sets[23]: 71
Assign rand_sets[24]: 1127  LLC: 2048
rand_sets[24]: 1127
Assign rand_sets[25]: 1382  LLC: 2048
rand_sets[25]: 1382
Assign rand_sets[26]: 647  LLC: 2048
rand_sets[26]: 647
Assign rand_sets[27]: 857  LLC: 2048
rand_sets[27]: 857
Assign rand_sets[28]: 1450  LLC: 2048
rand_sets[28]: 1450
Assign rand_sets[29]: 1160  LLC: 2048
rand_sets[29]: 1160
Assign rand_sets[30]: 1852  LLC: 2048
rand_sets[30]: 1852
Assign rand_sets[31]: 1881  LLC: 2048
rand_sets[31]: 1881
Assign rand_sets[32]: 1770  LLC: 2048
rand_sets[32]: 1770
Assign rand_sets[33]: 1622  LLC: 2048
rand_sets[33]: 1622
Assign rand_sets[34]: 275  LLC: 2048
rand_sets[34]: 275
Assign rand_sets[35]: 635  LLC: 2048
rand_sets[35]: 635
Assign rand_sets[36]: 466  LLC: 2048
rand_sets[36]: 466
Assign rand_sets[37]: 1413  LLC: 2048
rand_sets[37]: 1413
Assign rand_sets[38]: 417  LLC: 2048
rand_sets[38]: 417
Assign rand_sets[39]: 472  LLC: 2048
rand_sets[39]: 472
Assign rand_sets[40]: 1340  LLC: 2048
rand_sets[40]: 1340
Assign rand_sets[41]: 852  LLC: 2048
rand_sets[41]: 852
Assign rand_sets[42]: 1365  LLC: 2048
rand_sets[42]: 1365
Assign rand_sets[43]: 47  LLC: 2048
rand_sets[43]: 47
Assign rand_sets[44]: 823  LLC: 2048
rand_sets[44]: 823
Assign rand_sets[45]: 686  LLC: 2048
rand_sets[45]: 686
Assign rand_sets[46]: 1637  LLC: 2048
rand_sets[46]: 1637
Assign rand_sets[47]: 1115  LLC: 2048
rand_sets[47]: 1115
Assign rand_sets[48]: 986  LLC: 2048
rand_sets[48]: 986
Assign rand_sets[49]: 258  LLC: 2048
rand_sets[49]: 258
Assign rand_sets[50]: 633  LLC: 2048
rand_sets[50]: 633
Assign rand_sets[51]: 920  LLC: 2048
rand_sets[51]: 920
Assign rand_sets[52]: 204  LLC: 2048
rand_sets[52]: 204
Assign rand_sets[53]: 227  LLC: 2048
rand_sets[53]: 227
Assign rand_sets[54]: 1818  LLC: 2048
rand_sets[54]: 1818
Assign rand_sets[55]: 886  LLC: 2048
rand_sets[55]: 886
Assign rand_sets[56]: 1422  LLC: 2048
rand_sets[56]: 1422
Assign rand_sets[57]: 607  LLC: 2048
rand_sets[57]: 607
Assign rand_sets[58]: 217  LLC: 2048
rand_sets[58]: 217
Assign rand_sets[59]: 1945  LLC: 2048
rand_sets[59]: 1945
Assign rand_sets[60]: 143  LLC: 2048
rand_sets[60]: 143
Assign rand_sets[61]: 1311  LLC: 2048
rand_sets[61]: 1311
Assign rand_sets[62]: 319  LLC: 2048
rand_sets[62]: 319
Assign rand_sets[63]: 1846  LLC: 2048
rand_sets[63]: 1846
 CLEAN-RRIP-POLICY-1: 1-2-1-3-2-3-0-2- CLEAN-RRIP-POLICY-2: 1-2-1-3-2-3-0-2-
 DIRTY-RRIP-POLICY-1: 2-2-0-3-1-3-0-2- DIRTY-RRIP-POLICY-2: 2-2-0-3-1-3-0-2-
 PSEL width: 10
Heartbeat CPU 0 instructions: 10000000 cycles: 4305270 heartbeat IPC: 2.32273 cumulative IPC: 2.32273 (Simulation time: 0 hr 0 min 11 sec) 
Heartbeat CPU 0 instructions: 20000000 cycles: 8617102 heartbeat IPC: 2.3192 cumulative IPC: 2.32097 (Simulation time: 0 hr 0 min 23 sec) 
Heartbeat CPU 0 instructions: 30000003 cycles: 13160983 heartbeat IPC: 2.20076 cumulative IPC: 2.27947 (Simulation time: 0 hr 0 min 36 sec) 
Heartbeat CPU 0 instructions: 40000000 cycles: 17515465 heartbeat IPC: 2.29648 cumulative IPC: 2.2837 (Simulation time: 0 hr 0 min 48 sec) 
Heartbeat CPU 0 instructions: 50000001 cycles: 21878286 heartbeat IPC: 2.2921 cumulative IPC: 2.28537 (Simulation time: 0 hr 1 min 0 sec) 
Heartbeat CPU 0 instructions: 60000000 cycles: 26178524 heartbeat IPC: 2.32545 cumulative IPC: 2.29195 (Simulation time: 0 hr 1 min 11 sec) 
Heartbeat CPU 0 instructions: 70000001 cycles: 30244435 heartbeat IPC: 2.45947 cumulative IPC: 2.31448 (Simulation time: 0 hr 1 min 22 sec) 
Heartbeat CPU 0 instructions: 80000000 cycles: 34523252 heartbeat IPC: 2.33709 cumulative IPC: 2.31728 (Simulation time: 0 hr 1 min 33 sec) 
Heartbeat CPU 0 instructions: 90000001 cycles: 38739901 heartbeat IPC: 2.37155 cumulative IPC: 2.32319 (Simulation time: 0 hr 1 min 44 sec) 
Heartbeat CPU 0 instructions: 100000000 cycles: 42980332 heartbeat IPC: 2.35825 cumulative IPC: 2.32665 (Simulation time: 0 hr 1 min 55 sec) 

Warmup complete CPU 0 instructions: 100000001 cycles: 42980333 (Simulation time: 0 hr 1 min 55 sec) 

Heartbeat CPU 0 instructions: 110000000 cycles: 53142861 heartbeat IPC: 0.984007 cumulative IPC: 0.984007 (Simulation time: 0 hr 2 min 12 sec) 
Heartbeat CPU 0 instructions: 120000000 cycles: 63798679 heartbeat IPC: 0.938454 cumulative IPC: 0.960691 (Simulation time: 0 hr 2 min 29 sec) 
Heartbeat CPU 0 instructions: 130000001 cycles: 74425448 heartbeat IPC: 0.94102 cumulative IPC: 0.954043 (Simulation time: 0 hr 2 min 46 sec) 
Heartbeat CPU 0 instructions: 140000000 cycles: 84130081 heartbeat IPC: 1.03044 cumulative IPC: 0.972059 (Simulation time: 0 hr 3 min 3 sec) 
Heartbeat CPU 0 instructions: 150000001 cycles: 94462877 heartbeat IPC: 0.967792 cumulative IPC: 0.971203 (Simulation time: 0 hr 3 min 20 sec) 
Heartbeat CPU 0 instructions: 160000000 cycles: 104539240 heartbeat IPC: 0.992421 cumulative IPC: 0.974676 (Simulation time: 0 hr 3 min 37 sec) 
Heartbeat CPU 0 instructions: 170000000 cycles: 114227479 heartbeat IPC: 1.03218 cumulative IPC: 0.982495 (Simulation time: 0 hr 3 min 54 sec) 
Heartbeat CPU 0 instructions: 180000000 cycles: 124808864 heartbeat IPC: 0.945056 cumulative IPC: 0.977654 (Simulation time: 0 hr 4 min 11 sec) 
Heartbeat CPU 0 instructions: 190000001 cycles: 135083106 heartbeat IPC: 0.973308 cumulative IPC: 0.977169 (Simulation time: 0 hr 4 min 27 sec) 
Heartbeat CPU 0 instructions: 200000000 cycles: 145665125 heartbeat IPC: 0.944999 cumulative IPC: 0.973854 (Simulation time: 0 hr 4 min 45 sec) 
Heartbeat CPU 0 instructions: 210000002 cycles: 158159025 heartbeat IPC: 0.800391 cumulative IPC: 0.955038 (Simulation time: 0 hr 5 min 3 sec) 
Heartbeat CPU 0 instructions: 220000000 cycles: 170725493 heartbeat IPC: 0.795768 cumulative IPC: 0.93937 (Simulation time: 0 hr 5 min 21 sec) 
Heartbeat CPU 0 instructions: 230000000 cycles: 182933927 heartbeat IPC: 0.819106 cumulative IPC: 0.928879 (Simulation time: 0 hr 5 min 39 sec) 
Heartbeat CPU 0 instructions: 240000000 cycles: 195092852 heartbeat IPC: 0.822441 cumulative IPC: 0.920371 (Simulation time: 0 hr 5 min 57 sec) 
Heartbeat CPU 0 instructions: 250000000 cycles: 207087079 heartbeat IPC: 0.833734 cumulative IPC: 0.914039 (Simulation time: 0 hr 6 min 15 sec) 
Heartbeat CPU 0 instructions: 260000000 cycles: 218672771 heartbeat IPC: 0.863134 cumulative IPC: 0.910682 (Simulation time: 0 hr 6 min 33 sec) 
Heartbeat CPU 0 instructions: 270000003 cycles: 230573886 heartbeat IPC: 0.840258 cumulative IPC: 0.906215 (Simulation time: 0 hr 6 min 51 sec) 
Heartbeat CPU 0 instructions: 280000000 cycles: 242149399 heartbeat IPC: 0.863892 cumulative IPC: 0.903755 (Simulation time: 0 hr 7 min 9 sec) 
Heartbeat CPU 0 instructions: 290000002 cycles: 253701573 heartbeat IPC: 0.865638 cumulative IPC: 0.901665 (Simulation time: 0 hr 7 min 27 sec) 
Heartbeat CPU 0 instructions: 300000000 cycles: 266205972 heartbeat IPC: 0.799718 cumulative IPC: 0.895954 (Simulation time: 0 hr 7 min 45 sec) 
Heartbeat CPU 0 instructions: 310000000 cycles: 278395124 heartbeat IPC: 0.820402 cumulative IPC: 0.892043 (Simulation time: 0 hr 8 min 3 sec) 
Heartbeat CPU 0 instructions: 320000000 cycles: 291104372 heartbeat IPC: 0.786829 cumulative IPC: 0.886653 (Simulation time: 0 hr 8 min 21 sec) 
Heartbeat CPU 0 instructions: 330000003 cycles: 303080492 heartbeat IPC: 0.834995 cumulative IPC: 0.884275 (Simulation time: 0 hr 8 min 39 sec) 
Heartbeat CPU 0 instructions: 340000000 cycles: 315231818 heartbeat IPC: 0.822955 cumulative IPC: 0.881538 (Simulation time: 0 hr 8 min 57 sec) 
Heartbeat CPU 0 instructions: 350000001 cycles: 326248124 heartbeat IPC: 0.907745 cumulative IPC: 0.882557 (Simulation time: 0 hr 9 min 15 sec) 
Heartbeat CPU 0 instructions: 360000000 cycles: 338076231 heartbeat IPC: 0.845444 cumulative IPC: 0.88107 (Simulation time: 0 hr 9 min 33 sec) 
Heartbeat CPU 0 instructions: 370000001 cycles: 349520156 heartbeat IPC: 0.873826 cumulative IPC: 0.880799 (Simulation time: 0 hr 9 min 50 sec) 
Heartbeat CPU 0 instructions: 380000000 cycles: 360540669 heartbeat IPC: 0.907399 cumulative IPC: 0.881722 (Simulation time: 0 hr 10 min 8 sec) 
Heartbeat CPU 0 instructions: 390000003 cycles: 371195169 heartbeat IPC: 0.938571 cumulative IPC: 0.883568 (Simulation time: 0 hr 10 min 25 sec) 
Heartbeat CPU 0 instructions: 400000000 cycles: 381442616 heartbeat IPC: 0.975853 cumulative IPC: 0.886362 (Simulation time: 0 hr 10 min 42 sec) 
Heartbeat CPU 0 instructions: 410000000 cycles: 391980347 heartbeat IPC: 0.948971 cumulative IPC: 0.888252 (Simulation time: 0 hr 11 min 0 sec) 
Heartbeat CPU 0 instructions: 420000000 cycles: 401376571 heartbeat IPC: 1.06426 cumulative IPC: 0.892866 (Simulation time: 0 hr 11 min 16 sec) 
Heartbeat CPU 0 instructions: 430000002 cycles: 410472774 heartbeat IPC: 1.09936 cumulative IPC: 0.897978 (Simulation time: 0 hr 11 min 33 sec) 
Heartbeat CPU 0 instructions: 440000000 cycles: 420770720 heartbeat IPC: 0.971067 cumulative IPC: 0.89997 (Simulation time: 0 hr 11 min 50 sec) 
Heartbeat CPU 0 instructions: 450000002 cycles: 431877791 heartbeat IPC: 0.900328 cumulative IPC: 0.89998 (Simulation time: 0 hr 12 min 8 sec) 
Heartbeat CPU 0 instructions: 460000000 cycles: 443437054 heartbeat IPC: 0.865107 cumulative IPC: 0.898974 (Simulation time: 0 hr 12 min 25 sec) 
Heartbeat CPU 0 instructions: 470000003 cycles: 453648792 heartbeat IPC: 0.979266 cumulative IPC: 0.90097 (Simulation time: 0 hr 12 min 42 sec) 
Heartbeat CPU 0 instructions: 480000000 cycles: 464201996 heartbeat IPC: 0.947579 cumulative IPC: 0.902138 (Simulation time: 0 hr 13 min 0 sec) 
Heartbeat CPU 0 instructions: 490000000 cycles: 474176398 heartbeat IPC: 1.00257 cumulative IPC: 0.904461 (Simulation time: 0 hr 13 min 17 sec) 
Heartbeat CPU 0 instructions: 500000000 cycles: 485975686 heartbeat IPC: 0.847509 cumulative IPC: 0.902944 (Simulation time: 0 hr 13 min 34 sec) 
Heartbeat CPU 0 instructions: 510000002 cycles: 498410467 heartbeat IPC: 0.804196 cumulative IPC: 0.900248 (Simulation time: 0 hr 13 min 53 sec) 
Heartbeat CPU 0 instructions: 520000000 cycles: 510291123 heartbeat IPC: 0.841704 cumulative IPC: 0.898759 (Simulation time: 0 hr 14 min 11 sec) 
Heartbeat CPU 0 instructions: 530000001 cycles: 522155179 heartbeat IPC: 0.842882 cumulative IPC: 0.897376 (Simulation time: 0 hr 14 min 28 sec) 
Heartbeat CPU 0 instructions: 540000000 cycles: 533772076 heartbeat IPC: 0.860815 cumulative IPC: 0.896511 (Simulation time: 0 hr 14 min 46 sec) 
Heartbeat CPU 0 instructions: 550000001 cycles: 545192487 heartbeat IPC: 0.875625 cumulative IPC: 0.896036 (Simulation time: 0 hr 15 min 4 sec) 
Heartbeat CPU 0 instructions: 560000000 cycles: 556784997 heartbeat IPC: 0.862626 cumulative IPC: 0.895282 (Simulation time: 0 hr 15 min 21 sec) 
Heartbeat CPU 0 instructions: 570000000 cycles: 568217347 heartbeat IPC: 0.874711 cumulative IPC: 0.894834 (Simulation time: 0 hr 15 min 39 sec) 
Heartbeat CPU 0 instructions: 580000000 cycles: 578996880 heartbeat IPC: 0.927684 cumulative IPC: 0.895495 (Simulation time: 0 hr 15 min 56 sec) 
Heartbeat CPU 0 instructions: 590000003 cycles: 590416513 heartbeat IPC: 0.875685 cumulative IPC: 0.895082 (Simulation time: 0 hr 16 min 13 sec) 
Heartbeat CPU 0 instructions: 600000000 cycles: 601018832 heartbeat IPC: 0.94319 cumulative IPC: 0.895995 (Simulation time: 0 hr 16 min 30 sec) 
Finished CPU 0 instructions: 500000001 cycles: 558038507 cumulative IPC: 0.895995 (Simulation time: 0 hr 16 min 30 sec) 

CPU 0 Branch Prediction Accuracy: 93.0095% MPKI: 10.0046
Number of Branches: 71558147 Number of Mispredictions: 5002285
Number of LOAD Instructions: 145708893
Number of LOAD Instructions (ROI): 145708893
Number of STORE Instructions: 40463820
Number of STORE Instructions (ROI): 40463820
Total Destination Memory Operands: 45240498
Total Destination Memory Operands (ROI): 45240498
Total Source Memory Operands: 145708893
Total Source Memory Operands (ROI): 145708893
Number of DEPENDED LOADS: 10666067
Number of DEPENDED LOADS (ROI): 10666067
Number of SQ_ADDED: 45240498
Number of SQ_ADDED (ROI): 45240498
Number of LQ_ADDED: 193328186
Number of LQ_ADDED (ROI): 193328186
Number of Instructions read from trace: 600000002

ChampSim completed all CPUs

Region of Interest Statistics

CPU 0 cumulative IPC: 0.895995 instructions: 500000001 cycles: 558038507
ITLB TOTAL     ACCESS:   77992229  HIT:   77992228  MISS:          1
ITLB LOAD      ACCESS:   77992229  HIT:   77992228  MISS:          1
ITLB RFO       ACCESS:          0  HIT:          0  MISS:          0
ITLB PREFETCH  ACCESS:          0  HIT:          0  MISS:          0
ITLB WRITEBACK ACCESS:          0  HIT:          0  MISS:          0
ITLB PREFETCH  REQUESTED:          0  ISSUED:          0  USEFUL:          0  USELESS:          0
ITLB TOTAL MSHR MERGED:          0
ITLB LOAD MSHR MERGED:          0
ITLB RFO MSHR MERGED:          0
ITLB PREFETCH MSHR MERGED:          0
ITLB WRITEBACK MSHR MERGED:          0
ITLB TOTAL ACCESSES:   77992229 HITS:   77992228 MISSES:          1
ITLB LOAD ACCESSES:   77992229 HITS:   77992228 MISSES:          1
ITLB RFO ACCESSES:          0 HITS:          0 MISSES:          0
ITLB PREFETCH ACCESSES:          0 HITS:          0 MISSES:          0
ITLB WRITEBACK ACCESSES:          0 HITS:          0 MISSES:          0
ITLB RQ ACCESS:  499999995
ITLB RQ TO_CACHE:   77992229
ITLB RQ MERGED:  422007766
ITLB RQ FORWARD:          0
ITLB WQ ACCESS:          0
ITLB WQ TO_CACHE:          0
ITLB WQ MERGED:          0
ITLB WQ FORWARD:          0
DTLB TOTAL     ACCESS:   98672331  HIT:   97790995  MISS:     881336
DTLB LOAD      ACCESS:   70892908  HIT:   70031375  MISS:     861533
DTLB RFO       ACCESS:   27779423  HIT:   27759620  MISS:      19803
DTLB PREFETCH  ACCESS:          0  HIT:          0  MISS:          0
DTLB WRITEBACK ACCESS:          0  HIT:          0  MISS:          0
DTLB PREFETCH  REQUESTED:          0  ISSUED:          0  USEFUL:          0  USELESS:          0
DTLB TOTAL MSHR MERGED:      87329
DTLB LOAD MSHR MERGED:      65588
DTLB RFO MSHR MERGED:      21741
DTLB PREFETCH MSHR MERGED:          0
DTLB WRITEBACK MSHR MERGED:          0
DTLB TOTAL ACCESSES:   98759660 HITS:   97790995 MISSES:     968665
DTLB LOAD ACCESSES:   70958496 HITS:   70031375 MISSES:     927121
DTLB RFO ACCESSES:   27801164 HITS:   27759620 MISSES:      41544
DTLB PREFETCH ACCESSES:          0 HITS:          0 MISSES:          0
DTLB WRITEBACK ACCESSES:          0 HITS:          0 MISSES:          0
DTLB RQ ACCESS:  150278985
DTLB RQ TO_CACHE:   98759660
DTLB RQ MERGED:   51519325
DTLB RQ FORWARD:          0
DTLB WQ ACCESS:          0
DTLB WQ TO_CACHE:          0
DTLB WQ MERGED:          0
DTLB WQ FORWARD:          0
L1D TOTAL     ACCESS:  173339067  HIT:  169170451  MISS:    4168616
L1D LOAD      ACCESS:   75287624  HIT:   73406236  MISS:    1881388
L1D RFO       ACCESS:   36778390  HIT:   36571777  MISS:     206613
L1D PREFETCH  ACCESS:   61273053  HIT:   59192438  MISS:    2080615
L1D WRITEBACK ACCESS:          0  HIT:          0  MISS:          0
L1D PREFETCH  REQUESTED:   75391525  ISSUED:   74827323  USEFUL:     415065  USELESS:    1665539
L1D TOTAL MSHR MERGED:     377016
L1D LOAD MSHR MERGED:     112737
L1D RFO MSHR MERGED:     133020
L1D PREFETCH MSHR MERGED:     131259
L1D WRITEBACK MSHR MERGED:          0
L1D TOTAL ACCESSES:  173867712 HITS:  169322080 MISSES:    4545632
L1D LOAD ACCESSES:   75394391 HITS:   73409102 MISSES:    1985289
L1D RFO ACCESSES:   36910006 HITS:   36571777 MISSES:     338229
L1D PREFETCH ACCESSES:   61563315 HITS:   59341201 MISSES:    2222114
L1D WRITEBACK ACCESSES:          0 HITS:          0 MISSES:          0
L1D RQ ACCESS:  112616582
L1D RQ TO_CACHE:   75391525
L1D RQ MERGED:   37222191
L1D RQ FORWARD:          0
L1D WQ ACCESS:   37662403
L1D WQ TO_CACHE:   36910006
L1D WQ MERGED:     752397
L1D WQ FORWARD:     151629
L1I TOTAL     ACCESS:  100700263  HIT:  100700238  MISS:         25
L1I LOAD      ACCESS:  100700263  HIT:  100700238  MISS:         25
L1I RFO       ACCESS:          0  HIT:          0  MISS:          0
L1I PREFETCH  ACCESS:          0  HIT:          0  MISS:          0
L1I WRITEBACK ACCESS:          0  HIT:          0  MISS:          0
L1I PREFETCH  REQUESTED:          0  ISSUED:          0  USEFUL:          0  USELESS:          0
L1I TOTAL MSHR MERGED:         10
L1I LOAD MSHR MERGED:         10
L1I RFO MSHR MERGED:          0
L1I PREFETCH MSHR MERGED:          0
L1I WRITEBACK MSHR MERGED:          0
L1I TOTAL ACCESSES:  100700273 HITS:  100700238 MISSES:         35
L1I LOAD ACCESSES:  100700273 HITS:  100700238 MISSES:         35
L1I RFO ACCESSES:          0 HITS:          0 MISSES:          0
L1I PREFETCH ACCESSES:          0 HITS:          0 MISSES:          0
L1I WRITEBACK ACCESSES:          0 HITS:          0 MISSES:          0
L1I RQ ACCESS:  499999995
L1I RQ TO_CACHE:  100700273
L1I RQ MERGED:  399299722
L1I RQ FORWARD:          0
L1I WQ ACCESS:          0
L1I WQ TO_CACHE:          0
L1I WQ MERGED:          0
L1I WQ FORWARD:          0
L2C TOTAL     ACCESS:    5852577  HIT:    4009402  MISS:    1843175
L2C LOAD      ACCESS:    1872451  HIT:    1061504  MISS:     810947
L2C RFO       ACCESS:     205204  HIT:     100562  MISS:     104642
L2C PREFETCH  ACCESS:    2169285  HIT:    1246119  MISS:     923166
L2C WRITEBACK ACCESS:    1605637  HIT:    1601217  MISS:       4420
L2C PREFETCH  REQUESTED:      91707  ISSUED:      91707  USEFUL:      86458  USELESS:     836731
L2C TOTAL MSHR MERGED:       1034
L2C LOAD MSHR MERGED:        262
L2C RFO MSHR MERGED:          0
L2C PREFETCH MSHR MERGED:        772
L2C WRITEBACK MSHR MERGED:          0
L2C TOTAL ACCESSES:    5853938 HITS:    4009570 MISSES:    1844368
L2C LOAD ACCESSES:    1872577 HITS:    1061630 MISSES:     810947
L2C RFO ACCESSES:     205209 HITS:     100567 MISSES:     104642
L2C PREFETCH ACCESSES:    2170515 HITS:    1246156 MISSES:     924359
L2C WRITEBACK ACCESSES:    1605637 HITS:    1601217 MISSES:       4420
L2C RQ ACCESS:    2077786
L2C RQ TO_CACHE:    2077655
L2C RQ MERGED:          0
L2C RQ FORWARD:          0
L2C WQ ACCESS:    1605637
L2C WQ TO_CACHE:    1605637
L2C WQ MERGED:          0
L2C WQ FORWARD:        168
LLC TOTAL     ACCESS:    2673558  HIT:    2138578  MISS:     534980
LLC LOAD      ACCESS:     810675  HIT:     626003  MISS:     184672
LLC RFO       ACCESS:     104642  HIT:      59650  MISS:      44992
LLC PREFETCH  ACCESS:     923570  HIT:     656166  MISS:     267404
LLC WRITEBACK ACCESS:     834671  HIT:     796759  MISS:      37912
LLC PREFETCH  REQUESTED:          0  ISSUED:          0  USEFUL:       9261  USELESS:     258383
LLC TOTAL MSHR MERGED:          6
LLC LOAD MSHR MERGED:          2
LLC RFO MSHR MERGED:          0
LLC PREFETCH MSHR MERGED:          4
LLC WRITEBACK MSHR MERGED:          0
LLC TOTAL ACCESSES:    2673576 HITS:    2138590 MISSES:     534986
LLC LOAD ACCESSES:     810685 HITS:     626013 MISSES:     184672
LLC RFO ACCESSES:     104642 HITS:      59650 MISSES:      44992
LLC PREFETCH ACCESSES:     923578 HITS:     656168 MISSES:     267410
LLC WRITEBACK ACCESSES:     834671 HITS:     796759 MISSES:      37912
LLC 0 RQ ACCESS:     915327
LLC 0 RQ TO_CACHE:     915317
LLC 0 RQ MERGED:          0
LLC 0 RQ FORWARD:          0
LLC WQ ACCESS:     834671
LLC WQ TO_CACHE:     834671
LLC WQ MERGED:          0
LLC WQ FORWARD:         12
Major fault: 0 Minor fault: 11278
CPU 0 L1D next line prefetcher final stats
CPU 0 L2C PC-based stride prefetcher final stats
All Misses: 652067
All Hits: 2402509
SD Algo Stats - Switches: 0 SRR-Repls: 218711 BRR-Repls: 0

DRAM Statistics
 CHANNEL 0
 RQ ROW_BUFFER_HIT:      30684  ROW_BUFFER_MISS:     465805
 DBUS_CONGESTED:     366484
 WQ ROW_BUFFER_HIT:      15233  ROW_BUFFER_MISS:     210416  FULL:          0

 AVG_CONGESTED_CYCLE: 13
LOADS RETIRED: 121769268
INSTR RETIRED: 500000000
