
*** ChampSim Multicore Out-of-Order Simulator ***

Warmup Instructions: 100000000
Simulation Instructions: 500000000
Number of CPUs: 1
LLC sets: 2048
LLC ways: 16
Clean RRIP Policies: 22030100220301 Dirty RRIP Policies: 1022130110221301 PSEL Width: 10 Track Set: 4294967295 PSEL Mask: 1 Demote Mask: 2014211020142110DS Algo: 0Window size: 0
Off-chip DRAM Size: 4096 MB Channels: 1 Width: 64-bit Data Rate: 1600 MT/s

CPU 0 runs /mnt/beegfs/iconst01/spec2017/Gcc.trace.gz
NOT SORTED
TRACE STRING: /mnt/beegfs/iconst01/spec2017/Gcc.trace.gz
SORTED
TRACE STRING: /mnt/beegfs/iconst01/spec2017/Gcc.trace.gz
INITIAL
TRACE STRING: /mnt/beegfs/iconst01/spec2017/Gcc.trace.gz

champsim_seed used: 269

CPU 0 L1D next line prefetcher
CPU 0 L2C IP-based stride prefetcher
Initialize DRRIP state
Assign rand_sets[0]: 454  LLC: 2048
rand_sets[0]: 454
Assign rand_sets[1]: 1662  LLC: 2048
rand_sets[1]: 1662
Assign rand_sets[2]: 1921  LLC: 2048
rand_sets[2]: 1921
Assign rand_sets[3]: 1131  LLC: 2048
rand_sets[3]: 1131
Assign rand_sets[4]: 331  LLC: 2048
rand_sets[4]: 331
Assign rand_sets[5]: 1531  LLC: 2048
rand_sets[5]: 1531
Assign rand_sets[6]: 482  LLC: 2048
rand_sets[6]: 482
Assign rand_sets[7]: 1275  LLC: 2048
rand_sets[7]: 1275
Assign rand_sets[8]: 1876  LLC: 2048
rand_sets[8]: 1876
Assign rand_sets[9]: 2038  LLC: 2048
rand_sets[9]: 2038
Assign rand_sets[10]: 701  LLC: 2048
rand_sets[10]: 701
Assign rand_sets[11]: 479  LLC: 2048
rand_sets[11]: 479
Assign rand_sets[12]: 892  LLC: 2048
rand_sets[12]: 892
Assign rand_sets[13]: 1820  LLC: 2048
rand_sets[13]: 1820
Assign rand_sets[14]: 1505  LLC: 2048
rand_sets[14]: 1505
Assign rand_sets[15]: 1159  LLC: 2048
rand_sets[15]: 1159
Assign rand_sets[16]: 513  LLC: 2048
rand_sets[16]: 513
Assign rand_sets[17]: 703  LLC: 2048
rand_sets[17]: 703
Assign rand_sets[18]: 561  LLC: 2048
rand_sets[18]: 561
Assign rand_sets[19]: 990  LLC: 2048
rand_sets[19]: 990
Assign rand_sets[20]: 342  LLC: 2048
rand_sets[20]: 342
Assign rand_sets[21]: 882  LLC: 2048
rand_sets[21]: 882
Assign rand_sets[22]: 15  LLC: 2048
rand_sets[22]: 15
Assign rand_sets[23]: 71  LLC: 2048
rand_sets[23]: 71
Assign rand_sets[24]: 1127  LLC: 2048
rand_sets[24]: 1127
Assign rand_sets[25]: 1382  LLC: 2048
rand_sets[25]: 1382
Assign rand_sets[26]: 647  LLC: 2048
rand_sets[26]: 647
Assign rand_sets[27]: 857  LLC: 2048
rand_sets[27]: 857
Assign rand_sets[28]: 1450  LLC: 2048
rand_sets[28]: 1450
Assign rand_sets[29]: 1160  LLC: 2048
rand_sets[29]: 1160
Assign rand_sets[30]: 1852  LLC: 2048
rand_sets[30]: 1852
Assign rand_sets[31]: 1881  LLC: 2048
rand_sets[31]: 1881
Assign rand_sets[32]: 1770  LLC: 2048
rand_sets[32]: 1770
Assign rand_sets[33]: 1622  LLC: 2048
rand_sets[33]: 1622
Assign rand_sets[34]: 275  LLC: 2048
rand_sets[34]: 275
Assign rand_sets[35]: 635  LLC: 2048
rand_sets[35]: 635
Assign rand_sets[36]: 466  LLC: 2048
rand_sets[36]: 466
Assign rand_sets[37]: 1413  LLC: 2048
rand_sets[37]: 1413
Assign rand_sets[38]: 417  LLC: 2048
rand_sets[38]: 417
Assign rand_sets[39]: 472  LLC: 2048
rand_sets[39]: 472
Assign rand_sets[40]: 1340  LLC: 2048
rand_sets[40]: 1340
Assign rand_sets[41]: 852  LLC: 2048
rand_sets[41]: 852
Assign rand_sets[42]: 1365  LLC: 2048
rand_sets[42]: 1365
Assign rand_sets[43]: 47  LLC: 2048
rand_sets[43]: 47
Assign rand_sets[44]: 823  LLC: 2048
rand_sets[44]: 823
Assign rand_sets[45]: 686  LLC: 2048
rand_sets[45]: 686
Assign rand_sets[46]: 1637  LLC: 2048
rand_sets[46]: 1637
Assign rand_sets[47]: 1115  LLC: 2048
rand_sets[47]: 1115
Assign rand_sets[48]: 986  LLC: 2048
rand_sets[48]: 986
Assign rand_sets[49]: 258  LLC: 2048
rand_sets[49]: 258
Assign rand_sets[50]: 633  LLC: 2048
rand_sets[50]: 633
Assign rand_sets[51]: 920  LLC: 2048
rand_sets[51]: 920
Assign rand_sets[52]: 204  LLC: 2048
rand_sets[52]: 204
Assign rand_sets[53]: 227  LLC: 2048
rand_sets[53]: 227
Assign rand_sets[54]: 1818  LLC: 2048
rand_sets[54]: 1818
Assign rand_sets[55]: 886  LLC: 2048
rand_sets[55]: 886
Assign rand_sets[56]: 1422  LLC: 2048
rand_sets[56]: 1422
Assign rand_sets[57]: 607  LLC: 2048
rand_sets[57]: 607
Assign rand_sets[58]: 217  LLC: 2048
rand_sets[58]: 217
Assign rand_sets[59]: 1945  LLC: 2048
rand_sets[59]: 1945
Assign rand_sets[60]: 143  LLC: 2048
rand_sets[60]: 143
Assign rand_sets[61]: 1311  LLC: 2048
rand_sets[61]: 1311
Assign rand_sets[62]: 319  LLC: 2048
rand_sets[62]: 319
Assign rand_sets[63]: 1846  LLC: 2048
rand_sets[63]: 1846
 CLEAN-RRIP-POLICY-1: 0-0-2-2-0-3-0-1- CLEAN-RRIP-POLICY-2: 0-0-2-2-0-3-0-1-
 DIRTY-RRIP-POLICY-1: 1-0-2-2-1-3-0-1- DIRTY-RRIP-POLICY-2: 1-0-2-2-1-3-0-1-
 PSEL width: 10
Heartbeat CPU 0 instructions: 10000001 cycles: 7315909 heartbeat IPC: 1.36688 cumulative IPC: 1.36688 (Simulation time: 0 hr 0 min 14 sec) 
Heartbeat CPU 0 instructions: 20000000 cycles: 14307608 heartbeat IPC: 1.43027 cumulative IPC: 1.39786 (Simulation time: 0 hr 0 min 27 sec) 
Heartbeat CPU 0 instructions: 30000001 cycles: 21020689 heartbeat IPC: 1.48963 cumulative IPC: 1.42717 (Simulation time: 0 hr 0 min 43 sec) 
Heartbeat CPU 0 instructions: 40000000 cycles: 27481593 heartbeat IPC: 1.54777 cumulative IPC: 1.45552 (Simulation time: 0 hr 0 min 58 sec) 
Heartbeat CPU 0 instructions: 50000001 cycles: 33583413 heartbeat IPC: 1.63886 cumulative IPC: 1.48883 (Simulation time: 0 hr 1 min 13 sec) 
Heartbeat CPU 0 instructions: 60000000 cycles: 40064689 heartbeat IPC: 1.54291 cumulative IPC: 1.49758 (Simulation time: 0 hr 1 min 28 sec) 
Heartbeat CPU 0 instructions: 70000000 cycles: 47104206 heartbeat IPC: 1.42055 cumulative IPC: 1.48607 (Simulation time: 0 hr 1 min 42 sec) 
Heartbeat CPU 0 instructions: 80000000 cycles: 54195126 heartbeat IPC: 1.41025 cumulative IPC: 1.47615 (Simulation time: 0 hr 1 min 56 sec) 
Heartbeat CPU 0 instructions: 90000003 cycles: 61200779 heartbeat IPC: 1.42742 cumulative IPC: 1.47057 (Simulation time: 0 hr 2 min 10 sec) 
Heartbeat CPU 0 instructions: 100000000 cycles: 68369248 heartbeat IPC: 1.395 cumulative IPC: 1.46265 (Simulation time: 0 hr 2 min 24 sec) 

Warmup complete CPU 0 instructions: 100000004 cycles: 68369249 (Simulation time: 0 hr 2 min 24 sec) 

Heartbeat CPU 0 instructions: 110000003 cycles: 96167543 heartbeat IPC: 0.359734 cumulative IPC: 0.359734 (Simulation time: 0 hr 2 min 51 sec) 
Heartbeat CPU 0 instructions: 120000000 cycles: 123687935 heartbeat IPC: 0.363367 cumulative IPC: 0.361541 (Simulation time: 0 hr 3 min 18 sec) 
Heartbeat CPU 0 instructions: 130000000 cycles: 148722112 heartbeat IPC: 0.399454 cumulative IPC: 0.373353 (Simulation time: 0 hr 3 min 45 sec) 
Heartbeat CPU 0 instructions: 140000000 cycles: 178526365 heartbeat IPC: 0.335523 cumulative IPC: 0.363118 (Simulation time: 0 hr 4 min 12 sec) 
Heartbeat CPU 0 instructions: 150000000 cycles: 208562953 heartbeat IPC: 0.332927 cumulative IPC: 0.356649 (Simulation time: 0 hr 4 min 39 sec) 
Heartbeat CPU 0 instructions: 160000000 cycles: 236033059 heartbeat IPC: 0.364032 cumulative IPC: 0.357859 (Simulation time: 0 hr 5 min 5 sec) 
Heartbeat CPU 0 instructions: 170000001 cycles: 264165352 heartbeat IPC: 0.355463 cumulative IPC: 0.357515 (Simulation time: 0 hr 5 min 33 sec) 
Heartbeat CPU 0 instructions: 180000000 cycles: 292712529 heartbeat IPC: 0.350297 cumulative IPC: 0.356596 (Simulation time: 0 hr 6 min 1 sec) 
Heartbeat CPU 0 instructions: 190000002 cycles: 320909742 heartbeat IPC: 0.354645 cumulative IPC: 0.356378 (Simulation time: 0 hr 6 min 28 sec) 
Heartbeat CPU 0 instructions: 200000000 cycles: 349366223 heartbeat IPC: 0.351414 cumulative IPC: 0.355876 (Simulation time: 0 hr 6 min 55 sec) 
Heartbeat CPU 0 instructions: 210000002 cycles: 377374199 heartbeat IPC: 0.357041 cumulative IPC: 0.355981 (Simulation time: 0 hr 7 min 22 sec) 
Heartbeat CPU 0 instructions: 220000000 cycles: 406822767 heartbeat IPC: 0.339575 cumulative IPC: 0.354554 (Simulation time: 0 hr 7 min 48 sec) 
Heartbeat CPU 0 instructions: 230000000 cycles: 434486026 heartbeat IPC: 0.36149 cumulative IPC: 0.355078 (Simulation time: 0 hr 8 min 15 sec) 
Heartbeat CPU 0 instructions: 240000000 cycles: 460455400 heartbeat IPC: 0.385069 cumulative IPC: 0.357064 (Simulation time: 0 hr 8 min 40 sec) 
Heartbeat CPU 0 instructions: 250000000 cycles: 490633201 heartbeat IPC: 0.331369 cumulative IPC: 0.355228 (Simulation time: 0 hr 9 min 9 sec) 
Heartbeat CPU 0 instructions: 260000000 cycles: 517754290 heartbeat IPC: 0.368717 cumulative IPC: 0.356042 (Simulation time: 0 hr 9 min 35 sec) 
Heartbeat CPU 0 instructions: 270000003 cycles: 546279197 heartbeat IPC: 0.350571 cumulative IPC: 0.355716 (Simulation time: 0 hr 10 min 3 sec) 
Heartbeat CPU 0 instructions: 280000000 cycles: 574609146 heartbeat IPC: 0.352983 cumulative IPC: 0.355563 (Simulation time: 0 hr 10 min 31 sec) 
Heartbeat CPU 0 instructions: 290000000 cycles: 603611395 heartbeat IPC: 0.344801 cumulative IPC: 0.35498 (Simulation time: 0 hr 11 min 0 sec) 
Heartbeat CPU 0 instructions: 300000000 cycles: 634009051 heartbeat IPC: 0.328973 cumulative IPC: 0.353582 (Simulation time: 0 hr 11 min 26 sec) 
Heartbeat CPU 0 instructions: 310000001 cycles: 663675632 heartbeat IPC: 0.33708 cumulative IPC: 0.35276 (Simulation time: 0 hr 11 min 53 sec) 
Heartbeat CPU 0 instructions: 320000000 cycles: 692165773 heartbeat IPC: 0.350999 cumulative IPC: 0.352679 (Simulation time: 0 hr 12 min 19 sec) 
Heartbeat CPU 0 instructions: 330000000 cycles: 721000886 heartbeat IPC: 0.346799 cumulative IPC: 0.352419 (Simulation time: 0 hr 12 min 46 sec) 
Heartbeat CPU 0 instructions: 340000000 cycles: 750468269 heartbeat IPC: 0.339358 cumulative IPC: 0.351855 (Simulation time: 0 hr 13 min 13 sec) 
Heartbeat CPU 0 instructions: 350000003 cycles: 777618061 heartbeat IPC: 0.368327 cumulative IPC: 0.352486 (Simulation time: 0 hr 13 min 38 sec) 
Heartbeat CPU 0 instructions: 360000000 cycles: 806041232 heartbeat IPC: 0.351826 cumulative IPC: 0.35246 (Simulation time: 0 hr 14 min 4 sec) 
Heartbeat CPU 0 instructions: 370000000 cycles: 834395290 heartbeat IPC: 0.352683 cumulative IPC: 0.352468 (Simulation time: 0 hr 14 min 29 sec) 
Heartbeat CPU 0 instructions: 380000000 cycles: 863037164 heartbeat IPC: 0.349139 cumulative IPC: 0.352348 (Simulation time: 0 hr 14 min 54 sec) 
Heartbeat CPU 0 instructions: 390000001 cycles: 890732978 heartbeat IPC: 0.361065 cumulative IPC: 0.352642 (Simulation time: 0 hr 15 min 19 sec) 
Heartbeat CPU 0 instructions: 400000000 cycles: 919478205 heartbeat IPC: 0.347884 cumulative IPC: 0.352481 (Simulation time: 0 hr 15 min 45 sec) 
Heartbeat CPU 0 instructions: 410000001 cycles: 946841966 heartbeat IPC: 0.365447 cumulative IPC: 0.352885 (Simulation time: 0 hr 16 min 10 sec) 
Heartbeat CPU 0 instructions: 420000000 cycles: 974209989 heartbeat IPC: 0.36539 cumulative IPC: 0.353263 (Simulation time: 0 hr 16 min 34 sec) 
Heartbeat CPU 0 instructions: 430000002 cycles: 1001983546 heartbeat IPC: 0.360055 cumulative IPC: 0.353465 (Simulation time: 0 hr 16 min 59 sec) 
Heartbeat CPU 0 instructions: 440000000 cycles: 1031688591 heartbeat IPC: 0.336643 cumulative IPC: 0.352946 (Simulation time: 0 hr 17 min 25 sec) 
Heartbeat CPU 0 instructions: 450000002 cycles: 1061087290 heartbeat IPC: 0.340151 cumulative IPC: 0.352567 (Simulation time: 0 hr 17 min 50 sec) 
Heartbeat CPU 0 instructions: 460000000 cycles: 1088850253 heartbeat IPC: 0.360192 cumulative IPC: 0.352775 (Simulation time: 0 hr 18 min 15 sec) 
Heartbeat CPU 0 instructions: 470000000 cycles: 1116520395 heartbeat IPC: 0.3614 cumulative IPC: 0.353003 (Simulation time: 0 hr 18 min 40 sec) 
Heartbeat CPU 0 instructions: 480000000 cycles: 1144451887 heartbeat IPC: 0.358019 cumulative IPC: 0.353133 (Simulation time: 0 hr 19 min 5 sec) 
Heartbeat CPU 0 instructions: 490000000 cycles: 1172076083 heartbeat IPC: 0.362001 cumulative IPC: 0.353355 (Simulation time: 0 hr 19 min 29 sec) 
Heartbeat CPU 0 instructions: 500000000 cycles: 1200435004 heartbeat IPC: 0.352623 cumulative IPC: 0.353336 (Simulation time: 0 hr 19 min 55 sec) 
Heartbeat CPU 0 instructions: 510000000 cycles: 1234846280 heartbeat IPC: 0.290602 cumulative IPC: 0.351486 (Simulation time: 0 hr 20 min 23 sec) 
Heartbeat CPU 0 instructions: 520000000 cycles: 1262841268 heartbeat IPC: 0.357207 cumulative IPC: 0.35162 (Simulation time: 0 hr 20 min 49 sec) 
Heartbeat CPU 0 instructions: 530000001 cycles: 1292522252 heartbeat IPC: 0.336916 cumulative IPC: 0.351263 (Simulation time: 0 hr 21 min 15 sec) 
Heartbeat CPU 0 instructions: 540000000 cycles: 1320768091 heartbeat IPC: 0.354034 cumulative IPC: 0.351326 (Simulation time: 0 hr 21 min 41 sec) 
Heartbeat CPU 0 instructions: 550000001 cycles: 1350032941 heartbeat IPC: 0.341707 cumulative IPC: 0.351106 (Simulation time: 0 hr 22 min 9 sec) 
Heartbeat CPU 0 instructions: 560000000 cycles: 1375484887 heartbeat IPC: 0.392897 cumulative IPC: 0.35192 (Simulation time: 0 hr 22 min 34 sec) 
Heartbeat CPU 0 instructions: 570000000 cycles: 1405206928 heartbeat IPC: 0.336451 cumulative IPC: 0.351576 (Simulation time: 0 hr 23 min 1 sec) 
Heartbeat CPU 0 instructions: 580000000 cycles: 1433342626 heartbeat IPC: 0.35542 cumulative IPC: 0.351655 (Simulation time: 0 hr 23 min 27 sec) 
Heartbeat CPU 0 instructions: 590000001 cycles: 1458110538 heartbeat IPC: 0.403748 cumulative IPC: 0.352584 (Simulation time: 0 hr 23 min 51 sec) 
Heartbeat CPU 0 instructions: 600000000 cycles: 1484234516 heartbeat IPC: 0.38279 cumulative IPC: 0.353141 (Simulation time: 0 hr 24 min 17 sec) 
Finished CPU 0 instructions: 500000000 cycles: 1415865289 cumulative IPC: 0.353141 (Simulation time: 0 hr 24 min 17 sec) 

CPU 0 Branch Prediction Accuracy: 86.4311% MPKI: 26.2662
Number of Branches: 96788573 Number of Mispredictions: 13133102
Number of LOAD Instructions: 164682285
Number of LOAD Instructions (ROI): 164682285
Number of STORE Instructions: 78194750
Number of STORE Instructions (ROI): 78194750
Total Destination Memory Operands: 83268534
Total Destination Memory Operands (ROI): 83268534
Total Source Memory Operands: 164712438
Total Source Memory Operands (ROI): 164712438
Number of DEPENDED LOADS: 7058193
Number of DEPENDED LOADS (ROI): 7058193
Number of SQ_ADDED: 83268522
Number of SQ_ADDED (ROI): 83268522
Number of LQ_ADDED: 236572217
Number of LQ_ADDED (ROI): 236572217
Number of Instructions read from trace: 600000066

ChampSim completed all CPUs

Region of Interest Statistics

CPU 0 cumulative IPC: 0.353141 instructions: 500000000 cycles: 1415865289
ITLB TOTAL     ACCESS:  100517140  HIT:  100312694  MISS:     204446
ITLB LOAD      ACCESS:  100517140  HIT:  100312694  MISS:     204446
ITLB RFO       ACCESS:          0  HIT:          0  MISS:          0
ITLB PREFETCH  ACCESS:          0  HIT:          0  MISS:          0
ITLB WRITEBACK ACCESS:          0  HIT:          0  MISS:          0
ITLB PREFETCH  REQUESTED:          0  ISSUED:          0  USEFUL:          0  USELESS:          0
ITLB TOTAL MSHR MERGED:     172424
ITLB LOAD MSHR MERGED:     172424
ITLB RFO MSHR MERGED:          0
ITLB PREFETCH MSHR MERGED:          0
ITLB WRITEBACK MSHR MERGED:          0
ITLB TOTAL ACCESSES:  100689564 HITS:  100312694 MISSES:     376870
ITLB LOAD ACCESSES:  100689564 HITS:  100312694 MISSES:     376870
ITLB RFO ACCESSES:          0 HITS:          0 MISSES:          0
ITLB PREFETCH ACCESSES:          0 HITS:          0 MISSES:          0
ITLB WRITEBACK ACCESSES:          0 HITS:          0 MISSES:          0
ITLB RQ ACCESS:  500000057
ITLB RQ TO_CACHE:  100689564
ITLB RQ MERGED:  399310493
ITLB RQ FORWARD:          0
ITLB WQ ACCESS:          0
ITLB WQ TO_CACHE:          0
ITLB WQ MERGED:          0
ITLB WQ FORWARD:          0
DTLB TOTAL     ACCESS:  165339953  HIT:  164705601  MISS:     634352
DTLB LOAD      ACCESS:  106294578  HIT:  105724622  MISS:     569956
DTLB RFO       ACCESS:   59045375  HIT:   58980979  MISS:      64396
DTLB PREFETCH  ACCESS:          0  HIT:          0  MISS:          0
DTLB WRITEBACK ACCESS:          0  HIT:          0  MISS:          0
DTLB PREFETCH  REQUESTED:          0  ISSUED:          0  USEFUL:          0  USELESS:          0
DTLB TOTAL MSHR MERGED:      99841
DTLB LOAD MSHR MERGED:      59380
DTLB RFO MSHR MERGED:      40461
DTLB PREFETCH MSHR MERGED:          0
DTLB WRITEBACK MSHR MERGED:          0
DTLB TOTAL ACCESSES:  165439794 HITS:  164705601 MISSES:     734193
DTLB LOAD ACCESSES:  106353958 HITS:  105724622 MISSES:     629336
DTLB RFO ACCESSES:   59085836 HITS:   58980979 MISSES:     104857
DTLB PREFETCH ACCESSES:          0 HITS:          0 MISSES:          0
DTLB WRITEBACK ACCESSES:          0 HITS:          0 MISSES:          0
DTLB RQ ACCESS:  200312715
DTLB RQ TO_CACHE:  165439794
DTLB RQ MERGED:   34872921
DTLB RQ FORWARD:          0
DTLB WQ ACCESS:          0
DTLB WQ TO_CACHE:          0
DTLB WQ MERGED:          0
DTLB WQ FORWARD:          0
L1D TOTAL     ACCESS:  281864607  HIT:  273955228  MISS:    7909379
L1D LOAD      ACCESS:  110428715  HIT:  107152483  MISS:    3276232
L1D RFO       ACCESS:   67124301  HIT:   66233916  MISS:     890385
L1D PREFETCH  ACCESS:  104311591  HIT:  100568829  MISS:    3742762
L1D WRITEBACK ACCESS:          0  HIT:          0  MISS:          0
L1D PREFETCH  REQUESTED:  110820109  ISSUED:  109120773  USEFUL:    1663429  USELESS:    2079297
L1D TOTAL MSHR MERGED:    2846623
L1D LOAD MSHR MERGED:     487180
L1D RFO MSHR MERGED:    1861482
L1D PREFETCH MSHR MERGED:     497961
L1D WRITEBACK MSHR MERGED:          0
L1D TOTAL ACCESSES:  284738644 HITS:  273982642 MISSES:   10756002
L1D LOAD ACCESSES:  110821536 HITS:  107153910 MISSES:    3667626
L1D RFO ACCESSES:   68974190 HITS:   66233916 MISSES:    2740274
L1D PREFETCH ACCESSES:  104942918 HITS:  100594816 MISSES:    4348102
L1D WRITEBACK ACCESSES:          0 HITS:          0 MISSES:          0
L1D RQ ACCESS:  130760112
L1D RQ TO_CACHE:  110820112
L1D RQ MERGED:   19938573
L1D RQ FORWARD:          0
L1D WQ ACCESS:   69552603
L1D WQ TO_CACHE:   68974191
L1D WQ MERGED:     578412
L1D WQ FORWARD:      27414
L1I TOTAL     ACCESS:  126564110  HIT:  122325557  MISS:    4238553
L1I LOAD      ACCESS:  126564110  HIT:  122325557  MISS:    4238553
L1I RFO       ACCESS:          0  HIT:          0  MISS:          0
L1I PREFETCH  ACCESS:          0  HIT:          0  MISS:          0
L1I WRITEBACK ACCESS:          0  HIT:          0  MISS:          0
L1I PREFETCH  REQUESTED:          0  ISSUED:          0  USEFUL:          0  USELESS:          0
L1I TOTAL MSHR MERGED:    1834796
L1I LOAD MSHR MERGED:    1834796
L1I RFO MSHR MERGED:          0
L1I PREFETCH MSHR MERGED:          0
L1I WRITEBACK MSHR MERGED:          0
L1I TOTAL ACCESSES:  128398909 HITS:  122325557 MISSES:    6073352
L1I LOAD ACCESSES:  128398909 HITS:  122325557 MISSES:    6073352
L1I RFO ACCESSES:          0 HITS:          0 MISSES:          0
L1I PREFETCH ACCESSES:          0 HITS:          0 MISSES:          0
L1I WRITEBACK ACCESSES:          0 HITS:          0 MISSES:          0
L1I RQ ACCESS:  500000057
L1I RQ TO_CACHE:  128398909
L1I RQ MERGED:  371601148
L1I RQ FORWARD:          0
L1I WQ ACCESS:          0
L1I WQ TO_CACHE:          0
L1I WQ MERGED:          0
L1I WQ FORWARD:          0
L2C TOTAL     ACCESS:   14905401  HIT:   11158871  MISS:    3746530
L2C LOAD      ACCESS:    7418789  HIT:    5098836  MISS:    2319953
L2C RFO       ACCESS:     878694  HIT:     409904  MISS:     468790
L2C PREFETCH  ACCESS:    4568666  HIT:    3628132  MISS:     940534
L2C WRITEBACK ACCESS:    2039252  HIT:    2021999  MISS:      17253
L2C PREFETCH  REQUESTED:     842742  ISSUED:     842742  USEFUL:     203397  USELESS:     736843
L2C TOTAL MSHR MERGED:       6945
L2C LOAD MSHR MERGED:        752
L2C RFO MSHR MERGED:          0
L2C PREFETCH MSHR MERGED:       6193
L2C WRITEBACK MSHR MERGED:          0
L2C TOTAL ACCESSES:   14913247 HITS:   11159321 MISSES:    3753926
L2C LOAD ACCESSES:    7418999 HITS:    5099046 MISSES:    2319953
L2C RFO ACCESSES:     878792 HITS:     410002 MISSES:     468790
L2C PREFETCH ACCESSES:    4576204 HITS:    3628274 MISSES:     947930
L2C WRITEBACK ACCESSES:    2039252 HITS:    2021999 MISSES:      17253
L2C RQ ACCESS:    8297794
L2C RQ TO_CACHE:    8297486
L2C RQ MERGED:          0
L2C RQ FORWARD:          0
L2C WQ ACCESS:    2039252
L2C WQ TO_CACHE:    2039252
L2C WQ MERGED:          0
L2C WQ FORWARD:        450
LLC TOTAL     ACCESS:    4609875  HIT:    3946827  MISS:     663048
LLC LOAD      ACCESS:    2319187  HIT:    2014983  MISS:     304204
LLC RFO       ACCESS:     468780  HIT:     408032  MISS:      60748
LLC PREFETCH  ACCESS:     941614  HIT:     683756  MISS:     257858
LLC WRITEBACK ACCESS:     880294  HIT:     840056  MISS:      40238
LLC PREFETCH  REQUESTED:          0  ISSUED:          0  USEFUL:      31449  USELESS:     226712
LLC TOTAL MSHR MERGED:        104
LLC LOAD MSHR MERGED:         30
LLC RFO MSHR MERGED:          0
LLC PREFETCH MSHR MERGED:         74
LLC WRITEBACK MSHR MERGED:          0
LLC TOTAL ACCESSES:    4610013 HITS:    3946861 MISSES:     663152
LLC LOAD ACCESSES:    2319201 HITS:    2014997 MISSES:     304204
LLC RFO ACCESSES:     468790 HITS:     408042 MISSES:      60748
LLC PREFETCH ACCESSES:     941728 HITS:     683766 MISSES:     257962
LLC WRITEBACK ACCESSES:     880294 HITS:     840056 MISSES:      40238
LLC 0 RQ ACCESS:    2787991
LLC 0 RQ TO_CACHE:    2787967
LLC 0 RQ MERGED:          0
LLC 0 RQ FORWARD:          0
LLC WQ ACCESS:     880294
LLC WQ TO_CACHE:     880294
LLC WQ MERGED:          0
LLC WQ FORWARD:         34
Major fault: 0 Minor fault: 12862
CPU 0 L1D next line prefetcher final stats
CPU 0 L2C PC-based stride prefetcher final stats
All Misses: 790528
All Hits: 4636353
SD Algo Stats - Switches: 0 SRR-Repls: 356262 BRR-Repls: 0

DRAM Statistics
 CHANNEL 0
 RQ ROW_BUFFER_HIT:     134549  ROW_BUFFER_MISS:     486972
 DBUS_CONGESTED:     349437
 WQ ROW_BUFFER_HIT:      12738  ROW_BUFFER_MISS:     173395  FULL:          0

 AVG_CONGESTED_CYCLE: 13
LOADS RETIRED: 136549171
INSTR RETIRED: 500000000
