
*** ChampSim Multicore Out-of-Order Simulator ***

Warmup Instructions: 100000000
Simulation Instructions: 500000000
Number of CPUs: 1
LLC sets: 2048
LLC ways: 16
Clean RRIP Policies: 22030100220301 Dirty RRIP Policies: 1022130110221301 PSEL Width: 10 Track Set: 4294967295 PSEL Mask: 1 Demote Mask: 2014211020142110DS Algo: 0Window size: 0
Off-chip DRAM Size: 4096 MB Channels: 1 Width: 64-bit Data Rate: 1600 MT/s

CPU 0 runs /mnt/beegfs/iconst01/spec2017/Wrf.trace.gz
NOT SORTED
TRACE STRING: /mnt/beegfs/iconst01/spec2017/Wrf.trace.gz
SORTED
TRACE STRING: /mnt/beegfs/iconst01/spec2017/Wrf.trace.gz
INITIAL
TRACE STRING: /mnt/beegfs/iconst01/spec2017/Wrf.trace.gz

champsim_seed used: 303

CPU 0 L1D next line prefetcher
CPU 0 L2C IP-based stride prefetcher
Initialize DRRIP state
Assign rand_sets[0]: 454  LLC: 2048
rand_sets[0]: 454
Assign rand_sets[1]: 1662  LLC: 2048
rand_sets[1]: 1662
Assign rand_sets[2]: 1921  LLC: 2048
rand_sets[2]: 1921
Assign rand_sets[3]: 1131  LLC: 2048
rand_sets[3]: 1131
Assign rand_sets[4]: 331  LLC: 2048
rand_sets[4]: 331
Assign rand_sets[5]: 1531  LLC: 2048
rand_sets[5]: 1531
Assign rand_sets[6]: 482  LLC: 2048
rand_sets[6]: 482
Assign rand_sets[7]: 1275  LLC: 2048
rand_sets[7]: 1275
Assign rand_sets[8]: 1876  LLC: 2048
rand_sets[8]: 1876
Assign rand_sets[9]: 2038  LLC: 2048
rand_sets[9]: 2038
Assign rand_sets[10]: 701  LLC: 2048
rand_sets[10]: 701
Assign rand_sets[11]: 479  LLC: 2048
rand_sets[11]: 479
Assign rand_sets[12]: 892  LLC: 2048
rand_sets[12]: 892
Assign rand_sets[13]: 1820  LLC: 2048
rand_sets[13]: 1820
Assign rand_sets[14]: 1505  LLC: 2048
rand_sets[14]: 1505
Assign rand_sets[15]: 1159  LLC: 2048
rand_sets[15]: 1159
Assign rand_sets[16]: 513  LLC: 2048
rand_sets[16]: 513
Assign rand_sets[17]: 703  LLC: 2048
rand_sets[17]: 703
Assign rand_sets[18]: 561  LLC: 2048
rand_sets[18]: 561
Assign rand_sets[19]: 990  LLC: 2048
rand_sets[19]: 990
Assign rand_sets[20]: 342  LLC: 2048
rand_sets[20]: 342
Assign rand_sets[21]: 882  LLC: 2048
rand_sets[21]: 882
Assign rand_sets[22]: 15  LLC: 2048
rand_sets[22]: 15
Assign rand_sets[23]: 71  LLC: 2048
rand_sets[23]: 71
Assign rand_sets[24]: 1127  LLC: 2048
rand_sets[24]: 1127
Assign rand_sets[25]: 1382  LLC: 2048
rand_sets[25]: 1382
Assign rand_sets[26]: 647  LLC: 2048
rand_sets[26]: 647
Assign rand_sets[27]: 857  LLC: 2048
rand_sets[27]: 857
Assign rand_sets[28]: 1450  LLC: 2048
rand_sets[28]: 1450
Assign rand_sets[29]: 1160  LLC: 2048
rand_sets[29]: 1160
Assign rand_sets[30]: 1852  LLC: 2048
rand_sets[30]: 1852
Assign rand_sets[31]: 1881  LLC: 2048
rand_sets[31]: 1881
Assign rand_sets[32]: 1770  LLC: 2048
rand_sets[32]: 1770
Assign rand_sets[33]: 1622  LLC: 2048
rand_sets[33]: 1622
Assign rand_sets[34]: 275  LLC: 2048
rand_sets[34]: 275
Assign rand_sets[35]: 635  LLC: 2048
rand_sets[35]: 635
Assign rand_sets[36]: 466  LLC: 2048
rand_sets[36]: 466
Assign rand_sets[37]: 1413  LLC: 2048
rand_sets[37]: 1413
Assign rand_sets[38]: 417  LLC: 2048
rand_sets[38]: 417
Assign rand_sets[39]: 472  LLC: 2048
rand_sets[39]: 472
Assign rand_sets[40]: 1340  LLC: 2048
rand_sets[40]: 1340
Assign rand_sets[41]: 852  LLC: 2048
rand_sets[41]: 852
Assign rand_sets[42]: 1365  LLC: 2048
rand_sets[42]: 1365
Assign rand_sets[43]: 47  LLC: 2048
rand_sets[43]: 47
Assign rand_sets[44]: 823  LLC: 2048
rand_sets[44]: 823
Assign rand_sets[45]: 686  LLC: 2048
rand_sets[45]: 686
Assign rand_sets[46]: 1637  LLC: 2048
rand_sets[46]: 1637
Assign rand_sets[47]: 1115  LLC: 2048
rand_sets[47]: 1115
Assign rand_sets[48]: 986  LLC: 2048
rand_sets[48]: 986
Assign rand_sets[49]: 258  LLC: 2048
rand_sets[49]: 258
Assign rand_sets[50]: 633  LLC: 2048
rand_sets[50]: 633
Assign rand_sets[51]: 920  LLC: 2048
rand_sets[51]: 920
Assign rand_sets[52]: 204  LLC: 2048
rand_sets[52]: 204
Assign rand_sets[53]: 227  LLC: 2048
rand_sets[53]: 227
Assign rand_sets[54]: 1818  LLC: 2048
rand_sets[54]: 1818
Assign rand_sets[55]: 886  LLC: 2048
rand_sets[55]: 886
Assign rand_sets[56]: 1422  LLC: 2048
rand_sets[56]: 1422
Assign rand_sets[57]: 607  LLC: 2048
rand_sets[57]: 607
Assign rand_sets[58]: 217  LLC: 2048
rand_sets[58]: 217
Assign rand_sets[59]: 1945  LLC: 2048
rand_sets[59]: 1945
Assign rand_sets[60]: 143  LLC: 2048
rand_sets[60]: 143
Assign rand_sets[61]: 1311  LLC: 2048
rand_sets[61]: 1311
Assign rand_sets[62]: 319  LLC: 2048
rand_sets[62]: 319
Assign rand_sets[63]: 1846  LLC: 2048
rand_sets[63]: 1846
 CLEAN-RRIP-POLICY-1: 0-0-2-2-0-3-0-1- CLEAN-RRIP-POLICY-2: 0-0-2-2-0-3-0-1-
 DIRTY-RRIP-POLICY-1: 1-0-2-2-1-3-0-1- DIRTY-RRIP-POLICY-2: 1-0-2-2-1-3-0-1-
 PSEL width: 10
Heartbeat CPU 0 instructions: 10000002 cycles: 6559548 heartbeat IPC: 1.5245 cumulative IPC: 1.5245 (Simulation time: 0 hr 0 min 22 sec) 
Heartbeat CPU 0 instructions: 20000000 cycles: 12222133 heartbeat IPC: 1.76598 cumulative IPC: 1.63638 (Simulation time: 0 hr 0 min 42 sec) 
Heartbeat CPU 0 instructions: 30000003 cycles: 18203928 heartbeat IPC: 1.67174 cumulative IPC: 1.648 (Simulation time: 0 hr 1 min 3 sec) 
Heartbeat CPU 0 instructions: 40000000 cycles: 24059272 heartbeat IPC: 1.70784 cumulative IPC: 1.66256 (Simulation time: 0 hr 1 min 23 sec) 
Heartbeat CPU 0 instructions: 50000000 cycles: 29527774 heartbeat IPC: 1.82865 cumulative IPC: 1.69332 (Simulation time: 0 hr 1 min 44 sec) 
Heartbeat CPU 0 instructions: 60000000 cycles: 35640371 heartbeat IPC: 1.63597 cumulative IPC: 1.68348 (Simulation time: 0 hr 2 min 5 sec) 
Heartbeat CPU 0 instructions: 70000000 cycles: 41360125 heartbeat IPC: 1.74833 cumulative IPC: 1.69245 (Simulation time: 0 hr 2 min 26 sec) 
Heartbeat CPU 0 instructions: 80000000 cycles: 47231098 heartbeat IPC: 1.7033 cumulative IPC: 1.6938 (Simulation time: 0 hr 2 min 47 sec) 
Heartbeat CPU 0 instructions: 90000000 cycles: 52984665 heartbeat IPC: 1.73805 cumulative IPC: 1.6986 (Simulation time: 0 hr 3 min 8 sec) 
Heartbeat CPU 0 instructions: 100000000 cycles: 58537699 heartbeat IPC: 1.80082 cumulative IPC: 1.7083 (Simulation time: 0 hr 3 min 28 sec) 

Warmup complete CPU 0 instructions: 100000004 cycles: 58537701 (Simulation time: 0 hr 3 min 28 sec) 

Heartbeat CPU 0 instructions: 110000001 cycles: 73145084 heartbeat IPC: 0.684585 cumulative IPC: 0.684585 (Simulation time: 0 hr 3 min 55 sec) 
Heartbeat CPU 0 instructions: 120000000 cycles: 84343244 heartbeat IPC: 0.893004 cumulative IPC: 0.775027 (Simulation time: 0 hr 4 min 19 sec) 
Heartbeat CPU 0 instructions: 130000000 cycles: 94994220 heartbeat IPC: 0.938881 cumulative IPC: 0.822898 (Simulation time: 0 hr 4 min 43 sec) 
Heartbeat CPU 0 instructions: 140000000 cycles: 106437369 heartbeat IPC: 0.873885 cumulative IPC: 0.835079 (Simulation time: 0 hr 5 min 7 sec) 
Heartbeat CPU 0 instructions: 150000002 cycles: 118000616 heartbeat IPC: 0.864809 cumulative IPC: 0.84086 (Simulation time: 0 hr 5 min 31 sec) 
Heartbeat CPU 0 instructions: 160000000 cycles: 127684888 heartbeat IPC: 1.0326 cumulative IPC: 0.867714 (Simulation time: 0 hr 5 min 54 sec) 
Heartbeat CPU 0 instructions: 170000003 cycles: 139168480 heartbeat IPC: 0.870808 cumulative IPC: 0.868155 (Simulation time: 0 hr 6 min 18 sec) 
Heartbeat CPU 0 instructions: 180000000 cycles: 152109712 heartbeat IPC: 0.772724 cumulative IPC: 0.854956 (Simulation time: 0 hr 6 min 43 sec) 
Heartbeat CPU 0 instructions: 190000000 cycles: 167258130 heartbeat IPC: 0.660135 cumulative IPC: 0.827811 (Simulation time: 0 hr 7 min 8 sec) 
Heartbeat CPU 0 instructions: 200000000 cycles: 182369244 heartbeat IPC: 0.661765 cumulative IPC: 0.807549 (Simulation time: 0 hr 7 min 32 sec) 
Heartbeat CPU 0 instructions: 210000000 cycles: 197448752 heartbeat IPC: 0.663152 cumulative IPC: 0.791874 (Simulation time: 0 hr 7 min 57 sec) 
Heartbeat CPU 0 instructions: 220000000 cycles: 213216123 heartbeat IPC: 0.634221 cumulative IPC: 0.775803 (Simulation time: 0 hr 8 min 23 sec) 
Heartbeat CPU 0 instructions: 230000003 cycles: 231497608 heartbeat IPC: 0.547002 cumulative IPC: 0.751619 (Simulation time: 0 hr 8 min 52 sec) 
Heartbeat CPU 0 instructions: 240000000 cycles: 241663522 heartbeat IPC: 0.983679 cumulative IPC: 0.764502 (Simulation time: 0 hr 9 min 15 sec) 
Heartbeat CPU 0 instructions: 250000000 cycles: 251089410 heartbeat IPC: 1.06091 cumulative IPC: 0.779011 (Simulation time: 0 hr 9 min 37 sec) 
Heartbeat CPU 0 instructions: 260000000 cycles: 260926841 heartbeat IPC: 1.01653 cumulative IPC: 0.790556 (Simulation time: 0 hr 10 min 0 sec) 
Heartbeat CPU 0 instructions: 270000000 cycles: 270917452 heartbeat IPC: 1.00094 cumulative IPC: 0.800453 (Simulation time: 0 hr 10 min 23 sec) 
Heartbeat CPU 0 instructions: 280000000 cycles: 280532716 heartbeat IPC: 1.04001 cumulative IPC: 0.810829 (Simulation time: 0 hr 10 min 47 sec) 
Heartbeat CPU 0 instructions: 290000000 cycles: 290663032 heartbeat IPC: 0.987136 cumulative IPC: 0.818523 (Simulation time: 0 hr 11 min 12 sec) 
Heartbeat CPU 0 instructions: 300000000 cycles: 299852139 heartbeat IPC: 1.08825 cumulative IPC: 0.828794 (Simulation time: 0 hr 11 min 35 sec) 
Heartbeat CPU 0 instructions: 310000002 cycles: 314696592 heartbeat IPC: 0.673652 cumulative IPC: 0.819804 (Simulation time: 0 hr 12 min 3 sec) 
Heartbeat CPU 0 instructions: 320000000 cycles: 331169520 heartbeat IPC: 0.607056 cumulative IPC: 0.806949 (Simulation time: 0 hr 12 min 32 sec) 
Heartbeat CPU 0 instructions: 330000002 cycles: 341917741 heartbeat IPC: 0.930387 cumulative IPC: 0.811631 (Simulation time: 0 hr 12 min 55 sec) 
Heartbeat CPU 0 instructions: 340000000 cycles: 352862602 heartbeat IPC: 0.913671 cumulative IPC: 0.815425 (Simulation time: 0 hr 13 min 20 sec) 
Heartbeat CPU 0 instructions: 350000002 cycles: 366502546 heartbeat IPC: 0.733141 cumulative IPC: 0.811781 (Simulation time: 0 hr 13 min 47 sec) 
Heartbeat CPU 0 instructions: 360000000 cycles: 378113759 heartbeat IPC: 0.861236 cumulative IPC: 0.813578 (Simulation time: 0 hr 14 min 11 sec) 
Heartbeat CPU 0 instructions: 370000000 cycles: 389152395 heartbeat IPC: 0.905909 cumulative IPC: 0.816661 (Simulation time: 0 hr 14 min 35 sec) 
Heartbeat CPU 0 instructions: 380000000 cycles: 399905877 heartbeat IPC: 0.929931 cumulative IPC: 0.820229 (Simulation time: 0 hr 15 min 0 sec) 
Heartbeat CPU 0 instructions: 390000003 cycles: 418011213 heartbeat IPC: 0.552324 cumulative IPC: 0.806735 (Simulation time: 0 hr 15 min 29 sec) 
Heartbeat CPU 0 instructions: 400000000 cycles: 429928904 heartbeat IPC: 0.839088 cumulative IPC: 0.807774 (Simulation time: 0 hr 15 min 53 sec) 
Heartbeat CPU 0 instructions: 410000002 cycles: 441382832 heartbeat IPC: 0.873063 cumulative IPC: 0.809727 (Simulation time: 0 hr 16 min 16 sec) 
Heartbeat CPU 0 instructions: 420000000 cycles: 452697116 heartbeat IPC: 0.883838 cumulative IPC: 0.811854 (Simulation time: 0 hr 16 min 39 sec) 
Heartbeat CPU 0 instructions: 430000003 cycles: 464149246 heartbeat IPC: 0.8732 cumulative IPC: 0.813586 (Simulation time: 0 hr 17 min 2 sec) 
Heartbeat CPU 0 instructions: 440000000 cycles: 476623625 heartbeat IPC: 0.801643 cumulative IPC: 0.81323 (Simulation time: 0 hr 17 min 25 sec) 
Heartbeat CPU 0 instructions: 450000002 cycles: 491772585 heartbeat IPC: 0.660111 cumulative IPC: 0.807876 (Simulation time: 0 hr 17 min 49 sec) 
Heartbeat CPU 0 instructions: 460000000 cycles: 506874792 heartbeat IPC: 0.662155 cumulative IPC: 0.802967 (Simulation time: 0 hr 18 min 13 sec) 
Heartbeat CPU 0 instructions: 470000003 cycles: 521959876 heartbeat IPC: 0.662907 cumulative IPC: 0.798408 (Simulation time: 0 hr 18 min 37 sec) 
Heartbeat CPU 0 instructions: 480000000 cycles: 537752561 heartbeat IPC: 0.633204 cumulative IPC: 0.792964 (Simulation time: 0 hr 19 min 3 sec) 
Heartbeat CPU 0 instructions: 490000002 cycles: 556095648 heartbeat IPC: 0.545165 cumulative IPC: 0.783828 (Simulation time: 0 hr 19 min 31 sec) 
Heartbeat CPU 0 instructions: 500000000 cycles: 566267771 heartbeat IPC: 0.983079 cumulative IPC: 0.78782 (Simulation time: 0 hr 19 min 54 sec) 
Heartbeat CPU 0 instructions: 510000002 cycles: 575712649 heartbeat IPC: 1.05878 cumulative IPC: 0.792768 (Simulation time: 0 hr 20 min 16 sec) 
Heartbeat CPU 0 instructions: 520000000 cycles: 585555826 heartbeat IPC: 1.01593 cumulative IPC: 0.796937 (Simulation time: 0 hr 20 min 38 sec) 
Heartbeat CPU 0 instructions: 530000002 cycles: 595583706 heartbeat IPC: 0.99722 cumulative IPC: 0.800676 (Simulation time: 0 hr 21 min 1 sec) 
Heartbeat CPU 0 instructions: 540000000 cycles: 605178514 heartbeat IPC: 1.04223 cumulative IPC: 0.804916 (Simulation time: 0 hr 21 min 24 sec) 
Heartbeat CPU 0 instructions: 550000002 cycles: 615327556 heartbeat IPC: 0.985315 cumulative IPC: 0.808204 (Simulation time: 0 hr 21 min 49 sec) 
Heartbeat CPU 0 instructions: 560000000 cycles: 624503552 heartbeat IPC: 1.0898 cumulative IPC: 0.81277 (Simulation time: 0 hr 22 min 11 sec) 
Heartbeat CPU 0 instructions: 570000003 cycles: 639179187 heartbeat IPC: 0.681402 cumulative IPC: 0.80945 (Simulation time: 0 hr 22 min 38 sec) 
Heartbeat CPU 0 instructions: 580000000 cycles: 655760674 heartbeat IPC: 0.603082 cumulative IPC: 0.80372 (Simulation time: 0 hr 23 min 6 sec) 
Heartbeat CPU 0 instructions: 590000002 cycles: 666155651 heartbeat IPC: 0.962003 cumulative IPC: 0.806428 (Simulation time: 0 hr 23 min 30 sec) 
Heartbeat CPU 0 instructions: 600000000 cycles: 677496055 heartbeat IPC: 0.881803 cumulative IPC: 0.807809 (Simulation time: 0 hr 23 min 54 sec) 
Finished CPU 0 instructions: 500000000 cycles: 618958373 cumulative IPC: 0.807809 (Simulation time: 0 hr 23 min 54 sec) 

CPU 0 Branch Prediction Accuracy: 99.5219% MPKI: 0.251582
Number of Branches: 26312578 Number of Mispredictions: 125791
Number of LOAD Instructions: 235643083
Number of LOAD Instructions (ROI): 235643083
Number of STORE Instructions: 37593550
Number of STORE Instructions (ROI): 37593550
Total Destination Memory Operands: 40480968
Total Destination Memory Operands (ROI): 40480968
Total Source Memory Operands: 235643083
Total Source Memory Operands (ROI): 235643083
Number of DEPENDED LOADS: 6701402
Number of DEPENDED LOADS (ROI): 6701402
Number of SQ_ADDED: 40480950
Number of SQ_ADDED (ROI): 40480950
Number of LQ_ADDED: 396243111
Number of LQ_ADDED (ROI): 396243111
Number of Instructions read from trace: 600000259

ChampSim completed all CPUs

Region of Interest Statistics

CPU 0 cumulative IPC: 0.807809 instructions: 500000000 cycles: 618958373
ITLB TOTAL     ACCESS:  109388663  HIT:  109388150  MISS:        513
ITLB LOAD      ACCESS:  109388663  HIT:  109388150  MISS:        513
ITLB RFO       ACCESS:          0  HIT:          0  MISS:          0
ITLB PREFETCH  ACCESS:          0  HIT:          0  MISS:          0
ITLB WRITEBACK ACCESS:          0  HIT:          0  MISS:          0
ITLB PREFETCH  REQUESTED:          0  ISSUED:          0  USEFUL:          0  USELESS:          0
ITLB TOTAL MSHR MERGED:        970
ITLB LOAD MSHR MERGED:        970
ITLB RFO MSHR MERGED:          0
ITLB PREFETCH MSHR MERGED:          0
ITLB WRITEBACK MSHR MERGED:          0
ITLB TOTAL ACCESSES:  109389633 HITS:  109388150 MISSES:       1483
ITLB LOAD ACCESSES:  109389633 HITS:  109388150 MISSES:       1483
ITLB RFO ACCESSES:          0 HITS:          0 MISSES:          0
ITLB PREFETCH ACCESSES:          0 HITS:          0 MISSES:          0
ITLB WRITEBACK ACCESSES:          0 HITS:          0 MISSES:          0
ITLB RQ ACCESS:  500000003
ITLB RQ TO_CACHE:  109389633
ITLB RQ MERGED:  390610370
ITLB RQ FORWARD:          0
ITLB WQ ACCESS:          0
ITLB WQ TO_CACHE:          0
ITLB WQ MERGED:          0
ITLB WQ FORWARD:          0
DTLB TOTAL     ACCESS:  130434322  HIT:  130176715  MISS:     257607
DTLB LOAD      ACCESS:  109084919  HIT:  108864149  MISS:     220770
DTLB RFO       ACCESS:   21349403  HIT:   21312566  MISS:      36837
DTLB PREFETCH  ACCESS:          0  HIT:          0  MISS:          0
DTLB WRITEBACK ACCESS:          0  HIT:          0  MISS:          0
DTLB PREFETCH  REQUESTED:          0  ISSUED:          0  USEFUL:          0  USELESS:          0
DTLB TOTAL MSHR MERGED:     121990
DTLB LOAD MSHR MERGED:      84084
DTLB RFO MSHR MERGED:      37906
DTLB PREFETCH MSHR MERGED:          0
DTLB WRITEBACK MSHR MERGED:          0
DTLB TOTAL ACCESSES:  130556312 HITS:  130176715 MISSES:     379597
DTLB LOAD ACCESSES:  109169003 HITS:  108864149 MISSES:     304854
DTLB RFO ACCESSES:   21387309 HITS:   21312566 MISSES:      74743
DTLB PREFETCH ACCESSES:          0 HITS:          0 MISSES:          0
DTLB WRITEBACK ACCESSES:          0 HITS:          0 MISSES:          0
DTLB RQ ACCESS:  218633074
DTLB RQ TO_CACHE:  130556313
DTLB RQ MERGED:   88076761
DTLB RQ FORWARD:          0
DTLB WQ ACCESS:          0
DTLB WQ TO_CACHE:          0
DTLB WQ MERGED:          0
DTLB WQ FORWARD:          0
L1D TOTAL     ACCESS:  204748781  HIT:  193677145  MISS:   11071636
L1D LOAD      ACCESS:  106173163  HIT:  102929296  MISS:    3243867
L1D RFO       ACCESS:   26972570  HIT:   25222185  MISS:    1750385
L1D PREFETCH  ACCESS:   71603048  HIT:   65525664  MISS:    6077384
L1D WRITEBACK ACCESS:          0  HIT:          0  MISS:          0
L1D PREFETCH  REQUESTED:  108966339  ISSUED:  107312433  USEFUL:    5623414  USELESS:     453964
L1D TOTAL MSHR MERGED:   18382066
L1D LOAD MSHR MERGED:    4879570
L1D RFO MSHR MERGED:    6454307
L1D PREFETCH MSHR MERGED:    7048189
L1D WRITEBACK MSHR MERGED:          0
L1D TOTAL ACCESSES:  223196811 HITS:  193743109 MISSES:   29453702
L1D LOAD ACCESSES:  108995045 HITS:  102958002 MISSES:    6037043
L1D RFO ACCESSES:   33424422 HITS:   25222185 MISSES:    8202237
L1D PREFETCH ACCESSES:   80777344 HITS:   65562922 MISSES:   15214422
L1D WRITEBACK ACCESSES:          0 HITS:          0 MISSES:          0
L1D RQ ACCESS:  184989636
L1D RQ TO_CACHE:  108966339
L1D RQ MERGED:   75994591
L1D RQ FORWARD:          0
L1D WQ ACCESS:   33643426
L1D WQ TO_CACHE:   33424421
L1D WQ MERGED:     219005
L1D WQ FORWARD:      65964
L1I TOTAL     ACCESS:  134066881  HIT:  134042304  MISS:      24577
L1I LOAD      ACCESS:  134066881  HIT:  134042304  MISS:      24577
L1I RFO       ACCESS:          0  HIT:          0  MISS:          0
L1I PREFETCH  ACCESS:          0  HIT:          0  MISS:          0
L1I WRITEBACK ACCESS:          0  HIT:          0  MISS:          0
L1I PREFETCH  REQUESTED:          0  ISSUED:          0  USEFUL:          0  USELESS:          0
L1I TOTAL MSHR MERGED:      30705
L1I LOAD MSHR MERGED:      30705
L1I RFO MSHR MERGED:          0
L1I PREFETCH MSHR MERGED:          0
L1I WRITEBACK MSHR MERGED:          0
L1I TOTAL ACCESSES:  134097586 HITS:  134042304 MISSES:      55282
L1I LOAD ACCESSES:  134097586 HITS:  134042304 MISSES:      55282
L1I RFO ACCESSES:          0 HITS:          0 MISSES:          0
L1I PREFETCH ACCESSES:          0 HITS:          0 MISSES:          0
L1I WRITEBACK ACCESSES:          0 HITS:          0 MISSES:          0
L1I RQ ACCESS:  500000005
L1I RQ TO_CACHE:  134097586
L1I RQ MERGED:  365902419
L1I RQ FORWARD:          0
L1I WQ ACCESS:          0
L1I WQ TO_CACHE:          0
L1I WQ MERGED:          0
L1I WQ FORWARD:          0
L2C TOTAL     ACCESS:   14940731  HIT:    6943771  MISS:    7996960
L2C LOAD      ACCESS:    1181855  HIT:     297662  MISS:     884193
L2C RFO       ACCESS:    1747727  HIT:     368709  MISS:    1379018
L2C PREFETCH  ACCESS:    8329289  HIT:    2604213  MISS:    5725076
L2C WRITEBACK ACCESS:    3681860  HIT:    3673187  MISS:       8673
L2C PREFETCH  REQUESTED:     386104  ISSUED:     386104  USEFUL:     113026  USELESS:    5612877
L2C TOTAL MSHR MERGED:      42271
L2C LOAD MSHR MERGED:       2199
L2C RFO MSHR MERGED:       1170
L2C PREFETCH MSHR MERGED:      38902
L2C WRITEBACK MSHR MERGED:          0
L2C TOTAL ACCESSES:   15099527 HITS:    6944434 MISSES:    8155093
L2C LOAD ACCESSES:    1182050 HITS:     297857 MISSES:     884193
L2C RFO ACCESSES:    1747930 HITS:     368912 MISSES:    1379018
L2C PREFETCH ACCESSES:    8487687 HITS:    2604478 MISSES:    5883209
L2C WRITEBACK ACCESSES:    3681860 HITS:    3673187 MISSES:       8673
L2C RQ ACCESS:    2929980
L2C RQ TO_CACHE:    2929582
L2C RQ MERGED:          0
L2C RQ FORWARD:          0
L2C WQ ACCESS:    3681860
L2C WQ TO_CACHE:    3681860
L2C WQ MERGED:          0
L2C WQ FORWARD:        663
LLC TOTAL     ACCESS:   11181113  HIT:    3201624  MISS:    7979489
LLC LOAD      ACCESS:     881992  HIT:     249884  MISS:     632108
LLC RFO       ACCESS:    1377846  HIT:     164205  MISS:    1213641
LLC PREFETCH  ACCESS:    5817685  HIT:    1189696  MISS:    4627989
LLC WRITEBACK ACCESS:    3103590  HIT:    1597839  MISS:    1505751
LLC PREFETCH  REQUESTED:          0  ISSUED:          0  USEFUL:     154276  USELESS:    4472119
LLC TOTAL MSHR MERGED:      19100
LLC LOAD MSHR MERGED:       5513
LLC RFO MSHR MERGED:        643
LLC PREFETCH MSHR MERGED:      12944
LLC WRITEBACK MSHR MERGED:          0
LLC TOTAL ACCESSES:   11200231 HITS:    3201642 MISSES:    7998589
LLC LOAD ACCESSES:     881994 HITS:     249886 MISSES:     632108
LLC RFO ACCESSES:    1377848 HITS:     164207 MISSES:    1213641
LLC PREFETCH ACCESSES:    5836799 HITS:    1189710 MISSES:    4647089
LLC WRITEBACK ACCESSES:    3103590 HITS:    1597839 MISSES:    1505751
LLC 0 RQ ACCESS:    2259842
LLC 0 RQ TO_CACHE:    2259838
LLC 0 RQ MERGED:          0
LLC 0 RQ FORWARD:          0
LLC WQ ACCESS:    3103590
LLC WQ TO_CACHE:    3103590
LLC WQ MERGED:          0
LLC WQ FORWARD:         18
Major fault: 0 Minor fault: 11519
CPU 0 L1D next line prefetcher final stats
CPU 0 L2C PC-based stride prefetcher final stats
All Misses: 9957933
All Hits: 3834401
SD Algo Stats - Switches: 0 SRR-Repls: 708282 BRR-Repls: 0

DRAM Statistics
 CHANNEL 0
 RQ ROW_BUFFER_HIT:    3711406  ROW_BUFFER_MISS:    2761325
 DBUS_CONGESTED:    4889923
 WQ ROW_BUFFER_HIT:     429282  ROW_BUFFER_MISS:    2187533  FULL:          0

 AVG_CONGESTED_CYCLE: 13
LOADS RETIRED: 190375692
INSTR RETIRED: 500000000
