
*** ChampSim Multicore Out-of-Order Simulator ***

Warmup Instructions: 100000000
Simulation Instructions: 500000000
Number of CPUs: 1
LLC sets: 2048
LLC ways: 16
Clean RRIP Policies: 1113010111130101 Dirty RRIP Policies: 1113010111130101 PSEL Width: 10 Track Set: 4294967295 PSEL Mask: 1 Demote Mask: 3200210232002102DS Algo: 0Window size: 0
Off-chip DRAM Size: 4096 MB Channels: 1 Width: 64-bit Data Rate: 1600 MT/s

CPU 0 runs /mnt/beegfs/iconst01/spec2017/Gcc.trace.gz
NOT SORTED
TRACE STRING: /mnt/beegfs/iconst01/spec2017/Gcc.trace.gz
SORTED
TRACE STRING: /mnt/beegfs/iconst01/spec2017/Gcc.trace.gz
INITIAL
TRACE STRING: /mnt/beegfs/iconst01/spec2017/Gcc.trace.gz

champsim_seed used: 269

CPU 0 L1D next line prefetcher
CPU 0 L2C IP-based stride prefetcher
Initialize DRRIP state
Assign rand_sets[0]: 454  LLC: 2048
rand_sets[0]: 454
Assign rand_sets[1]: 1662  LLC: 2048
rand_sets[1]: 1662
Assign rand_sets[2]: 1921  LLC: 2048
rand_sets[2]: 1921
Assign rand_sets[3]: 1131  LLC: 2048
rand_sets[3]: 1131
Assign rand_sets[4]: 331  LLC: 2048
rand_sets[4]: 331
Assign rand_sets[5]: 1531  LLC: 2048
rand_sets[5]: 1531
Assign rand_sets[6]: 482  LLC: 2048
rand_sets[6]: 482
Assign rand_sets[7]: 1275  LLC: 2048
rand_sets[7]: 1275
Assign rand_sets[8]: 1876  LLC: 2048
rand_sets[8]: 1876
Assign rand_sets[9]: 2038  LLC: 2048
rand_sets[9]: 2038
Assign rand_sets[10]: 701  LLC: 2048
rand_sets[10]: 701
Assign rand_sets[11]: 479  LLC: 2048
rand_sets[11]: 479
Assign rand_sets[12]: 892  LLC: 2048
rand_sets[12]: 892
Assign rand_sets[13]: 1820  LLC: 2048
rand_sets[13]: 1820
Assign rand_sets[14]: 1505  LLC: 2048
rand_sets[14]: 1505
Assign rand_sets[15]: 1159  LLC: 2048
rand_sets[15]: 1159
Assign rand_sets[16]: 513  LLC: 2048
rand_sets[16]: 513
Assign rand_sets[17]: 703  LLC: 2048
rand_sets[17]: 703
Assign rand_sets[18]: 561  LLC: 2048
rand_sets[18]: 561
Assign rand_sets[19]: 990  LLC: 2048
rand_sets[19]: 990
Assign rand_sets[20]: 342  LLC: 2048
rand_sets[20]: 342
Assign rand_sets[21]: 882  LLC: 2048
rand_sets[21]: 882
Assign rand_sets[22]: 15  LLC: 2048
rand_sets[22]: 15
Assign rand_sets[23]: 71  LLC: 2048
rand_sets[23]: 71
Assign rand_sets[24]: 1127  LLC: 2048
rand_sets[24]: 1127
Assign rand_sets[25]: 1382  LLC: 2048
rand_sets[25]: 1382
Assign rand_sets[26]: 647  LLC: 2048
rand_sets[26]: 647
Assign rand_sets[27]: 857  LLC: 2048
rand_sets[27]: 857
Assign rand_sets[28]: 1450  LLC: 2048
rand_sets[28]: 1450
Assign rand_sets[29]: 1160  LLC: 2048
rand_sets[29]: 1160
Assign rand_sets[30]: 1852  LLC: 2048
rand_sets[30]: 1852
Assign rand_sets[31]: 1881  LLC: 2048
rand_sets[31]: 1881
Assign rand_sets[32]: 1770  LLC: 2048
rand_sets[32]: 1770
Assign rand_sets[33]: 1622  LLC: 2048
rand_sets[33]: 1622
Assign rand_sets[34]: 275  LLC: 2048
rand_sets[34]: 275
Assign rand_sets[35]: 635  LLC: 2048
rand_sets[35]: 635
Assign rand_sets[36]: 466  LLC: 2048
rand_sets[36]: 466
Assign rand_sets[37]: 1413  LLC: 2048
rand_sets[37]: 1413
Assign rand_sets[38]: 417  LLC: 2048
rand_sets[38]: 417
Assign rand_sets[39]: 472  LLC: 2048
rand_sets[39]: 472
Assign rand_sets[40]: 1340  LLC: 2048
rand_sets[40]: 1340
Assign rand_sets[41]: 852  LLC: 2048
rand_sets[41]: 852
Assign rand_sets[42]: 1365  LLC: 2048
rand_sets[42]: 1365
Assign rand_sets[43]: 47  LLC: 2048
rand_sets[43]: 47
Assign rand_sets[44]: 823  LLC: 2048
rand_sets[44]: 823
Assign rand_sets[45]: 686  LLC: 2048
rand_sets[45]: 686
Assign rand_sets[46]: 1637  LLC: 2048
rand_sets[46]: 1637
Assign rand_sets[47]: 1115  LLC: 2048
rand_sets[47]: 1115
Assign rand_sets[48]: 986  LLC: 2048
rand_sets[48]: 986
Assign rand_sets[49]: 258  LLC: 2048
rand_sets[49]: 258
Assign rand_sets[50]: 633  LLC: 2048
rand_sets[50]: 633
Assign rand_sets[51]: 920  LLC: 2048
rand_sets[51]: 920
Assign rand_sets[52]: 204  LLC: 2048
rand_sets[52]: 204
Assign rand_sets[53]: 227  LLC: 2048
rand_sets[53]: 227
Assign rand_sets[54]: 1818  LLC: 2048
rand_sets[54]: 1818
Assign rand_sets[55]: 886  LLC: 2048
rand_sets[55]: 886
Assign rand_sets[56]: 1422  LLC: 2048
rand_sets[56]: 1422
Assign rand_sets[57]: 607  LLC: 2048
rand_sets[57]: 607
Assign rand_sets[58]: 217  LLC: 2048
rand_sets[58]: 217
Assign rand_sets[59]: 1945  LLC: 2048
rand_sets[59]: 1945
Assign rand_sets[60]: 143  LLC: 2048
rand_sets[60]: 143
Assign rand_sets[61]: 1311  LLC: 2048
rand_sets[61]: 1311
Assign rand_sets[62]: 319  LLC: 2048
rand_sets[62]: 319
Assign rand_sets[63]: 1846  LLC: 2048
rand_sets[63]: 1846
 CLEAN-RRIP-POLICY-1: 1-1-1-3-0-1-0-1- CLEAN-RRIP-POLICY-2: 1-1-1-3-0-1-0-1-
 DIRTY-RRIP-POLICY-1: 1-1-1-3-0-1-0-1- DIRTY-RRIP-POLICY-2: 1-1-1-3-0-1-0-1-
 PSEL width: 10
Heartbeat CPU 0 instructions: 10000001 cycles: 7315981 heartbeat IPC: 1.36687 cumulative IPC: 1.36687 (Simulation time: 0 hr 0 min 15 sec) 
Heartbeat CPU 0 instructions: 20000000 cycles: 14307517 heartbeat IPC: 1.4303 cumulative IPC: 1.39787 (Simulation time: 0 hr 0 min 30 sec) 
Heartbeat CPU 0 instructions: 30000001 cycles: 21020498 heartbeat IPC: 1.48965 cumulative IPC: 1.42718 (Simulation time: 0 hr 0 min 46 sec) 
Heartbeat CPU 0 instructions: 40000000 cycles: 27481290 heartbeat IPC: 1.5478 cumulative IPC: 1.45554 (Simulation time: 0 hr 1 min 3 sec) 
Heartbeat CPU 0 instructions: 50000001 cycles: 33583000 heartbeat IPC: 1.63889 cumulative IPC: 1.48885 (Simulation time: 0 hr 1 min 19 sec) 
Heartbeat CPU 0 instructions: 60000000 cycles: 40064147 heartbeat IPC: 1.54294 cumulative IPC: 1.4976 (Simulation time: 0 hr 1 min 35 sec) 
Heartbeat CPU 0 instructions: 70000000 cycles: 47102523 heartbeat IPC: 1.42078 cumulative IPC: 1.48612 (Simulation time: 0 hr 1 min 50 sec) 
Heartbeat CPU 0 instructions: 80000000 cycles: 54192076 heartbeat IPC: 1.41053 cumulative IPC: 1.47623 (Simulation time: 0 hr 2 min 5 sec) 
Heartbeat CPU 0 instructions: 90000003 cycles: 61196405 heartbeat IPC: 1.42769 cumulative IPC: 1.47067 (Simulation time: 0 hr 2 min 20 sec) 
Heartbeat CPU 0 instructions: 100000000 cycles: 68363576 heartbeat IPC: 1.39525 cumulative IPC: 1.46277 (Simulation time: 0 hr 2 min 35 sec) 

Warmup complete CPU 0 instructions: 100000004 cycles: 68363577 (Simulation time: 0 hr 2 min 35 sec) 

Heartbeat CPU 0 instructions: 110000003 cycles: 95997760 heartbeat IPC: 0.361871 cumulative IPC: 0.361871 (Simulation time: 0 hr 3 min 5 sec) 
Heartbeat CPU 0 instructions: 120000000 cycles: 123448124 heartbeat IPC: 0.364294 cumulative IPC: 0.363078 (Simulation time: 0 hr 3 min 35 sec) 
Heartbeat CPU 0 instructions: 130000000 cycles: 148417681 heartbeat IPC: 0.400488 cumulative IPC: 0.374747 (Simulation time: 0 hr 4 min 4 sec) 
Heartbeat CPU 0 instructions: 140000000 cycles: 177872932 heartbeat IPC: 0.339498 cumulative IPC: 0.365266 (Simulation time: 0 hr 4 min 33 sec) 
Heartbeat CPU 0 instructions: 150000000 cycles: 207707386 heartbeat IPC: 0.335183 cumulative IPC: 0.358825 (Simulation time: 0 hr 5 min 3 sec) 
Heartbeat CPU 0 instructions: 160000000 cycles: 235108402 heartbeat IPC: 0.36495 cumulative IPC: 0.359831 (Simulation time: 0 hr 5 min 32 sec) 
Heartbeat CPU 0 instructions: 170000001 cycles: 263118711 heartbeat IPC: 0.357011 cumulative IPC: 0.359426 (Simulation time: 0 hr 6 min 3 sec) 
Heartbeat CPU 0 instructions: 180000000 cycles: 291571159 heartbeat IPC: 0.351464 cumulative IPC: 0.358411 (Simulation time: 0 hr 6 min 33 sec) 
Heartbeat CPU 0 instructions: 190000002 cycles: 319572121 heartbeat IPC: 0.357131 cumulative IPC: 0.358268 (Simulation time: 0 hr 7 min 3 sec) 
Heartbeat CPU 0 instructions: 200000000 cycles: 347907224 heartbeat IPC: 0.352919 cumulative IPC: 0.357726 (Simulation time: 0 hr 7 min 33 sec) 
Heartbeat CPU 0 instructions: 210000002 cycles: 375714461 heartbeat IPC: 0.359619 cumulative IPC: 0.357897 (Simulation time: 0 hr 8 min 3 sec) 
Heartbeat CPU 0 instructions: 220000000 cycles: 404813565 heartbeat IPC: 0.343653 cumulative IPC: 0.356665 (Simulation time: 0 hr 8 min 31 sec) 
Heartbeat CPU 0 instructions: 230000000 cycles: 432334041 heartbeat IPC: 0.363366 cumulative IPC: 0.357172 (Simulation time: 0 hr 9 min 0 sec) 
Heartbeat CPU 0 instructions: 240000000 cycles: 458246816 heartbeat IPC: 0.38591 cumulative IPC: 0.359082 (Simulation time: 0 hr 9 min 28 sec) 
Heartbeat CPU 0 instructions: 250000000 cycles: 488367325 heartbeat IPC: 0.332 cumulative IPC: 0.35714 (Simulation time: 0 hr 9 min 59 sec) 
Heartbeat CPU 0 instructions: 260000000 cycles: 515437735 heartbeat IPC: 0.369407 cumulative IPC: 0.357882 (Simulation time: 0 hr 10 min 29 sec) 
Heartbeat CPU 0 instructions: 270000003 cycles: 543839299 heartbeat IPC: 0.352093 cumulative IPC: 0.357537 (Simulation time: 0 hr 10 min 59 sec) 
Heartbeat CPU 0 instructions: 280000000 cycles: 572034534 heartbeat IPC: 0.35467 cumulative IPC: 0.357376 (Simulation time: 0 hr 11 min 30 sec) 
Heartbeat CPU 0 instructions: 290000000 cycles: 600883243 heartbeat IPC: 0.346636 cumulative IPC: 0.356794 (Simulation time: 0 hr 12 min 1 sec) 
Heartbeat CPU 0 instructions: 300000000 cycles: 630765310 heartbeat IPC: 0.334649 cumulative IPC: 0.355618 (Simulation time: 0 hr 12 min 30 sec) 
Heartbeat CPU 0 instructions: 310000001 cycles: 660141407 heartbeat IPC: 0.340413 cumulative IPC: 0.354863 (Simulation time: 0 hr 13 min 0 sec) 
Heartbeat CPU 0 instructions: 320000000 cycles: 688305107 heartbeat IPC: 0.355067 cumulative IPC: 0.354872 (Simulation time: 0 hr 13 min 29 sec) 
Heartbeat CPU 0 instructions: 330000000 cycles: 716901966 heartbeat IPC: 0.349689 cumulative IPC: 0.354644 (Simulation time: 0 hr 13 min 58 sec) 
Heartbeat CPU 0 instructions: 340000000 cycles: 746162809 heartbeat IPC: 0.341754 cumulative IPC: 0.354087 (Simulation time: 0 hr 14 min 28 sec) 
Heartbeat CPU 0 instructions: 350000003 cycles: 773158201 heartbeat IPC: 0.370434 cumulative IPC: 0.354713 (Simulation time: 0 hr 14 min 57 sec) 
Heartbeat CPU 0 instructions: 360000000 cycles: 801253303 heartbeat IPC: 0.355934 cumulative IPC: 0.35476 (Simulation time: 0 hr 15 min 25 sec) 
Heartbeat CPU 0 instructions: 370000000 cycles: 829422324 heartbeat IPC: 0.355 cumulative IPC: 0.354769 (Simulation time: 0 hr 15 min 53 sec) 
Heartbeat CPU 0 instructions: 380000000 cycles: 857922004 heartbeat IPC: 0.350881 cumulative IPC: 0.354629 (Simulation time: 0 hr 16 min 22 sec) 
Heartbeat CPU 0 instructions: 390000001 cycles: 885522235 heartbeat IPC: 0.362316 cumulative IPC: 0.354888 (Simulation time: 0 hr 16 min 50 sec) 
Heartbeat CPU 0 instructions: 400000000 cycles: 914147696 heartbeat IPC: 0.349339 cumulative IPC: 0.3547 (Simulation time: 0 hr 17 min 18 sec) 
Heartbeat CPU 0 instructions: 410000001 cycles: 941441906 heartbeat IPC: 0.366378 cumulative IPC: 0.355065 (Simulation time: 0 hr 17 min 46 sec) 
Heartbeat CPU 0 instructions: 420000000 cycles: 968752697 heartbeat IPC: 0.366156 cumulative IPC: 0.355402 (Simulation time: 0 hr 18 min 14 sec) 
Heartbeat CPU 0 instructions: 430000002 cycles: 996436495 heartbeat IPC: 0.361222 cumulative IPC: 0.355576 (Simulation time: 0 hr 18 min 42 sec) 
Heartbeat CPU 0 instructions: 440000000 cycles: 1025941860 heartbeat IPC: 0.338921 cumulative IPC: 0.355062 (Simulation time: 0 hr 19 min 11 sec) 
Heartbeat CPU 0 instructions: 450000002 cycles: 1055168227 heartbeat IPC: 0.342157 cumulative IPC: 0.35468 (Simulation time: 0 hr 19 min 40 sec) 
Heartbeat CPU 0 instructions: 460000000 cycles: 1082854011 heartbeat IPC: 0.361196 cumulative IPC: 0.354858 (Simulation time: 0 hr 20 min 8 sec) 
Heartbeat CPU 0 instructions: 470000000 cycles: 1110475132 heartbeat IPC: 0.362042 cumulative IPC: 0.355048 (Simulation time: 0 hr 20 min 36 sec) 
Heartbeat CPU 0 instructions: 480000000 cycles: 1138347194 heartbeat IPC: 0.358782 cumulative IPC: 0.355146 (Simulation time: 0 hr 21 min 4 sec) 
Heartbeat CPU 0 instructions: 490000000 cycles: 1165933202 heartbeat IPC: 0.362503 cumulative IPC: 0.355331 (Simulation time: 0 hr 21 min 32 sec) 
Heartbeat CPU 0 instructions: 500000000 cycles: 1194213642 heartbeat IPC: 0.353601 cumulative IPC: 0.355287 (Simulation time: 0 hr 22 min 1 sec) 
Heartbeat CPU 0 instructions: 510000000 cycles: 1229212386 heartbeat IPC: 0.285725 cumulative IPC: 0.35319 (Simulation time: 0 hr 22 min 33 sec) 
Heartbeat CPU 0 instructions: 520000000 cycles: 1256963288 heartbeat IPC: 0.360349 cumulative IPC: 0.353357 (Simulation time: 0 hr 23 min 2 sec) 
Heartbeat CPU 0 instructions: 530000001 cycles: 1286298161 heartbeat IPC: 0.340891 cumulative IPC: 0.353057 (Simulation time: 0 hr 23 min 32 sec) 
Heartbeat CPU 0 instructions: 540000000 cycles: 1314342571 heartbeat IPC: 0.356577 cumulative IPC: 0.353136 (Simulation time: 0 hr 24 min 1 sec) 
Heartbeat CPU 0 instructions: 550000001 cycles: 1343530489 heartbeat IPC: 0.342608 cumulative IPC: 0.352895 (Simulation time: 0 hr 24 min 32 sec) 
Heartbeat CPU 0 instructions: 560000000 cycles: 1368894077 heartbeat IPC: 0.394266 cumulative IPC: 0.353702 (Simulation time: 0 hr 25 min 1 sec) 
Heartbeat CPU 0 instructions: 570000000 cycles: 1398343622 heartbeat IPC: 0.339564 cumulative IPC: 0.353389 (Simulation time: 0 hr 25 min 31 sec) 
Heartbeat CPU 0 instructions: 580000000 cycles: 1426271289 heartbeat IPC: 0.358068 cumulative IPC: 0.353485 (Simulation time: 0 hr 26 min 0 sec) 
Heartbeat CPU 0 instructions: 590000001 cycles: 1450998495 heartbeat IPC: 0.404413 cumulative IPC: 0.354396 (Simulation time: 0 hr 26 min 28 sec) 
Heartbeat CPU 0 instructions: 600000000 cycles: 1477062962 heartbeat IPC: 0.383664 cumulative IPC: 0.354937 (Simulation time: 0 hr 26 min 57 sec) 
Finished CPU 0 instructions: 500000000 cycles: 1408699407 cumulative IPC: 0.354937 (Simulation time: 0 hr 26 min 57 sec) 

CPU 0 Branch Prediction Accuracy: 86.4311% MPKI: 26.2662
Number of Branches: 96788573 Number of Mispredictions: 13133102
Number of LOAD Instructions: 164682285
Number of LOAD Instructions (ROI): 164682285
Number of STORE Instructions: 78194750
Number of STORE Instructions (ROI): 78194750
Total Destination Memory Operands: 83268534
Total Destination Memory Operands (ROI): 83268534
Total Source Memory Operands: 164712438
Total Source Memory Operands (ROI): 164712438
Number of DEPENDED LOADS: 7058906
Number of DEPENDED LOADS (ROI): 7058906
Number of SQ_ADDED: 83268522
Number of SQ_ADDED (ROI): 83268522
Number of LQ_ADDED: 236693471
Number of LQ_ADDED (ROI): 236693471
Number of Instructions read from trace: 600000066

ChampSim completed all CPUs

Region of Interest Statistics

CPU 0 cumulative IPC: 0.354937 instructions: 500000000 cycles: 1408699407
ITLB TOTAL     ACCESS:  100513981  HIT:  100309535  MISS:     204446
ITLB LOAD      ACCESS:  100513981  HIT:  100309535  MISS:     204446
ITLB RFO       ACCESS:          0  HIT:          0  MISS:          0
ITLB PREFETCH  ACCESS:          0  HIT:          0  MISS:          0
ITLB WRITEBACK ACCESS:          0  HIT:          0  MISS:          0
ITLB PREFETCH  REQUESTED:          0  ISSUED:          0  USEFUL:          0  USELESS:          0
ITLB TOTAL MSHR MERGED:     172424
ITLB LOAD MSHR MERGED:     172424
ITLB RFO MSHR MERGED:          0
ITLB PREFETCH MSHR MERGED:          0
ITLB WRITEBACK MSHR MERGED:          0
ITLB TOTAL ACCESSES:  100686405 HITS:  100309535 MISSES:     376870
ITLB LOAD ACCESSES:  100686405 HITS:  100309535 MISSES:     376870
ITLB RFO ACCESSES:          0 HITS:          0 MISSES:          0
ITLB PREFETCH ACCESSES:          0 HITS:          0 MISSES:          0
ITLB WRITEBACK ACCESSES:          0 HITS:          0 MISSES:          0
ITLB RQ ACCESS:  500000057
ITLB RQ TO_CACHE:  100686405
ITLB RQ MERGED:  399313652
ITLB RQ FORWARD:          0
ITLB WQ ACCESS:          0
ITLB WQ TO_CACHE:          0
ITLB WQ MERGED:          0
ITLB WQ FORWARD:          0
DTLB TOTAL     ACCESS:  165337031  HIT:  164702681  MISS:     634350
DTLB LOAD      ACCESS:  106292672  HIT:  105722687  MISS:     569985
DTLB RFO       ACCESS:   59044359  HIT:   58979994  MISS:      64365
DTLB PREFETCH  ACCESS:          0  HIT:          0  MISS:          0
DTLB WRITEBACK ACCESS:          0  HIT:          0  MISS:          0
DTLB PREFETCH  REQUESTED:          0  ISSUED:          0  USEFUL:          0  USELESS:          0
DTLB TOTAL MSHR MERGED:      99997
DTLB LOAD MSHR MERGED:      59472
DTLB RFO MSHR MERGED:      40525
DTLB PREFETCH MSHR MERGED:          0
DTLB WRITEBACK MSHR MERGED:          0
DTLB TOTAL ACCESSES:  165437028 HITS:  164702681 MISSES:     734347
DTLB LOAD ACCESSES:  106352144 HITS:  105722687 MISSES:     629457
DTLB RFO ACCESSES:   59084884 HITS:   58979994 MISSES:     104890
DTLB PREFETCH ACCESSES:          0 HITS:          0 MISSES:          0
DTLB WRITEBACK ACCESSES:          0 HITS:          0 MISSES:          0
DTLB RQ ACCESS:  200311977
DTLB RQ TO_CACHE:  165437028
DTLB RQ MERGED:   34874949
DTLB RQ FORWARD:          0
DTLB WQ ACCESS:          0
DTLB WQ TO_CACHE:          0
DTLB WQ MERGED:          0
DTLB WQ FORWARD:          0
L1D TOTAL     ACCESS:  281834836  HIT:  273925511  MISS:    7909325
L1D LOAD      ACCESS:  110417946  HIT:  107140207  MISS:    3277739
L1D RFO       ACCESS:   67117229  HIT:   66226640  MISS:     890589
L1D PREFETCH  ACCESS:  104299661  HIT:  100558664  MISS:    3740997
L1D WRITEBACK ACCESS:          0  HIT:          0  MISS:          0
L1D PREFETCH  REQUESTED:  110817211  ISSUED:  109117920  USEFUL:    1661702  USELESS:    2079259
L1D TOTAL MSHR MERGED:    2869679
L1D LOAD MSHR MERGED:     496453
L1D RFO MSHR MERGED:    1868791
L1D PREFETCH MSHR MERGED:     504435
L1D WRITEBACK MSHR MERGED:          0
L1D TOTAL ACCESSES:  284731971 HITS:  273952967 MISSES:   10779004
L1D LOAD ACCESSES:  110818675 HITS:  107141671 MISSES:    3677004
L1D RFO ACCESSES:   68974236 HITS:   66226640 MISSES:    2747596
L1D PREFETCH ACCESSES:  104939060 HITS:  100584656 MISSES:    4354404
L1D WRITEBACK ACCESSES:          0 HITS:          0 MISSES:          0
L1D RQ ACCESS:  130759374
L1D RQ TO_CACHE:  110817214
L1D RQ MERGED:   19940696
L1D RQ FORWARD:          0
L1D WQ ACCESS:   69552603
L1D WQ TO_CACHE:   68974237
L1D WQ MERGED:     578366
L1D WQ FORWARD:      27456
L1I TOTAL     ACCESS:  126561556  HIT:  122323003  MISS:    4238553
L1I LOAD      ACCESS:  126561556  HIT:  122323003  MISS:    4238553
L1I RFO       ACCESS:          0  HIT:          0  MISS:          0
L1I PREFETCH  ACCESS:          0  HIT:          0  MISS:          0
L1I WRITEBACK ACCESS:          0  HIT:          0  MISS:          0
L1I PREFETCH  REQUESTED:          0  ISSUED:          0  USEFUL:          0  USELESS:          0
L1I TOTAL MSHR MERGED:    1834554
L1I LOAD MSHR MERGED:    1834554
L1I RFO MSHR MERGED:          0
L1I PREFETCH MSHR MERGED:          0
L1I WRITEBACK MSHR MERGED:          0
L1I TOTAL ACCESSES:  128396113 HITS:  122323003 MISSES:    6073110
L1I LOAD ACCESSES:  128396113 HITS:  122323003 MISSES:    6073110
L1I RFO ACCESSES:          0 HITS:          0 MISSES:          0
L1I PREFETCH ACCESSES:          0 HITS:          0 MISSES:          0
L1I WRITEBACK ACCESSES:          0 HITS:          0 MISSES:          0
L1I RQ ACCESS:  500000057
L1I RQ TO_CACHE:  128396113
L1I RQ MERGED:  371603944
L1I RQ FORWARD:          0
L1I WQ ACCESS:          0
L1I WQ TO_CACHE:          0
L1I WQ MERGED:          0
L1I WQ FORWARD:          0
L2C TOTAL     ACCESS:   14905307  HIT:   11158926  MISS:    3746381
L2C LOAD      ACCESS:    7418895  HIT:    5098953  MISS:    2319942
L2C RFO       ACCESS:     878707  HIT:     409924  MISS:     468783
L2C PREFETCH  ACCESS:    4568460  HIT:    3628058  MISS:     940402
L2C WRITEBACK ACCESS:    2039245  HIT:    2021991  MISS:      17254
L2C PREFETCH  REQUESTED:     842747  ISSUED:     842747  USEFUL:     203401  USELESS:     736707
L2C TOTAL MSHR MERGED:       7010
L2C LOAD MSHR MERGED:        773
L2C RFO MSHR MERGED:          0
L2C PREFETCH MSHR MERGED:       6237
L2C WRITEBACK MSHR MERGED:          0
L2C TOTAL ACCESSES:   14913165 HITS:   11159377 MISSES:    3753788
L2C LOAD ACCESSES:    7419104 HITS:    5099162 MISSES:    2319942
L2C RFO ACCESSES:     878805 HITS:     410022 MISSES:     468783
L2C PREFETCH ACCESSES:    4576011 HITS:    3628202 MISSES:     947809
L2C WRITEBACK ACCESSES:    2039245 HITS:    2021991 MISSES:      17254
L2C RQ ACCESS:    8297912
L2C RQ TO_CACHE:    8297605
L2C RQ MERGED:          0
L2C RQ FORWARD:          0
L2C WQ ACCESS:    2039245
L2C WQ TO_CACHE:    2039245
L2C WQ MERGED:          0
L2C WQ FORWARD:        451
LLC TOTAL     ACCESS:    4609646  HIT:    3993236  MISS:     616410
LLC LOAD      ACCESS:    2319155  HIT:    2088103  MISS:     231052
LLC RFO       ACCESS:     468772  HIT:     402788  MISS:      65984
LLC PREFETCH  ACCESS:     941468  HIT:     654542  MISS:     286926
LLC WRITEBACK ACCESS:     880251  HIT:     847803  MISS:      32448
LLC PREFETCH  REQUESTED:          0  ISSUED:          0  USEFUL:      15416  USELESS:     271834
LLC TOTAL MSHR MERGED:         87
LLC LOAD MSHR MERGED:         31
LLC RFO MSHR MERGED:          0
LLC PREFETCH MSHR MERGED:         56
LLC WRITEBACK MSHR MERGED:          0
LLC TOTAL ACCESSES:    4609769 HITS:    3993272 MISSES:     616497
LLC LOAD ACCESSES:    2319169 HITS:    2088117 MISSES:     231052
LLC RFO ACCESSES:     468783 HITS:     402799 MISSES:      65984
LLC PREFETCH ACCESSES:     941566 HITS:     654553 MISSES:     287013
LLC WRITEBACK ACCESSES:     880251 HITS:     847803 MISSES:      32448
LLC 0 RQ ACCESS:    2787952
LLC 0 RQ TO_CACHE:    2787927
LLC 0 RQ MERGED:          0
LLC 0 RQ FORWARD:          0
LLC WQ ACCESS:     880251
LLC WQ TO_CACHE:     880251
LLC WQ MERGED:          0
LLC WQ FORWARD:         36
Major fault: 0 Minor fault: 12862
CPU 0 L1D next line prefetcher final stats
CPU 0 L2C PC-based stride prefetcher final stats
All Misses: 729870
All Hits: 4696782
SD Algo Stats - Switches: 0 SRR-Repls: 272337 BRR-Repls: 0

DRAM Statistics
 CHANNEL 0
 RQ ROW_BUFFER_HIT:     112196  ROW_BUFFER_MISS:     470920
 DBUS_CONGESTED:     350733
 WQ ROW_BUFFER_HIT:      14204  ROW_BUFFER_MISS:     173735  FULL:          0

 AVG_CONGESTED_CYCLE: 13
LOADS RETIRED: 136549171
INSTR RETIRED: 500000000
