
*** ChampSim Multicore Out-of-Order Simulator ***

Warmup Instructions: 100000000
Simulation Instructions: 500000000
Number of CPUs: 1
LLC sets: 2048
LLC ways: 16
Clean RRIP Policies: 1110130111101301 Dirty RRIP Policies: 1100130111001301 PSEL Width: 10 Track Set: 4294967295 PSEL Mask: 1 Demote Mask: 3144400031444DS Algo: 0Window size: 0
Off-chip DRAM Size: 4096 MB Channels: 1 Width: 64-bit Data Rate: 1600 MT/s

CPU 0 runs /mnt/beegfs/iconst01/spec2017/Gcc.trace.gz
NOT SORTED
TRACE STRING: /mnt/beegfs/iconst01/spec2017/Gcc.trace.gz
SORTED
TRACE STRING: /mnt/beegfs/iconst01/spec2017/Gcc.trace.gz
INITIAL
TRACE STRING: /mnt/beegfs/iconst01/spec2017/Gcc.trace.gz

champsim_seed used: 269

CPU 0 L1D next line prefetcher
CPU 0 L2C IP-based stride prefetcher
Initialize DRRIP state
Assign rand_sets[0]: 454  LLC: 2048
rand_sets[0]: 454
Assign rand_sets[1]: 1662  LLC: 2048
rand_sets[1]: 1662
Assign rand_sets[2]: 1921  LLC: 2048
rand_sets[2]: 1921
Assign rand_sets[3]: 1131  LLC: 2048
rand_sets[3]: 1131
Assign rand_sets[4]: 331  LLC: 2048
rand_sets[4]: 331
Assign rand_sets[5]: 1531  LLC: 2048
rand_sets[5]: 1531
Assign rand_sets[6]: 482  LLC: 2048
rand_sets[6]: 482
Assign rand_sets[7]: 1275  LLC: 2048
rand_sets[7]: 1275
Assign rand_sets[8]: 1876  LLC: 2048
rand_sets[8]: 1876
Assign rand_sets[9]: 2038  LLC: 2048
rand_sets[9]: 2038
Assign rand_sets[10]: 701  LLC: 2048
rand_sets[10]: 701
Assign rand_sets[11]: 479  LLC: 2048
rand_sets[11]: 479
Assign rand_sets[12]: 892  LLC: 2048
rand_sets[12]: 892
Assign rand_sets[13]: 1820  LLC: 2048
rand_sets[13]: 1820
Assign rand_sets[14]: 1505  LLC: 2048
rand_sets[14]: 1505
Assign rand_sets[15]: 1159  LLC: 2048
rand_sets[15]: 1159
Assign rand_sets[16]: 513  LLC: 2048
rand_sets[16]: 513
Assign rand_sets[17]: 703  LLC: 2048
rand_sets[17]: 703
Assign rand_sets[18]: 561  LLC: 2048
rand_sets[18]: 561
Assign rand_sets[19]: 990  LLC: 2048
rand_sets[19]: 990
Assign rand_sets[20]: 342  LLC: 2048
rand_sets[20]: 342
Assign rand_sets[21]: 882  LLC: 2048
rand_sets[21]: 882
Assign rand_sets[22]: 15  LLC: 2048
rand_sets[22]: 15
Assign rand_sets[23]: 71  LLC: 2048
rand_sets[23]: 71
Assign rand_sets[24]: 1127  LLC: 2048
rand_sets[24]: 1127
Assign rand_sets[25]: 1382  LLC: 2048
rand_sets[25]: 1382
Assign rand_sets[26]: 647  LLC: 2048
rand_sets[26]: 647
Assign rand_sets[27]: 857  LLC: 2048
rand_sets[27]: 857
Assign rand_sets[28]: 1450  LLC: 2048
rand_sets[28]: 1450
Assign rand_sets[29]: 1160  LLC: 2048
rand_sets[29]: 1160
Assign rand_sets[30]: 1852  LLC: 2048
rand_sets[30]: 1852
Assign rand_sets[31]: 1881  LLC: 2048
rand_sets[31]: 1881
Assign rand_sets[32]: 1770  LLC: 2048
rand_sets[32]: 1770
Assign rand_sets[33]: 1622  LLC: 2048
rand_sets[33]: 1622
Assign rand_sets[34]: 275  LLC: 2048
rand_sets[34]: 275
Assign rand_sets[35]: 635  LLC: 2048
rand_sets[35]: 635
Assign rand_sets[36]: 466  LLC: 2048
rand_sets[36]: 466
Assign rand_sets[37]: 1413  LLC: 2048
rand_sets[37]: 1413
Assign rand_sets[38]: 417  LLC: 2048
rand_sets[38]: 417
Assign rand_sets[39]: 472  LLC: 2048
rand_sets[39]: 472
Assign rand_sets[40]: 1340  LLC: 2048
rand_sets[40]: 1340
Assign rand_sets[41]: 852  LLC: 2048
rand_sets[41]: 852
Assign rand_sets[42]: 1365  LLC: 2048
rand_sets[42]: 1365
Assign rand_sets[43]: 47  LLC: 2048
rand_sets[43]: 47
Assign rand_sets[44]: 823  LLC: 2048
rand_sets[44]: 823
Assign rand_sets[45]: 686  LLC: 2048
rand_sets[45]: 686
Assign rand_sets[46]: 1637  LLC: 2048
rand_sets[46]: 1637
Assign rand_sets[47]: 1115  LLC: 2048
rand_sets[47]: 1115
Assign rand_sets[48]: 986  LLC: 2048
rand_sets[48]: 986
Assign rand_sets[49]: 258  LLC: 2048
rand_sets[49]: 258
Assign rand_sets[50]: 633  LLC: 2048
rand_sets[50]: 633
Assign rand_sets[51]: 920  LLC: 2048
rand_sets[51]: 920
Assign rand_sets[52]: 204  LLC: 2048
rand_sets[52]: 204
Assign rand_sets[53]: 227  LLC: 2048
rand_sets[53]: 227
Assign rand_sets[54]: 1818  LLC: 2048
rand_sets[54]: 1818
Assign rand_sets[55]: 886  LLC: 2048
rand_sets[55]: 886
Assign rand_sets[56]: 1422  LLC: 2048
rand_sets[56]: 1422
Assign rand_sets[57]: 607  LLC: 2048
rand_sets[57]: 607
Assign rand_sets[58]: 217  LLC: 2048
rand_sets[58]: 217
Assign rand_sets[59]: 1945  LLC: 2048
rand_sets[59]: 1945
Assign rand_sets[60]: 143  LLC: 2048
rand_sets[60]: 143
Assign rand_sets[61]: 1311  LLC: 2048
rand_sets[61]: 1311
Assign rand_sets[62]: 319  LLC: 2048
rand_sets[62]: 319
Assign rand_sets[63]: 1846  LLC: 2048
rand_sets[63]: 1846
 CLEAN-RRIP-POLICY-1: 1-1-1-0-1-3-0-1- CLEAN-RRIP-POLICY-2: 1-1-1-0-1-3-0-1-
 DIRTY-RRIP-POLICY-1: 1-1-0-0-1-3-0-1- DIRTY-RRIP-POLICY-2: 1-1-0-0-1-3-0-1-
 PSEL width: 10
Heartbeat CPU 0 instructions: 10000001 cycles: 7315907 heartbeat IPC: 1.36688 cumulative IPC: 1.36688 (Simulation time: 0 hr 0 min 15 sec) 
Heartbeat CPU 0 instructions: 20000000 cycles: 14307607 heartbeat IPC: 1.43027 cumulative IPC: 1.39786 (Simulation time: 0 hr 0 min 30 sec) 
Heartbeat CPU 0 instructions: 30000001 cycles: 21020740 heartbeat IPC: 1.48962 cumulative IPC: 1.42716 (Simulation time: 0 hr 0 min 47 sec) 
Heartbeat CPU 0 instructions: 40000000 cycles: 27481620 heartbeat IPC: 1.54778 cumulative IPC: 1.45552 (Simulation time: 0 hr 1 min 3 sec) 
Heartbeat CPU 0 instructions: 50000001 cycles: 33583435 heartbeat IPC: 1.63886 cumulative IPC: 1.48883 (Simulation time: 0 hr 1 min 19 sec) 
Heartbeat CPU 0 instructions: 60000000 cycles: 40064655 heartbeat IPC: 1.54292 cumulative IPC: 1.49758 (Simulation time: 0 hr 1 min 36 sec) 
Heartbeat CPU 0 instructions: 70000000 cycles: 47102702 heartbeat IPC: 1.42085 cumulative IPC: 1.48611 (Simulation time: 0 hr 1 min 51 sec) 
Heartbeat CPU 0 instructions: 80000000 cycles: 54192558 heartbeat IPC: 1.41047 cumulative IPC: 1.47622 (Simulation time: 0 hr 2 min 7 sec) 
Heartbeat CPU 0 instructions: 90000003 cycles: 61197054 heartbeat IPC: 1.42765 cumulative IPC: 1.47066 (Simulation time: 0 hr 2 min 22 sec) 
Heartbeat CPU 0 instructions: 100000000 cycles: 68364439 heartbeat IPC: 1.39521 cumulative IPC: 1.46275 (Simulation time: 0 hr 2 min 37 sec) 

Warmup complete CPU 0 instructions: 100000004 cycles: 68364440 (Simulation time: 0 hr 2 min 37 sec) 

Heartbeat CPU 0 instructions: 110000003 cycles: 96051744 heartbeat IPC: 0.361176 cumulative IPC: 0.361176 (Simulation time: 0 hr 3 min 8 sec) 
Heartbeat CPU 0 instructions: 120000000 cycles: 123526328 heartbeat IPC: 0.363973 cumulative IPC: 0.362569 (Simulation time: 0 hr 3 min 38 sec) 
Heartbeat CPU 0 instructions: 130000000 cycles: 148536234 heartbeat IPC: 0.399842 cumulative IPC: 0.374196 (Simulation time: 0 hr 4 min 8 sec) 
Heartbeat CPU 0 instructions: 140000000 cycles: 178025670 heartbeat IPC: 0.339104 cumulative IPC: 0.36476 (Simulation time: 0 hr 4 min 38 sec) 
Heartbeat CPU 0 instructions: 150000000 cycles: 207899749 heartbeat IPC: 0.334738 cumulative IPC: 0.358332 (Simulation time: 0 hr 5 min 9 sec) 
Heartbeat CPU 0 instructions: 160000000 cycles: 235324572 heartbeat IPC: 0.364633 cumulative IPC: 0.359367 (Simulation time: 0 hr 5 min 38 sec) 
Heartbeat CPU 0 instructions: 170000001 cycles: 263373661 heartbeat IPC: 0.356518 cumulative IPC: 0.358957 (Simulation time: 0 hr 6 min 10 sec) 
Heartbeat CPU 0 instructions: 180000000 cycles: 291815763 heartbeat IPC: 0.351591 cumulative IPC: 0.35802 (Simulation time: 0 hr 6 min 41 sec) 
Heartbeat CPU 0 instructions: 190000002 cycles: 319845650 heartbeat IPC: 0.356762 cumulative IPC: 0.35788 (Simulation time: 0 hr 7 min 11 sec) 
Heartbeat CPU 0 instructions: 200000000 cycles: 348192333 heartbeat IPC: 0.352775 cumulative IPC: 0.357363 (Simulation time: 0 hr 7 min 42 sec) 
Heartbeat CPU 0 instructions: 210000002 cycles: 376056846 heartbeat IPC: 0.358879 cumulative IPC: 0.3575 (Simulation time: 0 hr 8 min 13 sec) 
Heartbeat CPU 0 instructions: 220000000 cycles: 405219759 heartbeat IPC: 0.342901 cumulative IPC: 0.356236 (Simulation time: 0 hr 8 min 42 sec) 
Heartbeat CPU 0 instructions: 230000000 cycles: 432795352 heartbeat IPC: 0.36264 cumulative IPC: 0.356721 (Simulation time: 0 hr 9 min 12 sec) 
Heartbeat CPU 0 instructions: 240000000 cycles: 458792679 heartbeat IPC: 0.384655 cumulative IPC: 0.358581 (Simulation time: 0 hr 9 min 41 sec) 
Heartbeat CPU 0 instructions: 250000000 cycles: 488946926 heartbeat IPC: 0.331628 cumulative IPC: 0.356648 (Simulation time: 0 hr 10 min 13 sec) 
Heartbeat CPU 0 instructions: 260000000 cycles: 516076617 heartbeat IPC: 0.3686 cumulative IPC: 0.357372 (Simulation time: 0 hr 10 min 43 sec) 
Heartbeat CPU 0 instructions: 270000003 cycles: 544542224 heartbeat IPC: 0.351301 cumulative IPC: 0.35701 (Simulation time: 0 hr 11 min 14 sec) 
Heartbeat CPU 0 instructions: 280000000 cycles: 572694303 heartbeat IPC: 0.355213 cumulative IPC: 0.356909 (Simulation time: 0 hr 11 min 46 sec) 
Heartbeat CPU 0 instructions: 290000000 cycles: 601578514 heartbeat IPC: 0.34621 cumulative IPC: 0.35633 (Simulation time: 0 hr 12 min 17 sec) 
Heartbeat CPU 0 instructions: 300000000 cycles: 631495605 heartbeat IPC: 0.334257 cumulative IPC: 0.355157 (Simulation time: 0 hr 12 min 47 sec) 
Heartbeat CPU 0 instructions: 310000001 cycles: 660884680 heartbeat IPC: 0.340263 cumulative IPC: 0.354418 (Simulation time: 0 hr 13 min 18 sec) 
Heartbeat CPU 0 instructions: 320000000 cycles: 689111182 heartbeat IPC: 0.354277 cumulative IPC: 0.354412 (Simulation time: 0 hr 13 min 47 sec) 
Heartbeat CPU 0 instructions: 330000000 cycles: 717776365 heartbeat IPC: 0.348855 cumulative IPC: 0.354167 (Simulation time: 0 hr 14 min 18 sec) 
Heartbeat CPU 0 instructions: 340000000 cycles: 747062503 heartbeat IPC: 0.341458 cumulative IPC: 0.353618 (Simulation time: 0 hr 14 min 48 sec) 
Heartbeat CPU 0 instructions: 350000003 cycles: 774116728 heartbeat IPC: 0.369628 cumulative IPC: 0.354232 (Simulation time: 0 hr 15 min 18 sec) 
Heartbeat CPU 0 instructions: 360000000 cycles: 802239356 heartbeat IPC: 0.355585 cumulative IPC: 0.354284 (Simulation time: 0 hr 15 min 47 sec) 
Heartbeat CPU 0 instructions: 370000000 cycles: 830419152 heartbeat IPC: 0.354864 cumulative IPC: 0.354305 (Simulation time: 0 hr 16 min 16 sec) 
Heartbeat CPU 0 instructions: 380000000 cycles: 858938803 heartbeat IPC: 0.350635 cumulative IPC: 0.354173 (Simulation time: 0 hr 16 min 45 sec) 
Heartbeat CPU 0 instructions: 390000001 cycles: 886544957 heartbeat IPC: 0.362238 cumulative IPC: 0.354445 (Simulation time: 0 hr 17 min 14 sec) 
Heartbeat CPU 0 instructions: 400000000 cycles: 915206403 heartbeat IPC: 0.348901 cumulative IPC: 0.354257 (Simulation time: 0 hr 17 min 43 sec) 
Heartbeat CPU 0 instructions: 410000001 cycles: 942481325 heartbeat IPC: 0.366637 cumulative IPC: 0.354644 (Simulation time: 0 hr 18 min 12 sec) 
Heartbeat CPU 0 instructions: 420000000 cycles: 969771281 heartbeat IPC: 0.366435 cumulative IPC: 0.355001 (Simulation time: 0 hr 18 min 41 sec) 
Heartbeat CPU 0 instructions: 430000002 cycles: 997464699 heartbeat IPC: 0.361097 cumulative IPC: 0.355182 (Simulation time: 0 hr 19 min 10 sec) 
Heartbeat CPU 0 instructions: 440000000 cycles: 1027071881 heartbeat IPC: 0.337756 cumulative IPC: 0.354644 (Simulation time: 0 hr 19 min 39 sec) 
Heartbeat CPU 0 instructions: 450000002 cycles: 1056340017 heartbeat IPC: 0.341669 cumulative IPC: 0.35426 (Simulation time: 0 hr 20 min 9 sec) 
Heartbeat CPU 0 instructions: 460000000 cycles: 1084025331 heartbeat IPC: 0.361202 cumulative IPC: 0.354449 (Simulation time: 0 hr 20 min 38 sec) 
Heartbeat CPU 0 instructions: 470000000 cycles: 1111650416 heartbeat IPC: 0.36199 cumulative IPC: 0.354649 (Simulation time: 0 hr 21 min 7 sec) 
Heartbeat CPU 0 instructions: 480000000 cycles: 1139522314 heartbeat IPC: 0.358784 cumulative IPC: 0.354756 (Simulation time: 0 hr 21 min 36 sec) 
Heartbeat CPU 0 instructions: 490000000 cycles: 1167102262 heartbeat IPC: 0.362582 cumulative IPC: 0.354953 (Simulation time: 0 hr 22 min 5 sec) 
Heartbeat CPU 0 instructions: 500000000 cycles: 1195424454 heartbeat IPC: 0.35308 cumulative IPC: 0.354906 (Simulation time: 0 hr 22 min 34 sec) 
Heartbeat CPU 0 instructions: 510000000 cycles: 1230639173 heartbeat IPC: 0.283972 cumulative IPC: 0.352757 (Simulation time: 0 hr 23 min 7 sec) 
Heartbeat CPU 0 instructions: 520000000 cycles: 1258717309 heartbeat IPC: 0.356149 cumulative IPC: 0.352837 (Simulation time: 0 hr 23 min 37 sec) 
Heartbeat CPU 0 instructions: 530000001 cycles: 1288127699 heartbeat IPC: 0.340016 cumulative IPC: 0.352527 (Simulation time: 0 hr 24 min 8 sec) 
Heartbeat CPU 0 instructions: 540000000 cycles: 1316216211 heartbeat IPC: 0.356017 cumulative IPC: 0.352606 (Simulation time: 0 hr 24 min 38 sec) 
Heartbeat CPU 0 instructions: 550000001 cycles: 1345412727 heartbeat IPC: 0.342507 cumulative IPC: 0.352375 (Simulation time: 0 hr 25 min 9 sec) 
Heartbeat CPU 0 instructions: 560000000 cycles: 1370815837 heartbeat IPC: 0.393653 cumulative IPC: 0.35318 (Simulation time: 0 hr 25 min 39 sec) 
Heartbeat CPU 0 instructions: 570000000 cycles: 1400320386 heartbeat IPC: 0.338931 cumulative IPC: 0.352865 (Simulation time: 0 hr 26 min 10 sec) 
Heartbeat CPU 0 instructions: 580000000 cycles: 1428273034 heartbeat IPC: 0.357748 cumulative IPC: 0.352965 (Simulation time: 0 hr 26 min 40 sec) 
Heartbeat CPU 0 instructions: 590000001 cycles: 1453063796 heartbeat IPC: 0.403376 cumulative IPC: 0.353867 (Simulation time: 0 hr 27 min 9 sec) 
Heartbeat CPU 0 instructions: 600000000 cycles: 1479215525 heartbeat IPC: 0.382384 cumulative IPC: 0.354396 (Simulation time: 0 hr 27 min 38 sec) 
Finished CPU 0 instructions: 500000000 cycles: 1410851107 cumulative IPC: 0.354396 (Simulation time: 0 hr 27 min 38 sec) 

CPU 0 Branch Prediction Accuracy: 86.4311% MPKI: 26.2662
Number of Branches: 96788573 Number of Mispredictions: 13133102
Number of LOAD Instructions: 164682285
Number of LOAD Instructions (ROI): 164682285
Number of STORE Instructions: 78194750
Number of STORE Instructions (ROI): 78194750
Total Destination Memory Operands: 83268534
Total Destination Memory Operands (ROI): 83268534
Total Source Memory Operands: 164712438
Total Source Memory Operands (ROI): 164712438
Number of DEPENDED LOADS: 7061127
Number of DEPENDED LOADS (ROI): 7061127
Number of SQ_ADDED: 83268522
Number of SQ_ADDED (ROI): 83268522
Number of LQ_ADDED: 236589039
Number of LQ_ADDED (ROI): 236589039
Number of Instructions read from trace: 600000066

ChampSim completed all CPUs

Region of Interest Statistics

CPU 0 cumulative IPC: 0.354396 instructions: 500000000 cycles: 1410851107
ITLB TOTAL     ACCESS:  100512494  HIT:  100308048  MISS:     204446
ITLB LOAD      ACCESS:  100512494  HIT:  100308048  MISS:     204446
ITLB RFO       ACCESS:          0  HIT:          0  MISS:          0
ITLB PREFETCH  ACCESS:          0  HIT:          0  MISS:          0
ITLB WRITEBACK ACCESS:          0  HIT:          0  MISS:          0
ITLB PREFETCH  REQUESTED:          0  ISSUED:          0  USEFUL:          0  USELESS:          0
ITLB TOTAL MSHR MERGED:     172424
ITLB LOAD MSHR MERGED:     172424
ITLB RFO MSHR MERGED:          0
ITLB PREFETCH MSHR MERGED:          0
ITLB WRITEBACK MSHR MERGED:          0
ITLB TOTAL ACCESSES:  100684918 HITS:  100308048 MISSES:     376870
ITLB LOAD ACCESSES:  100684918 HITS:  100308048 MISSES:     376870
ITLB RFO ACCESSES:          0 HITS:          0 MISSES:          0
ITLB PREFETCH ACCESSES:          0 HITS:          0 MISSES:          0
ITLB WRITEBACK ACCESSES:          0 HITS:          0 MISSES:          0
ITLB RQ ACCESS:  500000057
ITLB RQ TO_CACHE:  100684918
ITLB RQ MERGED:  399315139
ITLB RQ FORWARD:          0
ITLB WQ ACCESS:          0
ITLB WQ TO_CACHE:          0
ITLB WQ MERGED:          0
ITLB WQ FORWARD:          0
DTLB TOTAL     ACCESS:  165334832  HIT:  164700489  MISS:     634343
DTLB LOAD      ACCESS:  106291681  HIT:  105721695  MISS:     569986
DTLB RFO       ACCESS:   59043151  HIT:   58978794  MISS:      64357
DTLB PREFETCH  ACCESS:          0  HIT:          0  MISS:          0
DTLB WRITEBACK ACCESS:          0  HIT:          0  MISS:          0
DTLB PREFETCH  REQUESTED:          0  ISSUED:          0  USEFUL:          0  USELESS:          0
DTLB TOTAL MSHR MERGED:      99889
DTLB LOAD MSHR MERGED:      59448
DTLB RFO MSHR MERGED:      40441
DTLB PREFETCH MSHR MERGED:          0
DTLB WRITEBACK MSHR MERGED:          0
DTLB TOTAL ACCESSES:  165434721 HITS:  164700489 MISSES:     734232
DTLB LOAD ACCESSES:  106351129 HITS:  105721695 MISSES:     629434
DTLB RFO ACCESSES:   59083592 HITS:   58978794 MISSES:     104798
DTLB PREFETCH ACCESSES:          0 HITS:          0 MISSES:          0
DTLB WRITEBACK ACCESSES:          0 HITS:          0 MISSES:          0
DTLB RQ ACCESS:  200309766
DTLB RQ TO_CACHE:  165434721
DTLB RQ MERGED:   34875045
DTLB RQ FORWARD:          0
DTLB WQ ACCESS:          0
DTLB WQ TO_CACHE:          0
DTLB WQ MERGED:          0
DTLB WQ FORWARD:          0
L1D TOTAL     ACCESS:  281832960  HIT:  273923592  MISS:    7909368
L1D LOAD      ACCESS:  110425733  HIT:  107151215  MISS:    3274518
L1D RFO       ACCESS:   67094527  HIT:   66202945  MISS:     891582
L1D PREFETCH  ACCESS:  104312700  HIT:  100569432  MISS:    3743268
L1D WRITEBACK ACCESS:          0  HIT:          0  MISS:          0
L1D PREFETCH  REQUESTED:  110815000  ISSUED:  109115691  USEFUL:    1664056  USELESS:    2079176
L1D TOTAL MSHR MERGED:    2867170
L1D LOAD MSHR MERGED:     483271
L1D RFO MSHR MERGED:    1892396
L1D PREFETCH MSHR MERGED:     491503
L1D WRITEBACK MSHR MERGED:          0
L1D TOTAL ACCESSES:  284727763 HITS:  273951225 MISSES:   10776538
L1D LOAD ACCESSES:  110816637 HITS:  107152852 MISSES:    3663785
L1D RFO ACCESSES:   68974151 HITS:   66202945 MISSES:    2771206
L1D PREFETCH ACCESSES:  104936975 HITS:  100595428 MISSES:    4341547
L1D WRITEBACK ACCESSES:          0 HITS:          0 MISSES:          0
L1D RQ ACCESS:  130757163
L1D RQ TO_CACHE:  110815003
L1D RQ MERGED:   19940523
L1D RQ FORWARD:          0
L1D WQ ACCESS:   69552603
L1D WQ TO_CACHE:   68974152
L1D WQ MERGED:     578451
L1D WQ FORWARD:      27633
L1I TOTAL     ACCESS:  126560223  HIT:  122321670  MISS:    4238553
L1I LOAD      ACCESS:  126560223  HIT:  122321670  MISS:    4238553
L1I RFO       ACCESS:          0  HIT:          0  MISS:          0
L1I PREFETCH  ACCESS:          0  HIT:          0  MISS:          0
L1I WRITEBACK ACCESS:          0  HIT:          0  MISS:          0
L1I PREFETCH  REQUESTED:          0  ISSUED:          0  USEFUL:          0  USELESS:          0
L1I TOTAL MSHR MERGED:    1834625
L1I LOAD MSHR MERGED:    1834625
L1I RFO MSHR MERGED:          0
L1I PREFETCH MSHR MERGED:          0
L1I WRITEBACK MSHR MERGED:          0
L1I TOTAL ACCESSES:  128394851 HITS:  122321670 MISSES:    6073181
L1I LOAD ACCESSES:  128394851 HITS:  122321670 MISSES:    6073181
L1I RFO ACCESSES:          0 HITS:          0 MISSES:          0
L1I PREFETCH ACCESSES:          0 HITS:          0 MISSES:          0
L1I WRITEBACK ACCESSES:          0 HITS:          0 MISSES:          0
L1I RQ ACCESS:  500000057
L1I RQ TO_CACHE:  128394851
L1I RQ MERGED:  371605206
L1I RQ FORWARD:          0
L1I WQ ACCESS:          0
L1I WQ TO_CACHE:          0
L1I WQ MERGED:          0
L1I WQ FORWARD:          0
L2C TOTAL     ACCESS:   14904850  HIT:   11158353  MISS:    3746497
L2C LOAD      ACCESS:    7418861  HIT:    5098736  MISS:    2320125
L2C RFO       ACCESS:     878710  HIT:     409908  MISS:     468802
L2C PREFETCH  ACCESS:    4568034  HIT:    3627722  MISS:     940312
L2C WRITEBACK ACCESS:    2039245  HIT:    2021987  MISS:      17258
L2C PREFETCH  REQUESTED:     842758  ISSUED:     842758  USEFUL:     203244  USELESS:     736774
L2C TOTAL MSHR MERGED:       7441
L2C LOAD MSHR MERGED:        912
L2C RFO MSHR MERGED:          0
L2C PREFETCH MSHR MERGED:       6529
L2C WRITEBACK MSHR MERGED:          0
L2C TOTAL ACCESSES:   14913206 HITS:   11158804 MISSES:    3754402
L2C LOAD ACCESSES:    7419067 HITS:    5098942 MISSES:    2320125
L2C RFO ACCESSES:     878810 HITS:     410008 MISSES:     468802
L2C PREFETCH ACCESSES:    4576084 HITS:    3627867 MISSES:     948217
L2C WRITEBACK ACCESSES:    2039245 HITS:    2021987 MISSES:      17258
L2C RQ ACCESS:    8297880
L2C RQ TO_CACHE:    8297574
L2C RQ MERGED:          0
L2C RQ FORWARD:          0
L2C WQ ACCESS:    2039245
L2C WQ TO_CACHE:    2039245
L2C WQ MERGED:          0
L2C WQ FORWARD:        451
LLC TOTAL     ACCESS:    4609840  HIT:    3963690  MISS:     646150
LLC LOAD      ACCESS:    2319200  HIT:    2069649  MISS:     249551
LLC RFO       ACCESS:     468792  HIT:     363427  MISS:     105365
LLC PREFETCH  ACCESS:     941557  HIT:     706377  MISS:     235180
LLC WRITEBACK ACCESS:     880291  HIT:     824237  MISS:      56054
LLC PREFETCH  REQUESTED:          0  ISSUED:          0  USEFUL:      44670  USELESS:     191380
LLC TOTAL MSHR MERGED:        107
LLC LOAD MSHR MERGED:         38
LLC RFO MSHR MERGED:          0
LLC PREFETCH MSHR MERGED:         69
LLC WRITEBACK MSHR MERGED:          0
LLC TOTAL ACCESSES:    4609981 HITS:    3963724 MISSES:     646257
LLC LOAD ACCESSES:    2319213 HITS:    2069662 MISSES:     249551
LLC RFO ACCESSES:     468802 HITS:     363437 MISSES:     105365
LLC PREFETCH ACCESSES:     941675 HITS:     706388 MISSES:     235287
LLC WRITEBACK ACCESSES:     880291 HITS:     824237 MISSES:      56054
LLC 0 RQ ACCESS:    2788015
LLC 0 RQ TO_CACHE:    2787992
LLC 0 RQ MERGED:          0
LLC 0 RQ FORWARD:          0
LLC WQ ACCESS:     880291
LLC WQ TO_CACHE:     880291
LLC WQ MERGED:          0
LLC WQ FORWARD:         34
Major fault: 0 Minor fault: 12862
CPU 0 L1D next line prefetcher final stats
CPU 0 L2C PC-based stride prefetcher final stats
All Misses: 763302
All Hits: 4663544
SD Algo Stats - Switches: 0 SRR-Repls: 292393 BRR-Repls: 0

DRAM Statistics
 CHANNEL 0
 RQ ROW_BUFFER_HIT:     130815  ROW_BUFFER_MISS:     457336
 DBUS_CONGESTED:     437602
 WQ ROW_BUFFER_HIT:      28890  ROW_BUFFER_MISS:     242213  FULL:          0

 AVG_CONGESTED_CYCLE: 13
LOADS RETIRED: 136549171
INSTR RETIRED: 500000000
