
*** ChampSim Multicore Out-of-Order Simulator ***

Warmup Instructions: 100000000
Simulation Instructions: 500000000
Number of CPUs: 1
LLC sets: 2048
LLC ways: 16
Clean RRIP Policies: 1312101213121012 Dirty RRIP Policies: 1302200213022002 PSEL Width: 10 Track Set: 4294967295 PSEL Mask: 1 Demote Mask: 3044404430444044DS Algo: 0Window size: 0
Off-chip DRAM Size: 4096 MB Channels: 1 Width: 64-bit Data Rate: 1600 MT/s

CPU 0 runs /mnt/beegfs/iconst01/spec2017/Xz.trace.gz
NOT SORTED
TRACE STRING: /mnt/beegfs/iconst01/spec2017/Xz.trace.gz
SORTED
TRACE STRING: /mnt/beegfs/iconst01/spec2017/Xz.trace.gz
INITIAL
TRACE STRING: /mnt/beegfs/iconst01/spec2017/Xz.trace.gz

champsim_seed used: 210

CPU 0 L1D next line prefetcher
CPU 0 L2C IP-based stride prefetcher
Initialize DRRIP state
Assign rand_sets[0]: 454  LLC: 2048
rand_sets[0]: 454
Assign rand_sets[1]: 1662  LLC: 2048
rand_sets[1]: 1662
Assign rand_sets[2]: 1921  LLC: 2048
rand_sets[2]: 1921
Assign rand_sets[3]: 1131  LLC: 2048
rand_sets[3]: 1131
Assign rand_sets[4]: 331  LLC: 2048
rand_sets[4]: 331
Assign rand_sets[5]: 1531  LLC: 2048
rand_sets[5]: 1531
Assign rand_sets[6]: 482  LLC: 2048
rand_sets[6]: 482
Assign rand_sets[7]: 1275  LLC: 2048
rand_sets[7]: 1275
Assign rand_sets[8]: 1876  LLC: 2048
rand_sets[8]: 1876
Assign rand_sets[9]: 2038  LLC: 2048
rand_sets[9]: 2038
Assign rand_sets[10]: 701  LLC: 2048
rand_sets[10]: 701
Assign rand_sets[11]: 479  LLC: 2048
rand_sets[11]: 479
Assign rand_sets[12]: 892  LLC: 2048
rand_sets[12]: 892
Assign rand_sets[13]: 1820  LLC: 2048
rand_sets[13]: 1820
Assign rand_sets[14]: 1505  LLC: 2048
rand_sets[14]: 1505
Assign rand_sets[15]: 1159  LLC: 2048
rand_sets[15]: 1159
Assign rand_sets[16]: 513  LLC: 2048
rand_sets[16]: 513
Assign rand_sets[17]: 703  LLC: 2048
rand_sets[17]: 703
Assign rand_sets[18]: 561  LLC: 2048
rand_sets[18]: 561
Assign rand_sets[19]: 990  LLC: 2048
rand_sets[19]: 990
Assign rand_sets[20]: 342  LLC: 2048
rand_sets[20]: 342
Assign rand_sets[21]: 882  LLC: 2048
rand_sets[21]: 882
Assign rand_sets[22]: 15  LLC: 2048
rand_sets[22]: 15
Assign rand_sets[23]: 71  LLC: 2048
rand_sets[23]: 71
Assign rand_sets[24]: 1127  LLC: 2048
rand_sets[24]: 1127
Assign rand_sets[25]: 1382  LLC: 2048
rand_sets[25]: 1382
Assign rand_sets[26]: 647  LLC: 2048
rand_sets[26]: 647
Assign rand_sets[27]: 857  LLC: 2048
rand_sets[27]: 857
Assign rand_sets[28]: 1450  LLC: 2048
rand_sets[28]: 1450
Assign rand_sets[29]: 1160  LLC: 2048
rand_sets[29]: 1160
Assign rand_sets[30]: 1852  LLC: 2048
rand_sets[30]: 1852
Assign rand_sets[31]: 1881  LLC: 2048
rand_sets[31]: 1881
Assign rand_sets[32]: 1770  LLC: 2048
rand_sets[32]: 1770
Assign rand_sets[33]: 1622  LLC: 2048
rand_sets[33]: 1622
Assign rand_sets[34]: 275  LLC: 2048
rand_sets[34]: 275
Assign rand_sets[35]: 635  LLC: 2048
rand_sets[35]: 635
Assign rand_sets[36]: 466  LLC: 2048
rand_sets[36]: 466
Assign rand_sets[37]: 1413  LLC: 2048
rand_sets[37]: 1413
Assign rand_sets[38]: 417  LLC: 2048
rand_sets[38]: 417
Assign rand_sets[39]: 472  LLC: 2048
rand_sets[39]: 472
Assign rand_sets[40]: 1340  LLC: 2048
rand_sets[40]: 1340
Assign rand_sets[41]: 852  LLC: 2048
rand_sets[41]: 852
Assign rand_sets[42]: 1365  LLC: 2048
rand_sets[42]: 1365
Assign rand_sets[43]: 47  LLC: 2048
rand_sets[43]: 47
Assign rand_sets[44]: 823  LLC: 2048
rand_sets[44]: 823
Assign rand_sets[45]: 686  LLC: 2048
rand_sets[45]: 686
Assign rand_sets[46]: 1637  LLC: 2048
rand_sets[46]: 1637
Assign rand_sets[47]: 1115  LLC: 2048
rand_sets[47]: 1115
Assign rand_sets[48]: 986  LLC: 2048
rand_sets[48]: 986
Assign rand_sets[49]: 258  LLC: 2048
rand_sets[49]: 258
Assign rand_sets[50]: 633  LLC: 2048
rand_sets[50]: 633
Assign rand_sets[51]: 920  LLC: 2048
rand_sets[51]: 920
Assign rand_sets[52]: 204  LLC: 2048
rand_sets[52]: 204
Assign rand_sets[53]: 227  LLC: 2048
rand_sets[53]: 227
Assign rand_sets[54]: 1818  LLC: 2048
rand_sets[54]: 1818
Assign rand_sets[55]: 886  LLC: 2048
rand_sets[55]: 886
Assign rand_sets[56]: 1422  LLC: 2048
rand_sets[56]: 1422
Assign rand_sets[57]: 607  LLC: 2048
rand_sets[57]: 607
Assign rand_sets[58]: 217  LLC: 2048
rand_sets[58]: 217
Assign rand_sets[59]: 1945  LLC: 2048
rand_sets[59]: 1945
Assign rand_sets[60]: 143  LLC: 2048
rand_sets[60]: 143
Assign rand_sets[61]: 1311  LLC: 2048
rand_sets[61]: 1311
Assign rand_sets[62]: 319  LLC: 2048
rand_sets[62]: 319
Assign rand_sets[63]: 1846  LLC: 2048
rand_sets[63]: 1846
 CLEAN-RRIP-POLICY-1: 1-3-1-2-1-0-1-2- CLEAN-RRIP-POLICY-2: 1-3-1-2-1-0-1-2-
 DIRTY-RRIP-POLICY-1: 1-3-0-2-2-0-0-2- DIRTY-RRIP-POLICY-2: 1-3-0-2-2-0-0-2-
 PSEL width: 10
Heartbeat CPU 0 instructions: 10000000 cycles: 4305123 heartbeat IPC: 2.32281 cumulative IPC: 2.32281 (Simulation time: 0 hr 0 min 11 sec) 
Heartbeat CPU 0 instructions: 20000000 cycles: 8616729 heartbeat IPC: 2.31932 cumulative IPC: 2.32107 (Simulation time: 0 hr 0 min 23 sec) 
Heartbeat CPU 0 instructions: 30000003 cycles: 13160504 heartbeat IPC: 2.20081 cumulative IPC: 2.27955 (Simulation time: 0 hr 0 min 35 sec) 
Heartbeat CPU 0 instructions: 40000000 cycles: 17514988 heartbeat IPC: 2.29648 cumulative IPC: 2.28376 (Simulation time: 0 hr 0 min 47 sec) 
Heartbeat CPU 0 instructions: 50000001 cycles: 21877824 heartbeat IPC: 2.29209 cumulative IPC: 2.28542 (Simulation time: 0 hr 0 min 58 sec) 
Heartbeat CPU 0 instructions: 60000000 cycles: 26178005 heartbeat IPC: 2.32548 cumulative IPC: 2.292 (Simulation time: 0 hr 1 min 9 sec) 
Heartbeat CPU 0 instructions: 70000001 cycles: 30243892 heartbeat IPC: 2.45949 cumulative IPC: 2.31452 (Simulation time: 0 hr 1 min 20 sec) 
Heartbeat CPU 0 instructions: 80000000 cycles: 34522689 heartbeat IPC: 2.33711 cumulative IPC: 2.31732 (Simulation time: 0 hr 1 min 31 sec) 
Heartbeat CPU 0 instructions: 90000001 cycles: 38739328 heartbeat IPC: 2.37156 cumulative IPC: 2.32322 (Simulation time: 0 hr 1 min 42 sec) 
Heartbeat CPU 0 instructions: 100000000 cycles: 42979715 heartbeat IPC: 2.35828 cumulative IPC: 2.32668 (Simulation time: 0 hr 1 min 53 sec) 

Warmup complete CPU 0 instructions: 100000001 cycles: 42979716 (Simulation time: 0 hr 1 min 53 sec) 

Heartbeat CPU 0 instructions: 110000000 cycles: 53112425 heartbeat IPC: 0.986903 cumulative IPC: 0.986903 (Simulation time: 0 hr 2 min 10 sec) 
Heartbeat CPU 0 instructions: 120000000 cycles: 63767789 heartbeat IPC: 0.938494 cumulative IPC: 0.96209 (Simulation time: 0 hr 2 min 27 sec) 
Heartbeat CPU 0 instructions: 130000001 cycles: 74384237 heartbeat IPC: 0.941935 cumulative IPC: 0.955276 (Simulation time: 0 hr 2 min 44 sec) 
Heartbeat CPU 0 instructions: 140000000 cycles: 84077439 heartbeat IPC: 1.03165 cumulative IPC: 0.97329 (Simulation time: 0 hr 3 min 0 sec) 
Heartbeat CPU 0 instructions: 150000001 cycles: 94410120 heartbeat IPC: 0.967803 cumulative IPC: 0.972188 (Simulation time: 0 hr 3 min 17 sec) 
Heartbeat CPU 0 instructions: 160000000 cycles: 104489818 heartbeat IPC: 0.992093 cumulative IPC: 0.97545 (Simulation time: 0 hr 3 min 33 sec) 
Heartbeat CPU 0 instructions: 170000000 cycles: 114173704 heartbeat IPC: 1.03264 cumulative IPC: 0.983229 (Simulation time: 0 hr 3 min 50 sec) 
Heartbeat CPU 0 instructions: 180000000 cycles: 124745043 heartbeat IPC: 0.945954 cumulative IPC: 0.97841 (Simulation time: 0 hr 4 min 7 sec) 
Heartbeat CPU 0 instructions: 190000001 cycles: 135022414 heartbeat IPC: 0.973012 cumulative IPC: 0.977807 (Simulation time: 0 hr 4 min 23 sec) 
Heartbeat CPU 0 instructions: 200000000 cycles: 145621394 heartbeat IPC: 0.943487 cumulative IPC: 0.974263 (Simulation time: 0 hr 4 min 40 sec) 
Heartbeat CPU 0 instructions: 210000002 cycles: 158110493 heartbeat IPC: 0.800698 cumulative IPC: 0.955435 (Simulation time: 0 hr 4 min 58 sec) 
Heartbeat CPU 0 instructions: 220000000 cycles: 170655421 heartbeat IPC: 0.797135 cumulative IPC: 0.939881 (Simulation time: 0 hr 5 min 16 sec) 
Heartbeat CPU 0 instructions: 230000000 cycles: 182848151 heartbeat IPC: 0.820161 cumulative IPC: 0.929445 (Simulation time: 0 hr 5 min 34 sec) 
Heartbeat CPU 0 instructions: 240000000 cycles: 195005591 heartbeat IPC: 0.822542 cumulative IPC: 0.920896 (Simulation time: 0 hr 5 min 52 sec) 
Heartbeat CPU 0 instructions: 250000000 cycles: 207015864 heartbeat IPC: 0.832621 cumulative IPC: 0.914433 (Simulation time: 0 hr 6 min 10 sec) 
Heartbeat CPU 0 instructions: 260000000 cycles: 218604960 heartbeat IPC: 0.86288 cumulative IPC: 0.911031 (Simulation time: 0 hr 6 min 28 sec) 
Heartbeat CPU 0 instructions: 270000003 cycles: 230510712 heartbeat IPC: 0.83993 cumulative IPC: 0.906517 (Simulation time: 0 hr 6 min 46 sec) 
Heartbeat CPU 0 instructions: 280000000 cycles: 242073623 heartbeat IPC: 0.864834 cumulative IPC: 0.904096 (Simulation time: 0 hr 7 min 3 sec) 
Heartbeat CPU 0 instructions: 290000002 cycles: 253642061 heartbeat IPC: 0.864421 cumulative IPC: 0.901917 (Simulation time: 0 hr 7 min 21 sec) 
Heartbeat CPU 0 instructions: 300000000 cycles: 266135952 heartbeat IPC: 0.800391 cumulative IPC: 0.896233 (Simulation time: 0 hr 7 min 39 sec) 
Heartbeat CPU 0 instructions: 310000000 cycles: 278342881 heartbeat IPC: 0.819207 cumulative IPC: 0.892238 (Simulation time: 0 hr 7 min 57 sec) 
Heartbeat CPU 0 instructions: 320000000 cycles: 291048227 heartbeat IPC: 0.78707 cumulative IPC: 0.886852 (Simulation time: 0 hr 8 min 15 sec) 
Heartbeat CPU 0 instructions: 330000003 cycles: 303046520 heartbeat IPC: 0.833452 cumulative IPC: 0.884388 (Simulation time: 0 hr 8 min 33 sec) 
Heartbeat CPU 0 instructions: 340000000 cycles: 315206640 heartbeat IPC: 0.82236 cumulative IPC: 0.881617 (Simulation time: 0 hr 8 min 50 sec) 
Heartbeat CPU 0 instructions: 350000001 cycles: 326223133 heartbeat IPC: 0.90773 cumulative IPC: 0.882633 (Simulation time: 0 hr 9 min 8 sec) 
Heartbeat CPU 0 instructions: 360000000 cycles: 338067748 heartbeat IPC: 0.844265 cumulative IPC: 0.881093 (Simulation time: 0 hr 9 min 25 sec) 
Heartbeat CPU 0 instructions: 370000001 cycles: 349522232 heartbeat IPC: 0.873021 cumulative IPC: 0.880791 (Simulation time: 0 hr 9 min 43 sec) 
Heartbeat CPU 0 instructions: 380000000 cycles: 360546133 heartbeat IPC: 0.90712 cumulative IPC: 0.881705 (Simulation time: 0 hr 10 min 0 sec) 
Heartbeat CPU 0 instructions: 390000003 cycles: 371199649 heartbeat IPC: 0.938658 cumulative IPC: 0.883554 (Simulation time: 0 hr 10 min 18 sec) 
Heartbeat CPU 0 instructions: 400000000 cycles: 381439193 heartbeat IPC: 0.976606 cumulative IPC: 0.886369 (Simulation time: 0 hr 10 min 35 sec) 
Heartbeat CPU 0 instructions: 410000000 cycles: 391987048 heartbeat IPC: 0.94806 cumulative IPC: 0.888233 (Simulation time: 0 hr 10 min 52 sec) 
Heartbeat CPU 0 instructions: 420000000 cycles: 401384919 heartbeat IPC: 1.06407 cumulative IPC: 0.892844 (Simulation time: 0 hr 11 min 9 sec) 
Heartbeat CPU 0 instructions: 430000002 cycles: 410479434 heartbeat IPC: 1.09956 cumulative IPC: 0.89796 (Simulation time: 0 hr 11 min 25 sec) 
Heartbeat CPU 0 instructions: 440000000 cycles: 420767884 heartbeat IPC: 0.971964 cumulative IPC: 0.899975 (Simulation time: 0 hr 11 min 42 sec) 
Heartbeat CPU 0 instructions: 450000002 cycles: 431891948 heartbeat IPC: 0.898952 cumulative IPC: 0.899946 (Simulation time: 0 hr 11 min 59 sec) 
Heartbeat CPU 0 instructions: 460000000 cycles: 443478334 heartbeat IPC: 0.863082 cumulative IPC: 0.89888 (Simulation time: 0 hr 12 min 17 sec) 
Heartbeat CPU 0 instructions: 470000003 cycles: 453696168 heartbeat IPC: 0.978681 cumulative IPC: 0.900865 (Simulation time: 0 hr 12 min 34 sec) 
Heartbeat CPU 0 instructions: 480000000 cycles: 464248996 heartbeat IPC: 0.947613 cumulative IPC: 0.902036 (Simulation time: 0 hr 12 min 51 sec) 
Heartbeat CPU 0 instructions: 490000000 cycles: 474221615 heartbeat IPC: 1.00275 cumulative IPC: 0.904365 (Simulation time: 0 hr 13 min 7 sec) 
Heartbeat CPU 0 instructions: 500000000 cycles: 486054801 heartbeat IPC: 0.845081 cumulative IPC: 0.902782 (Simulation time: 0 hr 13 min 25 sec) 
Heartbeat CPU 0 instructions: 510000002 cycles: 498517958 heartbeat IPC: 0.802365 cumulative IPC: 0.900034 (Simulation time: 0 hr 13 min 43 sec) 
Heartbeat CPU 0 instructions: 520000000 cycles: 510412068 heartbeat IPC: 0.840752 cumulative IPC: 0.898526 (Simulation time: 0 hr 14 min 1 sec) 
Heartbeat CPU 0 instructions: 530000001 cycles: 522300167 heartbeat IPC: 0.841177 cumulative IPC: 0.897103 (Simulation time: 0 hr 14 min 18 sec) 
Heartbeat CPU 0 instructions: 540000000 cycles: 533943621 heartbeat IPC: 0.858852 cumulative IPC: 0.896196 (Simulation time: 0 hr 14 min 36 sec) 
Heartbeat CPU 0 instructions: 550000001 cycles: 545369456 heartbeat IPC: 0.87521 cumulative IPC: 0.895719 (Simulation time: 0 hr 14 min 53 sec) 
Heartbeat CPU 0 instructions: 560000000 cycles: 556969291 heartbeat IPC: 0.862081 cumulative IPC: 0.89496 (Simulation time: 0 hr 15 min 11 sec) 
Heartbeat CPU 0 instructions: 570000000 cycles: 568422441 heartbeat IPC: 0.873122 cumulative IPC: 0.894484 (Simulation time: 0 hr 15 min 28 sec) 
Heartbeat CPU 0 instructions: 580000000 cycles: 579219235 heartbeat IPC: 0.926201 cumulative IPC: 0.895122 (Simulation time: 0 hr 15 min 45 sec) 
Heartbeat CPU 0 instructions: 590000003 cycles: 590671476 heartbeat IPC: 0.873192 cumulative IPC: 0.894664 (Simulation time: 0 hr 16 min 2 sec) 
Heartbeat CPU 0 instructions: 600000000 cycles: 601287712 heartbeat IPC: 0.941953 cumulative IPC: 0.895563 (Simulation time: 0 hr 16 min 19 sec) 
Finished CPU 0 instructions: 500000001 cycles: 558308004 cumulative IPC: 0.895563 (Simulation time: 0 hr 16 min 19 sec) 

CPU 0 Branch Prediction Accuracy: 93.0095% MPKI: 10.0046
Number of Branches: 71558147 Number of Mispredictions: 5002285
Number of LOAD Instructions: 145708893
Number of LOAD Instructions (ROI): 145708893
Number of STORE Instructions: 40463820
Number of STORE Instructions (ROI): 40463820
Total Destination Memory Operands: 45240498
Total Destination Memory Operands (ROI): 45240498
Total Source Memory Operands: 145708893
Total Source Memory Operands (ROI): 145708893
Number of DEPENDED LOADS: 10672694
Number of DEPENDED LOADS (ROI): 10672694
Number of SQ_ADDED: 45240498
Number of SQ_ADDED (ROI): 45240498
Number of LQ_ADDED: 193324011
Number of LQ_ADDED (ROI): 193324011
Number of Instructions read from trace: 600000002

ChampSim completed all CPUs

Region of Interest Statistics

CPU 0 cumulative IPC: 0.895563 instructions: 500000001 cycles: 558308004
ITLB TOTAL     ACCESS:   77991137  HIT:   77991136  MISS:          1
ITLB LOAD      ACCESS:   77991137  HIT:   77991136  MISS:          1
ITLB RFO       ACCESS:          0  HIT:          0  MISS:          0
ITLB PREFETCH  ACCESS:          0  HIT:          0  MISS:          0
ITLB WRITEBACK ACCESS:          0  HIT:          0  MISS:          0
ITLB PREFETCH  REQUESTED:          0  ISSUED:          0  USEFUL:          0  USELESS:          0
ITLB TOTAL MSHR MERGED:          0
ITLB LOAD MSHR MERGED:          0
ITLB RFO MSHR MERGED:          0
ITLB PREFETCH MSHR MERGED:          0
ITLB WRITEBACK MSHR MERGED:          0
ITLB TOTAL ACCESSES:   77991137 HITS:   77991136 MISSES:          1
ITLB LOAD ACCESSES:   77991137 HITS:   77991136 MISSES:          1
ITLB RFO ACCESSES:          0 HITS:          0 MISSES:          0
ITLB PREFETCH ACCESSES:          0 HITS:          0 MISSES:          0
ITLB WRITEBACK ACCESSES:          0 HITS:          0 MISSES:          0
ITLB RQ ACCESS:  499999995
ITLB RQ TO_CACHE:   77991137
ITLB RQ MERGED:  422008858
ITLB RQ FORWARD:          0
ITLB WQ ACCESS:          0
ITLB WQ TO_CACHE:          0
ITLB WQ MERGED:          0
ITLB WQ FORWARD:          0
DTLB TOTAL     ACCESS:   98673527  HIT:   97792191  MISS:     881336
DTLB LOAD      ACCESS:   70893874  HIT:   70032341  MISS:     861533
DTLB RFO       ACCESS:   27779653  HIT:   27759850  MISS:      19803
DTLB PREFETCH  ACCESS:          0  HIT:          0  MISS:          0
DTLB WRITEBACK ACCESS:          0  HIT:          0  MISS:          0
DTLB PREFETCH  REQUESTED:          0  ISSUED:          0  USEFUL:          0  USELESS:          0
DTLB TOTAL MSHR MERGED:      87391
DTLB LOAD MSHR MERGED:      65650
DTLB RFO MSHR MERGED:      21741
DTLB PREFETCH MSHR MERGED:          0
DTLB WRITEBACK MSHR MERGED:          0
DTLB TOTAL ACCESSES:   98760918 HITS:   97792191 MISSES:     968727
DTLB LOAD ACCESSES:   70959524 HITS:   70032341 MISSES:     927183
DTLB RFO ACCESSES:   27801394 HITS:   27759850 MISSES:      41544
DTLB PREFETCH ACCESSES:          0 HITS:          0 MISSES:          0
DTLB WRITEBACK ACCESSES:          0 HITS:          0 MISSES:          0
DTLB RQ ACCESS:  150272356
DTLB RQ TO_CACHE:   98760918
DTLB RQ MERGED:   51511438
DTLB RQ FORWARD:          0
DTLB WQ ACCESS:          0
DTLB WQ TO_CACHE:          0
DTLB WQ MERGED:          0
DTLB WQ FORWARD:          0
L1D TOTAL     ACCESS:  173330604  HIT:  169161956  MISS:    4168648
L1D LOAD      ACCESS:   75280911  HIT:   73399623  MISS:    1881288
L1D RFO       ACCESS:   36778390  HIT:   36571775  MISS:     206615
L1D PREFETCH  ACCESS:   61271303  HIT:   59190558  MISS:    2080745
L1D WRITEBACK ACCESS:          0  HIT:          0  MISS:          0
L1D PREFETCH  REQUESTED:   75385067  ISSUED:   74820876  USEFUL:     415173  USELESS:    1665561
L1D TOTAL MSHR MERGED:     371861
L1D LOAD MSHR MERGED:     112876
L1D RFO MSHR MERGED:     132989
L1D PREFETCH MSHR MERGED:     125996
L1D WRITEBACK MSHR MERGED:          0
L1D TOTAL ACCESSES:  173854049 HITS:  169313540 MISSES:    4540509
L1D LOAD ACCESSES:   75387950 HITS:   73402506 MISSES:    1985444
L1D RFO ACCESSES:   36909973 HITS:   36571775 MISSES:     338198
L1D PREFETCH ACCESSES:   61556126 HITS:   59339259 MISSES:    2216867
L1D WRITEBACK ACCESSES:          0 HITS:          0 MISSES:          0
L1D RQ ACCESS:  112609953
L1D RQ TO_CACHE:   75385067
L1D RQ MERGED:   37222003
L1D RQ FORWARD:          0
L1D WQ ACCESS:   37662403
L1D WQ TO_CACHE:   36909973
L1D WQ MERGED:     752430
L1D WQ FORWARD:     151584
L1I TOTAL     ACCESS:  100699266  HIT:  100699241  MISS:         25
L1I LOAD      ACCESS:  100699266  HIT:  100699241  MISS:         25
L1I RFO       ACCESS:          0  HIT:          0  MISS:          0
L1I PREFETCH  ACCESS:          0  HIT:          0  MISS:          0
L1I WRITEBACK ACCESS:          0  HIT:          0  MISS:          0
L1I PREFETCH  REQUESTED:          0  ISSUED:          0  USEFUL:          0  USELESS:          0
L1I TOTAL MSHR MERGED:         10
L1I LOAD MSHR MERGED:         10
L1I RFO MSHR MERGED:          0
L1I PREFETCH MSHR MERGED:          0
L1I WRITEBACK MSHR MERGED:          0
L1I TOTAL ACCESSES:  100699276 HITS:  100699241 MISSES:         35
L1I LOAD ACCESSES:  100699276 HITS:  100699241 MISSES:         35
L1I RFO ACCESSES:          0 HITS:          0 MISSES:          0
L1I PREFETCH ACCESSES:          0 HITS:          0 MISSES:          0
L1I WRITEBACK ACCESSES:          0 HITS:          0 MISSES:          0
L1I RQ ACCESS:  499999995
L1I RQ TO_CACHE:  100699276
L1I RQ MERGED:  399300719
L1I RQ FORWARD:          0
L1I WQ ACCESS:          0
L1I WQ TO_CACHE:          0
L1I WQ MERGED:          0
L1I WQ FORWARD:          0
L2C TOTAL     ACCESS:    5852638  HIT:    4009437  MISS:    1843201
L2C LOAD      ACCESS:    1872468  HIT:    1061527  MISS:     810941
L2C RFO       ACCESS:     205204  HIT:     100564  MISS:     104640
L2C PREFETCH  ACCESS:    2169331  HIT:    1246132  MISS:     923199
L2C WRITEBACK ACCESS:    1605635  HIT:    1601214  MISS:       4421
L2C PREFETCH  REQUESTED:      91706  ISSUED:      91706  USEFUL:      86471  USELESS:     836751
L2C TOTAL MSHR MERGED:       1002
L2C LOAD MSHR MERGED:        249
L2C RFO MSHR MERGED:          0
L2C PREFETCH MSHR MERGED:        753
L2C WRITEBACK MSHR MERGED:          0
L2C TOTAL ACCESSES:    5853945 HITS:    4009604 MISSES:    1844341
L2C LOAD ACCESSES:    1872593 HITS:    1061652 MISSES:     810941
L2C RFO ACCESSES:     205209 HITS:     100569 MISSES:     104640
L2C PREFETCH ACCESSES:    2170508 HITS:    1246169 MISSES:     924339
L2C WRITEBACK ACCESSES:    1605635 HITS:    1601214 MISSES:       4421
L2C RQ ACCESS:    2077802
L2C RQ TO_CACHE:    2077672
L2C RQ MERGED:          0
L2C RQ FORWARD:          0
L2C WQ ACCESS:    1605635
L2C WQ TO_CACHE:    1605635
L2C WQ MERGED:          0
L2C WQ FORWARD:        167
LLC TOTAL     ACCESS:    2673575  HIT:    2201113  MISS:     472462
LLC LOAD      ACCESS:     810683  HIT:     622317  MISS:     188366
LLC RFO       ACCESS:     104640  HIT:      59830  MISS:      44810
LLC PREFETCH  ACCESS:     923576  HIT:     712805  MISS:     210771
LLC WRITEBACK ACCESS:     834676  HIT:     806161  MISS:      28515
LLC PREFETCH  REQUESTED:          0  ISSUED:          0  USEFUL:      27976  USELESS:     182924
LLC TOTAL MSHR MERGED:          3
LLC LOAD MSHR MERGED:          1
LLC RFO MSHR MERGED:          0
LLC PREFETCH MSHR MERGED:          2
LLC WRITEBACK MSHR MERGED:          0
LLC TOTAL ACCESSES:    2673590 HITS:    2201125 MISSES:     472465
LLC LOAD ACCESSES:     810692 HITS:     622326 MISSES:     188366
LLC RFO ACCESSES:     104640 HITS:      59830 MISSES:      44810
LLC PREFETCH ACCESSES:     923582 HITS:     712808 MISSES:     210774
LLC WRITEBACK ACCESSES:     834676 HITS:     806161 MISSES:      28515
LLC 0 RQ ACCESS:     915332
LLC 0 RQ TO_CACHE:     915323
LLC 0 RQ MERGED:          0
LLC 0 RQ FORWARD:          0
LLC WQ ACCESS:     834676
LLC WQ TO_CACHE:     834676
LLC WQ MERGED:          0
LLC WQ FORWARD:         12
Major fault: 0 Minor fault: 11278
CPU 0 L1D next line prefetcher final stats
CPU 0 L2C PC-based stride prefetcher final stats
All Misses: 564987
All Hits: 2489607
SD Algo Stats - Switches: 0 SRR-Repls: 219236 BRR-Repls: 0

DRAM Statistics
 CHANNEL 0
 RQ ROW_BUFFER_HIT:      29524  ROW_BUFFER_MISS:     414005
 DBUS_CONGESTED:     383952
 WQ ROW_BUFFER_HIT:      17329  ROW_BUFFER_MISS:     225211  FULL:          0

 AVG_CONGESTED_CYCLE: 13
LOADS RETIRED: 121769268
INSTR RETIRED: 500000000
