
*** ChampSim Multicore Out-of-Order Simulator ***

Warmup Instructions: 100000000
Simulation Instructions: 500000000
Number of CPUs: 1
LLC sets: 2048
LLC ways: 16
Clean RRIP Policies: 1212131112121311 Dirty RRIP Policies: 2212131122121311 PSEL Width: 10 Track Set: 4294967295 PSEL Mask: 1 Demote Mask: 1313324313133243DS Algo: 0Window size: 0
Off-chip DRAM Size: 4096 MB Channels: 1 Width: 64-bit Data Rate: 1600 MT/s

CPU 0 runs /mnt/beegfs/iconst01/spec2017/Mcf.trace.gz
NOT SORTED
TRACE STRING: /mnt/beegfs/iconst01/spec2017/Mcf.trace.gz
SORTED
TRACE STRING: /mnt/beegfs/iconst01/spec2017/Mcf.trace.gz
INITIAL
TRACE STRING: /mnt/beegfs/iconst01/spec2017/Mcf.trace.gz

champsim_seed used: 278

CPU 0 L1D next line prefetcher
CPU 0 L2C IP-based stride prefetcher
Initialize DRRIP state
Assign rand_sets[0]: 454  LLC: 2048
rand_sets[0]: 454
Assign rand_sets[1]: 1662  LLC: 2048
rand_sets[1]: 1662
Assign rand_sets[2]: 1921  LLC: 2048
rand_sets[2]: 1921
Assign rand_sets[3]: 1131  LLC: 2048
rand_sets[3]: 1131
Assign rand_sets[4]: 331  LLC: 2048
rand_sets[4]: 331
Assign rand_sets[5]: 1531  LLC: 2048
rand_sets[5]: 1531
Assign rand_sets[6]: 482  LLC: 2048
rand_sets[6]: 482
Assign rand_sets[7]: 1275  LLC: 2048
rand_sets[7]: 1275
Assign rand_sets[8]: 1876  LLC: 2048
rand_sets[8]: 1876
Assign rand_sets[9]: 2038  LLC: 2048
rand_sets[9]: 2038
Assign rand_sets[10]: 701  LLC: 2048
rand_sets[10]: 701
Assign rand_sets[11]: 479  LLC: 2048
rand_sets[11]: 479
Assign rand_sets[12]: 892  LLC: 2048
rand_sets[12]: 892
Assign rand_sets[13]: 1820  LLC: 2048
rand_sets[13]: 1820
Assign rand_sets[14]: 1505  LLC: 2048
rand_sets[14]: 1505
Assign rand_sets[15]: 1159  LLC: 2048
rand_sets[15]: 1159
Assign rand_sets[16]: 513  LLC: 2048
rand_sets[16]: 513
Assign rand_sets[17]: 703  LLC: 2048
rand_sets[17]: 703
Assign rand_sets[18]: 561  LLC: 2048
rand_sets[18]: 561
Assign rand_sets[19]: 990  LLC: 2048
rand_sets[19]: 990
Assign rand_sets[20]: 342  LLC: 2048
rand_sets[20]: 342
Assign rand_sets[21]: 882  LLC: 2048
rand_sets[21]: 882
Assign rand_sets[22]: 15  LLC: 2048
rand_sets[22]: 15
Assign rand_sets[23]: 71  LLC: 2048
rand_sets[23]: 71
Assign rand_sets[24]: 1127  LLC: 2048
rand_sets[24]: 1127
Assign rand_sets[25]: 1382  LLC: 2048
rand_sets[25]: 1382
Assign rand_sets[26]: 647  LLC: 2048
rand_sets[26]: 647
Assign rand_sets[27]: 857  LLC: 2048
rand_sets[27]: 857
Assign rand_sets[28]: 1450  LLC: 2048
rand_sets[28]: 1450
Assign rand_sets[29]: 1160  LLC: 2048
rand_sets[29]: 1160
Assign rand_sets[30]: 1852  LLC: 2048
rand_sets[30]: 1852
Assign rand_sets[31]: 1881  LLC: 2048
rand_sets[31]: 1881
Assign rand_sets[32]: 1770  LLC: 2048
rand_sets[32]: 1770
Assign rand_sets[33]: 1622  LLC: 2048
rand_sets[33]: 1622
Assign rand_sets[34]: 275  LLC: 2048
rand_sets[34]: 275
Assign rand_sets[35]: 635  LLC: 2048
rand_sets[35]: 635
Assign rand_sets[36]: 466  LLC: 2048
rand_sets[36]: 466
Assign rand_sets[37]: 1413  LLC: 2048
rand_sets[37]: 1413
Assign rand_sets[38]: 417  LLC: 2048
rand_sets[38]: 417
Assign rand_sets[39]: 472  LLC: 2048
rand_sets[39]: 472
Assign rand_sets[40]: 1340  LLC: 2048
rand_sets[40]: 1340
Assign rand_sets[41]: 852  LLC: 2048
rand_sets[41]: 852
Assign rand_sets[42]: 1365  LLC: 2048
rand_sets[42]: 1365
Assign rand_sets[43]: 47  LLC: 2048
rand_sets[43]: 47
Assign rand_sets[44]: 823  LLC: 2048
rand_sets[44]: 823
Assign rand_sets[45]: 686  LLC: 2048
rand_sets[45]: 686
Assign rand_sets[46]: 1637  LLC: 2048
rand_sets[46]: 1637
Assign rand_sets[47]: 1115  LLC: 2048
rand_sets[47]: 1115
Assign rand_sets[48]: 986  LLC: 2048
rand_sets[48]: 986
Assign rand_sets[49]: 258  LLC: 2048
rand_sets[49]: 258
Assign rand_sets[50]: 633  LLC: 2048
rand_sets[50]: 633
Assign rand_sets[51]: 920  LLC: 2048
rand_sets[51]: 920
Assign rand_sets[52]: 204  LLC: 2048
rand_sets[52]: 204
Assign rand_sets[53]: 227  LLC: 2048
rand_sets[53]: 227
Assign rand_sets[54]: 1818  LLC: 2048
rand_sets[54]: 1818
Assign rand_sets[55]: 886  LLC: 2048
rand_sets[55]: 886
Assign rand_sets[56]: 1422  LLC: 2048
rand_sets[56]: 1422
Assign rand_sets[57]: 607  LLC: 2048
rand_sets[57]: 607
Assign rand_sets[58]: 217  LLC: 2048
rand_sets[58]: 217
Assign rand_sets[59]: 1945  LLC: 2048
rand_sets[59]: 1945
Assign rand_sets[60]: 143  LLC: 2048
rand_sets[60]: 143
Assign rand_sets[61]: 1311  LLC: 2048
rand_sets[61]: 1311
Assign rand_sets[62]: 319  LLC: 2048
rand_sets[62]: 319
Assign rand_sets[63]: 1846  LLC: 2048
rand_sets[63]: 1846
 CLEAN-RRIP-POLICY-1: 1-2-1-2-1-3-1-1- CLEAN-RRIP-POLICY-2: 1-2-1-2-1-3-1-1-
 DIRTY-RRIP-POLICY-1: 2-2-1-2-1-3-1-1- DIRTY-RRIP-POLICY-2: 2-2-1-2-1-3-1-1-
 PSEL width: 10
Heartbeat CPU 0 instructions: 10000002 cycles: 6251646 heartbeat IPC: 1.59958 cumulative IPC: 1.59958 (Simulation time: 0 hr 0 min 12 sec) 
Heartbeat CPU 0 instructions: 20000000 cycles: 12478970 heartbeat IPC: 1.60583 cumulative IPC: 1.6027 (Simulation time: 0 hr 0 min 25 sec) 
Heartbeat CPU 0 instructions: 30000000 cycles: 18697330 heartbeat IPC: 1.60814 cumulative IPC: 1.60451 (Simulation time: 0 hr 0 min 38 sec) 
Heartbeat CPU 0 instructions: 40000000 cycles: 24915354 heartbeat IPC: 1.60823 cumulative IPC: 1.60544 (Simulation time: 0 hr 0 min 50 sec) 
Heartbeat CPU 0 instructions: 50000003 cycles: 31135900 heartbeat IPC: 1.60758 cumulative IPC: 1.60586 (Simulation time: 0 hr 1 min 3 sec) 
Heartbeat CPU 0 instructions: 60000000 cycles: 37339807 heartbeat IPC: 1.61189 cumulative IPC: 1.60686 (Simulation time: 0 hr 1 min 16 sec) 
Heartbeat CPU 0 instructions: 70000003 cycles: 43566627 heartbeat IPC: 1.60596 cumulative IPC: 1.60673 (Simulation time: 0 hr 1 min 28 sec) 
Heartbeat CPU 0 instructions: 80000000 cycles: 49805036 heartbeat IPC: 1.60297 cumulative IPC: 1.60626 (Simulation time: 0 hr 1 min 41 sec) 
Heartbeat CPU 0 instructions: 90000000 cycles: 56042318 heartbeat IPC: 1.60326 cumulative IPC: 1.60593 (Simulation time: 0 hr 1 min 54 sec) 
Heartbeat CPU 0 instructions: 100000000 cycles: 62270195 heartbeat IPC: 1.60568 cumulative IPC: 1.6059 (Simulation time: 0 hr 2 min 7 sec) 

Warmup complete CPU 0 instructions: 100000001 cycles: 62270196 (Simulation time: 0 hr 2 min 7 sec) 

Heartbeat CPU 0 instructions: 110000000 cycles: 89625547 heartbeat IPC: 0.365559 cumulative IPC: 0.365559 (Simulation time: 0 hr 2 min 32 sec) 
Heartbeat CPU 0 instructions: 120000000 cycles: 117000309 heartbeat IPC: 0.3653 cumulative IPC: 0.36543 (Simulation time: 0 hr 2 min 58 sec) 
Heartbeat CPU 0 instructions: 130000000 cycles: 144573683 heartbeat IPC: 0.362669 cumulative IPC: 0.364505 (Simulation time: 0 hr 3 min 23 sec) 
Heartbeat CPU 0 instructions: 140000000 cycles: 172052739 heartbeat IPC: 0.363914 cumulative IPC: 0.364357 (Simulation time: 0 hr 3 min 49 sec) 
Heartbeat CPU 0 instructions: 150000003 cycles: 199403939 heartbeat IPC: 0.365615 cumulative IPC: 0.364608 (Simulation time: 0 hr 4 min 14 sec) 
Heartbeat CPU 0 instructions: 160000000 cycles: 227177010 heartbeat IPC: 0.360061 cumulative IPC: 0.363842 (Simulation time: 0 hr 4 min 40 sec) 
Heartbeat CPU 0 instructions: 170000001 cycles: 254859968 heartbeat IPC: 0.361233 cumulative IPC: 0.363467 (Simulation time: 0 hr 5 min 6 sec) 
Heartbeat CPU 0 instructions: 180000000 cycles: 282557262 heartbeat IPC: 0.361046 cumulative IPC: 0.363162 (Simulation time: 0 hr 5 min 31 sec) 
Heartbeat CPU 0 instructions: 190000003 cycles: 310183671 heartbeat IPC: 0.361973 cumulative IPC: 0.36303 (Simulation time: 0 hr 5 min 57 sec) 
Heartbeat CPU 0 instructions: 200000000 cycles: 337932009 heartbeat IPC: 0.360382 cumulative IPC: 0.362763 (Simulation time: 0 hr 6 min 23 sec) 
Heartbeat CPU 0 instructions: 210000003 cycles: 365765235 heartbeat IPC: 0.359283 cumulative IPC: 0.362444 (Simulation time: 0 hr 6 min 49 sec) 
Heartbeat CPU 0 instructions: 220000000 cycles: 393906732 heartbeat IPC: 0.355347 cumulative IPC: 0.361842 (Simulation time: 0 hr 7 min 14 sec) 
Heartbeat CPU 0 instructions: 230000002 cycles: 421540220 heartbeat IPC: 0.36188 cumulative IPC: 0.361845 (Simulation time: 0 hr 7 min 40 sec) 
Heartbeat CPU 0 instructions: 240000000 cycles: 449690571 heartbeat IPC: 0.355235 cumulative IPC: 0.361365 (Simulation time: 0 hr 8 min 6 sec) 
Heartbeat CPU 0 instructions: 250000000 cycles: 477609185 heartbeat IPC: 0.358184 cumulative IPC: 0.361151 (Simulation time: 0 hr 8 min 32 sec) 
Heartbeat CPU 0 instructions: 260000000 cycles: 505578929 heartbeat IPC: 0.357529 cumulative IPC: 0.360922 (Simulation time: 0 hr 8 min 58 sec) 
Heartbeat CPU 0 instructions: 270000001 cycles: 533618146 heartbeat IPC: 0.356643 cumulative IPC: 0.360668 (Simulation time: 0 hr 9 min 24 sec) 
Heartbeat CPU 0 instructions: 280000000 cycles: 561627867 heartbeat IPC: 0.357019 cumulative IPC: 0.360463 (Simulation time: 0 hr 9 min 50 sec) 
Heartbeat CPU 0 instructions: 290000001 cycles: 589698184 heartbeat IPC: 0.356248 cumulative IPC: 0.360239 (Simulation time: 0 hr 10 min 16 sec) 
Heartbeat CPU 0 instructions: 300000000 cycles: 618075948 heartbeat IPC: 0.352389 cumulative IPC: 0.359838 (Simulation time: 0 hr 10 min 42 sec) 
Heartbeat CPU 0 instructions: 310000003 cycles: 645992301 heartbeat IPC: 0.358213 cumulative IPC: 0.35976 (Simulation time: 0 hr 11 min 8 sec) 
Heartbeat CPU 0 instructions: 320000000 cycles: 674356215 heartbeat IPC: 0.352561 cumulative IPC: 0.359427 (Simulation time: 0 hr 11 min 34 sec) 
Heartbeat CPU 0 instructions: 330000003 cycles: 702223126 heartbeat IPC: 0.358849 cumulative IPC: 0.359401 (Simulation time: 0 hr 12 min 0 sec) 
Heartbeat CPU 0 instructions: 340000000 cycles: 730660614 heartbeat IPC: 0.351648 cumulative IPC: 0.359072 (Simulation time: 0 hr 12 min 26 sec) 
Heartbeat CPU 0 instructions: 350000002 cycles: 759100922 heartbeat IPC: 0.351614 cumulative IPC: 0.358767 (Simulation time: 0 hr 12 min 52 sec) 
Heartbeat CPU 0 instructions: 360000000 cycles: 787648900 heartbeat IPC: 0.350287 cumulative IPC: 0.358433 (Simulation time: 0 hr 13 min 18 sec) 
Heartbeat CPU 0 instructions: 370000002 cycles: 815963521 heartbeat IPC: 0.353175 cumulative IPC: 0.358236 (Simulation time: 0 hr 13 min 43 sec) 
Heartbeat CPU 0 instructions: 380000000 cycles: 844046418 heartbeat IPC: 0.356089 cumulative IPC: 0.358159 (Simulation time: 0 hr 14 min 9 sec) 
Heartbeat CPU 0 instructions: 390000002 cycles: 872159102 heartbeat IPC: 0.355711 cumulative IPC: 0.358074 (Simulation time: 0 hr 14 min 35 sec) 
Heartbeat CPU 0 instructions: 400000000 cycles: 900542924 heartbeat IPC: 0.352313 cumulative IPC: 0.357879 (Simulation time: 0 hr 15 min 1 sec) 
Heartbeat CPU 0 instructions: 410000002 cycles: 928653074 heartbeat IPC: 0.355743 cumulative IPC: 0.357809 (Simulation time: 0 hr 15 min 27 sec) 
Heartbeat CPU 0 instructions: 420000000 cycles: 956564419 heartbeat IPC: 0.358277 cumulative IPC: 0.357824 (Simulation time: 0 hr 15 min 53 sec) 
Heartbeat CPU 0 instructions: 430000000 cycles: 984896351 heartbeat IPC: 0.352959 cumulative IPC: 0.357675 (Simulation time: 0 hr 16 min 19 sec) 
Heartbeat CPU 0 instructions: 440000000 cycles: 1012811341 heartbeat IPC: 0.35823 cumulative IPC: 0.357691 (Simulation time: 0 hr 16 min 45 sec) 
Heartbeat CPU 0 instructions: 450000000 cycles: 1041867325 heartbeat IPC: 0.344163 cumulative IPC: 0.35729 (Simulation time: 0 hr 17 min 13 sec) 
Heartbeat CPU 0 instructions: 460000000 cycles: 1070872773 heartbeat IPC: 0.344763 cumulative IPC: 0.356929 (Simulation time: 0 hr 17 min 40 sec) 
Heartbeat CPU 0 instructions: 470000001 cycles: 1099575780 heartbeat IPC: 0.348396 cumulative IPC: 0.356693 (Simulation time: 0 hr 18 min 7 sec) 
Heartbeat CPU 0 instructions: 480000000 cycles: 1128561345 heartbeat IPC: 0.344999 cumulative IPC: 0.356375 (Simulation time: 0 hr 18 min 35 sec) 
Heartbeat CPU 0 instructions: 490000000 cycles: 1156928070 heartbeat IPC: 0.352526 cumulative IPC: 0.356276 (Simulation time: 0 hr 19 min 2 sec) 
Heartbeat CPU 0 instructions: 500000000 cycles: 1186272669 heartbeat IPC: 0.340778 cumulative IPC: 0.355871 (Simulation time: 0 hr 19 min 29 sec) 
Heartbeat CPU 0 instructions: 510000003 cycles: 1215526384 heartbeat IPC: 0.341837 cumulative IPC: 0.355515 (Simulation time: 0 hr 19 min 57 sec) 
Heartbeat CPU 0 instructions: 520000000 cycles: 1245064456 heartbeat IPC: 0.338546 cumulative IPC: 0.355091 (Simulation time: 0 hr 20 min 24 sec) 
Heartbeat CPU 0 instructions: 530000001 cycles: 1274635245 heartbeat IPC: 0.338172 cumulative IPC: 0.354679 (Simulation time: 0 hr 20 min 52 sec) 
Heartbeat CPU 0 instructions: 540000000 cycles: 1304101635 heartbeat IPC: 0.33937 cumulative IPC: 0.354315 (Simulation time: 0 hr 21 min 19 sec) 
Heartbeat CPU 0 instructions: 550000000 cycles: 1333560835 heartbeat IPC: 0.339453 cumulative IPC: 0.353971 (Simulation time: 0 hr 21 min 47 sec) 
Heartbeat CPU 0 instructions: 560000000 cycles: 1363487723 heartbeat IPC: 0.334148 cumulative IPC: 0.353515 (Simulation time: 0 hr 22 min 15 sec) 
Heartbeat CPU 0 instructions: 570000001 cycles: 1393336733 heartbeat IPC: 0.33502 cumulative IPC: 0.3531 (Simulation time: 0 hr 22 min 42 sec) 
Heartbeat CPU 0 instructions: 580000000 cycles: 1423151774 heartbeat IPC: 0.335401 cumulative IPC: 0.352713 (Simulation time: 0 hr 23 min 10 sec) 
Heartbeat CPU 0 instructions: 590000000 cycles: 1453216126 heartbeat IPC: 0.33262 cumulative IPC: 0.352278 (Simulation time: 0 hr 23 min 38 sec) 
Heartbeat CPU 0 instructions: 600000000 cycles: 1483541120 heartbeat IPC: 0.329761 cumulative IPC: 0.351798 (Simulation time: 0 hr 24 min 6 sec) 
Finished CPU 0 instructions: 500000003 cycles: 1421270937 cumulative IPC: 0.351798 (Simulation time: 0 hr 24 min 6 sec) 

CPU 0 Branch Prediction Accuracy: 91.1342% MPKI: 18.7968
Number of Branches: 106006945 Number of Mispredictions: 9398408
Number of LOAD Instructions: 207894007
Number of LOAD Instructions (ROI): 207894007
Number of STORE Instructions: 54285997
Number of STORE Instructions (ROI): 54285997
Total Destination Memory Operands: 57463404
Total Destination Memory Operands (ROI): 57463404
Total Source Memory Operands: 207894007
Total Source Memory Operands (ROI): 207894007
Number of DEPENDED LOADS: 18148688
Number of DEPENDED LOADS (ROI): 18148688
Number of SQ_ADDED: 57463404
Number of SQ_ADDED (ROI): 57463404
Number of LQ_ADDED: 210688097
Number of LQ_ADDED (ROI): 210688097
Number of Instructions read from trace: 600000039

ChampSim completed all CPUs

Region of Interest Statistics

CPU 0 cumulative IPC: 0.351798 instructions: 500000003 cycles: 1421270937
ITLB TOTAL     ACCESS:   96365660  HIT:   96365660  MISS:          0
ITLB LOAD      ACCESS:   96365660  HIT:   96365660  MISS:          0
ITLB RFO       ACCESS:          0  HIT:          0  MISS:          0
ITLB PREFETCH  ACCESS:          0  HIT:          0  MISS:          0
ITLB WRITEBACK ACCESS:          0  HIT:          0  MISS:          0
ITLB PREFETCH  REQUESTED:          0  ISSUED:          0  USEFUL:          0  USELESS:          0
ITLB TOTAL MSHR MERGED:          0
ITLB LOAD MSHR MERGED:          0
ITLB RFO MSHR MERGED:          0
ITLB PREFETCH MSHR MERGED:          0
ITLB WRITEBACK MSHR MERGED:          0
ITLB TOTAL ACCESSES:   96365660 HITS:   96365660 MISSES:          0
ITLB LOAD ACCESSES:   96365660 HITS:   96365660 MISSES:          0
ITLB RFO ACCESSES:          0 HITS:          0 MISSES:          0
ITLB PREFETCH ACCESSES:          0 HITS:          0 MISSES:          0
ITLB WRITEBACK ACCESSES:          0 HITS:          0 MISSES:          0
ITLB RQ ACCESS:  499999980
ITLB RQ TO_CACHE:   96365660
ITLB RQ MERGED:  403634320
ITLB RQ FORWARD:          0
ITLB WQ ACCESS:          0
ITLB WQ TO_CACHE:          0
ITLB WQ MERGED:          0
ITLB WQ FORWARD:          0
DTLB TOTAL     ACCESS:  155136070  HIT:  150223880  MISS:    4912190
DTLB LOAD      ACCESS:  117696083  HIT:  113305462  MISS:    4390621
DTLB RFO       ACCESS:   37439987  HIT:   36918418  MISS:     521569
DTLB PREFETCH  ACCESS:          0  HIT:          0  MISS:          0
DTLB WRITEBACK ACCESS:          0  HIT:          0  MISS:          0
DTLB PREFETCH  REQUESTED:          0  ISSUED:          0  USEFUL:          0  USELESS:          0
DTLB TOTAL MSHR MERGED:     445214
DTLB LOAD MSHR MERGED:     153195
DTLB RFO MSHR MERGED:     292019
DTLB PREFETCH MSHR MERGED:          0
DTLB WRITEBACK MSHR MERGED:          0
DTLB TOTAL ACCESSES:  155581284 HITS:  150223880 MISSES:    5357404
DTLB LOAD ACCESSES:  117849278 HITS:  113305462 MISSES:    4543816
DTLB RFO ACCESSES:   37732006 HITS:   36918418 MISSES:     813588
DTLB PREFETCH ACCESSES:          0 HITS:          0 MISSES:          0
DTLB WRITEBACK ACCESSES:          0 HITS:          0 MISSES:          0
DTLB RQ ACCESS:  205934860
DTLB RQ TO_CACHE:  155581284
DTLB RQ MERGED:   50353576
DTLB RQ FORWARD:          0
DTLB WQ ACCESS:          0
DTLB WQ TO_CACHE:          0
DTLB WQ MERGED:          0
DTLB WQ FORWARD:          0
L1D TOTAL     ACCESS:  277208214  HIT:  242386100  MISS:   34822114
L1D LOAD      ACCESS:  125448594  HIT:  107934081  MISS:   17514513
L1D RFO       ACCESS:   41125862  HIT:   38814091  MISS:    2311771
L1D PREFETCH  ACCESS:  110633758  HIT:   95637928  MISS:   14995830
L1D WRITEBACK ACCESS:          0  HIT:          0  MISS:          0
L1D PREFETCH  REQUESTED:  126247843  ISSUED:  124728335  USEFUL:    2829232  USELESS:   12166623
L1D TOTAL MSHR MERGED:    8451009
L1D LOAD MSHR MERGED:    1400937
L1D RFO MSHR MERGED:    3772030
L1D PREFETCH MSHR MERGED:    3278042
L1D WRITEBACK MSHR MERGED:          0
L1D TOTAL ACCESSES:  285746319 HITS:  242473196 MISSES:   43273123
L1D LOAD ACCESSES:  126247881 HITS:  107934119 MISSES:   18313762
L1D RFO ACCESSES:   44897403 HITS:   38814091 MISSES:    6083312
L1D PREFETCH ACCESSES:  114601035 HITS:   95724986 MISSES:   18876049
L1D WRITEBACK ACCESSES:          0 HITS:          0 MISSES:          0
L1D RQ ACCESS:  158387979
L1D RQ TO_CACHE:  126247843
L1D RQ MERGED:   32140098
L1D RQ FORWARD:          0
L1D WQ ACCESS:   47546882
L1D WQ TO_CACHE:   44897403
L1D WQ MERGED:    2649479
L1D WQ FORWARD:      87096
L1I TOTAL     ACCESS:  132760024  HIT:  132760024  MISS:          0
L1I LOAD      ACCESS:  132760024  HIT:  132760024  MISS:          0
L1I RFO       ACCESS:          0  HIT:          0  MISS:          0
L1I PREFETCH  ACCESS:          0  HIT:          0  MISS:          0
L1I WRITEBACK ACCESS:          0  HIT:          0  MISS:          0
L1I PREFETCH  REQUESTED:          0  ISSUED:          0  USEFUL:          0  USELESS:          0
L1I TOTAL MSHR MERGED:          0
L1I LOAD MSHR MERGED:          0
L1I RFO MSHR MERGED:          0
L1I PREFETCH MSHR MERGED:          0
L1I WRITEBACK MSHR MERGED:          0
L1I TOTAL ACCESSES:  132760024 HITS:  132760024 MISSES:          0
L1I LOAD ACCESSES:  132760024 HITS:  132760024 MISSES:          0
L1I RFO ACCESSES:          0 HITS:          0 MISSES:          0
L1I PREFETCH ACCESSES:          0 HITS:          0 MISSES:          0
L1I WRITEBACK ACCESSES:          0 HITS:          0 MISSES:          0
L1I RQ ACCESS:  499999980
L1I RQ TO_CACHE:  132760024
L1I RQ MERGED:  367239956
L1I RQ FORWARD:          0
L1I WQ ACCESS:          0
L1I WQ TO_CACHE:          0
L1I WQ MERGED:          0
L1I WQ FORWARD:          0
L2C TOTAL     ACCESS:   39603044  HIT:   20635085  MISS:   18967959
L2C LOAD      ACCESS:   16912767  HIT:    8570817  MISS:    8341950
L2C RFO       ACCESS:    2311241  HIT:     630835  MISS:    1680406
L2C PREFETCH  ACCESS:   17156646  HIT:    8214785  MISS:    8941861
L2C WRITEBACK ACCESS:    3222390  HIT:    3218648  MISS:       3742
L2C PREFETCH  REQUESTED:    2782611  ISSUED:    2782611  USEFUL:    1311231  USELESS:    7630361
L2C TOTAL MSHR MERGED:     461730
L2C LOAD MSHR MERGED:      54145
L2C RFO MSHR MERGED:          0
L2C PREFETCH MSHR MERGED:     407585
L2C WRITEBACK MSHR MERGED:          0
L2C TOTAL ACCESSES:   40142529 HITS:   20635232 MISSES:   19507297
L2C LOAD ACCESSES:   16912825 HITS:    8570875 MISSES:    8341950
L2C RFO ACCESSES:    2311282 HITS:     630876 MISSES:    1680406
L2C PREFETCH ACCESSES:   17696032 HITS:    8214833 MISSES:    9481199
L2C WRITEBACK ACCESSES:    3222390 HITS:    3218648 MISSES:       3742
L2C RQ ACCESS:   19224107
L2C RQ TO_CACHE:   19224008
L2C RQ MERGED:          0
L2C RQ FORWARD:          0
L2C WQ ACCESS:    3222390
L2C WQ TO_CACHE:    3222390
L2C WQ MERGED:          0
L2C WQ FORWARD:        147
LLC TOTAL     ACCESS:   21187300  HIT:   11560416  MISS:    9626884
LLC LOAD      ACCESS:    8287787  HIT:    4128286  MISS:    4159501
LLC RFO       ACCESS:    1680356  HIT:    1457491  MISS:     222865
LLC PREFETCH  ACCESS:    9043587  HIT:    4092326  MISS:    4951261
LLC WRITEBACK ACCESS:    2175570  HIT:    1882313  MISS:     293257
LLC PREFETCH  REQUESTED:          0  ISSUED:          0  USEFUL:     270484  USELESS:    4687625
LLC TOTAL MSHR MERGED:      25986
LLC LOAD MSHR MERGED:       6836
LLC RFO MSHR MERGED:          0
LLC PREFETCH MSHR MERGED:      19150
LLC WRITEBACK MSHR MERGED:          0
LLC TOTAL ACCESSES:   21213387 HITS:   11560517 MISSES:    9652870
LLC LOAD ACCESSES:    8287805 HITS:    4128304 MISSES:    4159501
LLC RFO ACCESSES:    1680406 HITS:    1457541 MISSES:     222865
LLC PREFETCH ACCESSES:    9069606 HITS:    4092359 MISSES:    4977247
LLC WRITEBACK ACCESSES:    2175570 HITS:    1882313 MISSES:     293257
LLC 0 RQ ACCESS:    9968211
LLC 0 RQ TO_CACHE:    9968143
LLC 0 RQ MERGED:          0
LLC 0 RQ FORWARD:          0
LLC WQ ACCESS:    2175571
LLC WQ TO_CACHE:    2175571
LLC WQ MERGED:          0
LLC WQ FORWARD:        101
Major fault: 0 Minor fault: 56391
CPU 0 L1D next line prefetcher final stats
CPU 0 L2C PC-based stride prefetcher final stats
All Misses: 11136325
All Hits: 13427818
SD Algo Stats - Switches: 0 SRR-Repls: 4399727 BRR-Repls: 0

DRAM Statistics
 CHANNEL 0
 RQ ROW_BUFFER_HIT:    4648349  ROW_BUFFER_MISS:    4641645
 DBUS_CONGESTED:    4445240
 WQ ROW_BUFFER_HIT:      56617  ROW_BUFFER_MISS:     396211  FULL:          0

 AVG_CONGESTED_CYCLE: 12
LOADS RETIRED: 173631671
INSTR RETIRED: 500000000
