
*** ChampSim Multicore Out-of-Order Simulator ***

Warmup Instructions: 100000000
Simulation Instructions: 500000000
Number of CPUs: 1
LLC sets: 2048
LLC ways: 16
Clean RRIP Policies: 1212131112121311 Dirty RRIP Policies: 2212131122121311 PSEL Width: 10 Track Set: 4294967295 PSEL Mask: 1 Demote Mask: 1313324313133243DS Algo: 0Window size: 0
Off-chip DRAM Size: 4096 MB Channels: 1 Width: 64-bit Data Rate: 1600 MT/s

CPU 0 runs /mnt/beegfs/iconst01/spec2017/Roms.trace.gz
NOT SORTED
TRACE STRING: /mnt/beegfs/iconst01/spec2017/Roms.trace.gz
SORTED
TRACE STRING: /mnt/beegfs/iconst01/spec2017/Roms.trace.gz
INITIAL
TRACE STRING: /mnt/beegfs/iconst01/spec2017/Roms.trace.gz

champsim_seed used: 417

CPU 0 L1D next line prefetcher
CPU 0 L2C IP-based stride prefetcher
Initialize DRRIP state
Assign rand_sets[0]: 454  LLC: 2048
rand_sets[0]: 454
Assign rand_sets[1]: 1662  LLC: 2048
rand_sets[1]: 1662
Assign rand_sets[2]: 1921  LLC: 2048
rand_sets[2]: 1921
Assign rand_sets[3]: 1131  LLC: 2048
rand_sets[3]: 1131
Assign rand_sets[4]: 331  LLC: 2048
rand_sets[4]: 331
Assign rand_sets[5]: 1531  LLC: 2048
rand_sets[5]: 1531
Assign rand_sets[6]: 482  LLC: 2048
rand_sets[6]: 482
Assign rand_sets[7]: 1275  LLC: 2048
rand_sets[7]: 1275
Assign rand_sets[8]: 1876  LLC: 2048
rand_sets[8]: 1876
Assign rand_sets[9]: 2038  LLC: 2048
rand_sets[9]: 2038
Assign rand_sets[10]: 701  LLC: 2048
rand_sets[10]: 701
Assign rand_sets[11]: 479  LLC: 2048
rand_sets[11]: 479
Assign rand_sets[12]: 892  LLC: 2048
rand_sets[12]: 892
Assign rand_sets[13]: 1820  LLC: 2048
rand_sets[13]: 1820
Assign rand_sets[14]: 1505  LLC: 2048
rand_sets[14]: 1505
Assign rand_sets[15]: 1159  LLC: 2048
rand_sets[15]: 1159
Assign rand_sets[16]: 513  LLC: 2048
rand_sets[16]: 513
Assign rand_sets[17]: 703  LLC: 2048
rand_sets[17]: 703
Assign rand_sets[18]: 561  LLC: 2048
rand_sets[18]: 561
Assign rand_sets[19]: 990  LLC: 2048
rand_sets[19]: 990
Assign rand_sets[20]: 342  LLC: 2048
rand_sets[20]: 342
Assign rand_sets[21]: 882  LLC: 2048
rand_sets[21]: 882
Assign rand_sets[22]: 15  LLC: 2048
rand_sets[22]: 15
Assign rand_sets[23]: 71  LLC: 2048
rand_sets[23]: 71
Assign rand_sets[24]: 1127  LLC: 2048
rand_sets[24]: 1127
Assign rand_sets[25]: 1382  LLC: 2048
rand_sets[25]: 1382
Assign rand_sets[26]: 647  LLC: 2048
rand_sets[26]: 647
Assign rand_sets[27]: 857  LLC: 2048
rand_sets[27]: 857
Assign rand_sets[28]: 1450  LLC: 2048
rand_sets[28]: 1450
Assign rand_sets[29]: 1160  LLC: 2048
rand_sets[29]: 1160
Assign rand_sets[30]: 1852  LLC: 2048
rand_sets[30]: 1852
Assign rand_sets[31]: 1881  LLC: 2048
rand_sets[31]: 1881
Assign rand_sets[32]: 1770  LLC: 2048
rand_sets[32]: 1770
Assign rand_sets[33]: 1622  LLC: 2048
rand_sets[33]: 1622
Assign rand_sets[34]: 275  LLC: 2048
rand_sets[34]: 275
Assign rand_sets[35]: 635  LLC: 2048
rand_sets[35]: 635
Assign rand_sets[36]: 466  LLC: 2048
rand_sets[36]: 466
Assign rand_sets[37]: 1413  LLC: 2048
rand_sets[37]: 1413
Assign rand_sets[38]: 417  LLC: 2048
rand_sets[38]: 417
Assign rand_sets[39]: 472  LLC: 2048
rand_sets[39]: 472
Assign rand_sets[40]: 1340  LLC: 2048
rand_sets[40]: 1340
Assign rand_sets[41]: 852  LLC: 2048
rand_sets[41]: 852
Assign rand_sets[42]: 1365  LLC: 2048
rand_sets[42]: 1365
Assign rand_sets[43]: 47  LLC: 2048
rand_sets[43]: 47
Assign rand_sets[44]: 823  LLC: 2048
rand_sets[44]: 823
Assign rand_sets[45]: 686  LLC: 2048
rand_sets[45]: 686
Assign rand_sets[46]: 1637  LLC: 2048
rand_sets[46]: 1637
Assign rand_sets[47]: 1115  LLC: 2048
rand_sets[47]: 1115
Assign rand_sets[48]: 986  LLC: 2048
rand_sets[48]: 986
Assign rand_sets[49]: 258  LLC: 2048
rand_sets[49]: 258
Assign rand_sets[50]: 633  LLC: 2048
rand_sets[50]: 633
Assign rand_sets[51]: 920  LLC: 2048
rand_sets[51]: 920
Assign rand_sets[52]: 204  LLC: 2048
rand_sets[52]: 204
Assign rand_sets[53]: 227  LLC: 2048
rand_sets[53]: 227
Assign rand_sets[54]: 1818  LLC: 2048
rand_sets[54]: 1818
Assign rand_sets[55]: 886  LLC: 2048
rand_sets[55]: 886
Assign rand_sets[56]: 1422  LLC: 2048
rand_sets[56]: 1422
Assign rand_sets[57]: 607  LLC: 2048
rand_sets[57]: 607
Assign rand_sets[58]: 217  LLC: 2048
rand_sets[58]: 217
Assign rand_sets[59]: 1945  LLC: 2048
rand_sets[59]: 1945
Assign rand_sets[60]: 143  LLC: 2048
rand_sets[60]: 143
Assign rand_sets[61]: 1311  LLC: 2048
rand_sets[61]: 1311
Assign rand_sets[62]: 319  LLC: 2048
rand_sets[62]: 319
Assign rand_sets[63]: 1846  LLC: 2048
rand_sets[63]: 1846
 CLEAN-RRIP-POLICY-1: 1-2-1-2-1-3-1-1- CLEAN-RRIP-POLICY-2: 1-2-1-2-1-3-1-1-
 DIRTY-RRIP-POLICY-1: 2-2-1-2-1-3-1-1- DIRTY-RRIP-POLICY-2: 2-2-1-2-1-3-1-1-
 PSEL width: 10
Heartbeat CPU 0 instructions: 10000000 cycles: 4688091 heartbeat IPC: 2.13306 cumulative IPC: 2.13306 (Simulation time: 0 hr 0 min 18 sec) 
Heartbeat CPU 0 instructions: 20000000 cycles: 9325364 heartbeat IPC: 2.15644 cumulative IPC: 2.14469 (Simulation time: 0 hr 0 min 35 sec) 
Heartbeat CPU 0 instructions: 30000003 cycles: 14019767 heartbeat IPC: 2.1302 cumulative IPC: 2.13984 (Simulation time: 0 hr 0 min 52 sec) 
Heartbeat CPU 0 instructions: 40000000 cycles: 18670208 heartbeat IPC: 2.15033 cumulative IPC: 2.14245 (Simulation time: 0 hr 1 min 9 sec) 
Heartbeat CPU 0 instructions: 50000003 cycles: 23323604 heartbeat IPC: 2.14897 cumulative IPC: 2.14375 (Simulation time: 0 hr 1 min 26 sec) 
Heartbeat CPU 0 instructions: 60000000 cycles: 27976278 heartbeat IPC: 2.1493 cumulative IPC: 2.14467 (Simulation time: 0 hr 1 min 43 sec) 
Heartbeat CPU 0 instructions: 70000002 cycles: 32367470 heartbeat IPC: 2.27729 cumulative IPC: 2.16267 (Simulation time: 0 hr 1 min 58 sec) 
Heartbeat CPU 0 instructions: 80000000 cycles: 36304232 heartbeat IPC: 2.54016 cumulative IPC: 2.2036 (Simulation time: 0 hr 2 min 10 sec) 
Heartbeat CPU 0 instructions: 90000000 cycles: 40249575 heartbeat IPC: 2.53463 cumulative IPC: 2.23605 (Simulation time: 0 hr 2 min 22 sec) 
Heartbeat CPU 0 instructions: 100000000 cycles: 44212109 heartbeat IPC: 2.52364 cumulative IPC: 2.26182 (Simulation time: 0 hr 2 min 34 sec) 

Warmup complete CPU 0 instructions: 100000002 cycles: 44212110 (Simulation time: 0 hr 2 min 34 sec) 

Heartbeat CPU 0 instructions: 110000000 cycles: 54065651 heartbeat IPC: 1.01486 cumulative IPC: 1.01486 (Simulation time: 0 hr 2 min 54 sec) 
Heartbeat CPU 0 instructions: 120000000 cycles: 63956489 heartbeat IPC: 1.01104 cumulative IPC: 1.01295 (Simulation time: 0 hr 3 min 13 sec) 
Heartbeat CPU 0 instructions: 130000002 cycles: 73828756 heartbeat IPC: 1.01294 cumulative IPC: 1.01294 (Simulation time: 0 hr 3 min 33 sec) 
Heartbeat CPU 0 instructions: 140000000 cycles: 83630143 heartbeat IPC: 1.02026 cumulative IPC: 1.01476 (Simulation time: 0 hr 3 min 53 sec) 
Heartbeat CPU 0 instructions: 150000003 cycles: 93611463 heartbeat IPC: 1.00187 cumulative IPC: 1.01216 (Simulation time: 0 hr 4 min 13 sec) 
Heartbeat CPU 0 instructions: 160000000 cycles: 105178442 heartbeat IPC: 0.86453 cumulative IPC: 0.98415 (Simulation time: 0 hr 4 min 35 sec) 
Heartbeat CPU 0 instructions: 170000000 cycles: 118626432 heartbeat IPC: 0.743606 cumulative IPC: 0.940679 (Simulation time: 0 hr 4 min 59 sec) 
Heartbeat CPU 0 instructions: 180000000 cycles: 131963826 heartbeat IPC: 0.749772 cumulative IPC: 0.911663 (Simulation time: 0 hr 5 min 23 sec) 
Heartbeat CPU 0 instructions: 190000000 cycles: 145457825 heartbeat IPC: 0.74107 cumulative IPC: 0.888927 (Simulation time: 0 hr 5 min 48 sec) 
Heartbeat CPU 0 instructions: 200000000 cycles: 159642588 heartbeat IPC: 0.704982 cumulative IPC: 0.866322 (Simulation time: 0 hr 6 min 12 sec) 
Heartbeat CPU 0 instructions: 210000001 cycles: 173857054 heartbeat IPC: 0.703509 cumulative IPC: 0.848471 (Simulation time: 0 hr 6 min 36 sec) 
Heartbeat CPU 0 instructions: 220000000 cycles: 187989906 heartbeat IPC: 0.707571 cumulative IPC: 0.834621 (Simulation time: 0 hr 7 min 0 sec) 
Heartbeat CPU 0 instructions: 230000000 cycles: 202109437 heartbeat IPC: 0.708239 cumulative IPC: 0.82332 (Simulation time: 0 hr 7 min 25 sec) 
Heartbeat CPU 0 instructions: 240000000 cycles: 216279510 heartbeat IPC: 0.705713 cumulative IPC: 0.813635 (Simulation time: 0 hr 7 min 51 sec) 
Heartbeat CPU 0 instructions: 250000002 cycles: 227756806 heartbeat IPC: 0.871286 cumulative IPC: 0.81724 (Simulation time: 0 hr 8 min 14 sec) 
Heartbeat CPU 0 instructions: 260000000 cycles: 235856856 heartbeat IPC: 1.23456 cumulative IPC: 0.834878 (Simulation time: 0 hr 8 min 33 sec) 
Heartbeat CPU 0 instructions: 270000003 cycles: 244585992 heartbeat IPC: 1.14559 cumulative IPC: 0.848414 (Simulation time: 0 hr 8 min 54 sec) 
Heartbeat CPU 0 instructions: 280000000 cycles: 255068207 heartbeat IPC: 0.953997 cumulative IPC: 0.853663 (Simulation time: 0 hr 9 min 16 sec) 
Heartbeat CPU 0 instructions: 290000000 cycles: 265357568 heartbeat IPC: 0.971878 cumulative IPC: 0.859163 (Simulation time: 0 hr 9 min 38 sec) 
Heartbeat CPU 0 instructions: 300000000 cycles: 275643774 heartbeat IPC: 0.972176 cumulative IPC: 0.864186 (Simulation time: 0 hr 10 min 0 sec) 
Heartbeat CPU 0 instructions: 310000000 cycles: 286096433 heartbeat IPC: 0.956694 cumulative IPC: 0.868184 (Simulation time: 0 hr 10 min 22 sec) 
Heartbeat CPU 0 instructions: 320000000 cycles: 296381745 heartbeat IPC: 0.97226 cumulative IPC: 0.872429 (Simulation time: 0 hr 10 min 45 sec) 
Heartbeat CPU 0 instructions: 330000002 cycles: 306698958 heartbeat IPC: 0.969254 cumulative IPC: 0.876234 (Simulation time: 0 hr 11 min 8 sec) 
Heartbeat CPU 0 instructions: 340000000 cycles: 317780095 heartbeat IPC: 0.902434 cumulative IPC: 0.877296 (Simulation time: 0 hr 11 min 32 sec) 
Heartbeat CPU 0 instructions: 350000001 cycles: 327237782 heartbeat IPC: 1.05734 cumulative IPC: 0.883312 (Simulation time: 0 hr 11 min 53 sec) 
Heartbeat CPU 0 instructions: 360000000 cycles: 336718461 heartbeat IPC: 1.05478 cumulative IPC: 0.88887 (Simulation time: 0 hr 12 min 15 sec) 
Heartbeat CPU 0 instructions: 370000001 cycles: 346232581 heartbeat IPC: 1.05107 cumulative IPC: 0.893979 (Simulation time: 0 hr 12 min 36 sec) 
Heartbeat CPU 0 instructions: 380000000 cycles: 355703393 heartbeat IPC: 1.05588 cumulative IPC: 0.898902 (Simulation time: 0 hr 12 min 58 sec) 
Heartbeat CPU 0 instructions: 390000001 cycles: 365003738 heartbeat IPC: 1.07523 cumulative IPC: 0.904014 (Simulation time: 0 hr 13 min 19 sec) 
Heartbeat CPU 0 instructions: 400000000 cycles: 374411490 heartbeat IPC: 1.06295 cumulative IPC: 0.908542 (Simulation time: 0 hr 13 min 40 sec) 
Heartbeat CPU 0 instructions: 410000003 cycles: 383727553 heartbeat IPC: 1.07342 cumulative IPC: 0.913066 (Simulation time: 0 hr 14 min 1 sec) 
Heartbeat CPU 0 instructions: 420000000 cycles: 393134522 heartbeat IPC: 1.06304 cumulative IPC: 0.917109 (Simulation time: 0 hr 14 min 23 sec) 
Heartbeat CPU 0 instructions: 430000001 cycles: 402414483 heartbeat IPC: 1.07759 cumulative IPC: 0.921267 (Simulation time: 0 hr 14 min 44 sec) 
Heartbeat CPU 0 instructions: 440000000 cycles: 411700035 heartbeat IPC: 1.07694 cumulative IPC: 0.9252 (Simulation time: 0 hr 15 min 5 sec) 
Heartbeat CPU 0 instructions: 450000000 cycles: 422773999 heartbeat IPC: 0.903019 cumulative IPC: 0.924552 (Simulation time: 0 hr 15 min 29 sec) 
Heartbeat CPU 0 instructions: 460000000 cycles: 432118266 heartbeat IPC: 1.07017 cumulative IPC: 0.92806 (Simulation time: 0 hr 15 min 50 sec) 
Heartbeat CPU 0 instructions: 470000003 cycles: 441318291 heartbeat IPC: 1.08695 cumulative IPC: 0.931741 (Simulation time: 0 hr 16 min 11 sec) 
Heartbeat CPU 0 instructions: 480000000 cycles: 450541113 heartbeat IPC: 1.08427 cumulative IPC: 0.935203 (Simulation time: 0 hr 16 min 32 sec) 
Heartbeat CPU 0 instructions: 490000000 cycles: 459730889 heartbeat IPC: 1.08817 cumulative IPC: 0.938586 (Simulation time: 0 hr 16 min 53 sec) 
Heartbeat CPU 0 instructions: 500000000 cycles: 468932485 heartbeat IPC: 1.08677 cumulative IPC: 0.941796 (Simulation time: 0 hr 17 min 14 sec) 
Heartbeat CPU 0 instructions: 510000001 cycles: 478090585 heartbeat IPC: 1.09193 cumulative IPC: 0.944965 (Simulation time: 0 hr 17 min 36 sec) 
Heartbeat CPU 0 instructions: 520000000 cycles: 487290430 heartbeat IPC: 1.08697 cumulative IPC: 0.947914 (Simulation time: 0 hr 17 min 57 sec) 
Heartbeat CPU 0 instructions: 530000001 cycles: 496503773 heartbeat IPC: 1.08538 cumulative IPC: 0.950714 (Simulation time: 0 hr 18 min 18 sec) 
Heartbeat CPU 0 instructions: 540000000 cycles: 505914198 heartbeat IPC: 1.06265 cumulative IPC: 0.952995 (Simulation time: 0 hr 18 min 39 sec) 
Heartbeat CPU 0 instructions: 550000000 cycles: 515372368 heartbeat IPC: 1.05729 cumulative IPC: 0.955089 (Simulation time: 0 hr 19 min 1 sec) 
Heartbeat CPU 0 instructions: 560000000 cycles: 524719494 heartbeat IPC: 1.06985 cumulative IPC: 0.957321 (Simulation time: 0 hr 19 min 22 sec) 
Heartbeat CPU 0 instructions: 570000001 cycles: 538432162 heartbeat IPC: 0.729253 cumulative IPC: 0.950993 (Simulation time: 0 hr 19 min 46 sec) 
Heartbeat CPU 0 instructions: 580000000 cycles: 552143189 heartbeat IPC: 0.72934 cumulative IPC: 0.94501 (Simulation time: 0 hr 20 min 10 sec) 
Heartbeat CPU 0 instructions: 590000001 cycles: 566071464 heartbeat IPC: 0.717964 cumulative IPC: 0.93895 (Simulation time: 0 hr 20 min 34 sec) 
Heartbeat CPU 0 instructions: 600000000 cycles: 579778390 heartbeat IPC: 0.729558 cumulative IPC: 0.933591 (Simulation time: 0 hr 20 min 58 sec) 
Finished CPU 0 instructions: 500000001 cycles: 535566293 cumulative IPC: 0.933591 (Simulation time: 0 hr 20 min 58 sec) 

CPU 0 Branch Prediction Accuracy: 99.7422% MPKI: 0.173296
Number of Branches: 33608403 Number of Mispredictions: 86648
Number of LOAD Instructions: 180215231
Number of LOAD Instructions (ROI): 180215231
Number of STORE Instructions: 36067263
Number of STORE Instructions (ROI): 36067263
Total Destination Memory Operands: 38428915
Total Destination Memory Operands (ROI): 38428915
Total Source Memory Operands: 180215231
Total Source Memory Operands (ROI): 180215231
Number of DEPENDED LOADS: 3041974
Number of DEPENDED LOADS (ROI): 3041974
Number of SQ_ADDED: 38428892
Number of SQ_ADDED (ROI): 38428892
Number of LQ_ADDED: 208766303
Number of LQ_ADDED (ROI): 208766303
Number of Instructions read from trace: 600000257

ChampSim completed all CPUs

Region of Interest Statistics

CPU 0 cumulative IPC: 0.933591 instructions: 500000001 cycles: 535566293
ITLB TOTAL     ACCESS:   92409138  HIT:   92409119  MISS:         19
ITLB LOAD      ACCESS:   92409138  HIT:   92409119  MISS:         19
ITLB RFO       ACCESS:          0  HIT:          0  MISS:          0
ITLB PREFETCH  ACCESS:          0  HIT:          0  MISS:          0
ITLB WRITEBACK ACCESS:          0  HIT:          0  MISS:          0
ITLB PREFETCH  REQUESTED:          0  ISSUED:          0  USEFUL:          0  USELESS:          0
ITLB TOTAL MSHR MERGED:         40
ITLB LOAD MSHR MERGED:         40
ITLB RFO MSHR MERGED:          0
ITLB PREFETCH MSHR MERGED:          0
ITLB WRITEBACK MSHR MERGED:          0
ITLB TOTAL ACCESSES:   92409178 HITS:   92409119 MISSES:         59
ITLB LOAD ACCESSES:   92409178 HITS:   92409119 MISSES:         59
ITLB RFO ACCESSES:          0 HITS:          0 MISSES:          0
ITLB PREFETCH ACCESSES:          0 HITS:          0 MISSES:          0
ITLB WRITEBACK ACCESSES:          0 HITS:          0 MISSES:          0
ITLB RQ ACCESS:  500000003
ITLB RQ TO_CACHE:   92409178
ITLB RQ MERGED:  407590825
ITLB RQ FORWARD:          0
ITLB WQ ACCESS:          0
ITLB WQ TO_CACHE:          0
ITLB WQ MERGED:          0
ITLB WQ FORWARD:          0
DTLB TOTAL     ACCESS:  141863705  HIT:  141497241  MISS:     366464
DTLB LOAD      ACCESS:  119266737  HIT:  118953150  MISS:     313587
DTLB RFO       ACCESS:   22596968  HIT:   22544091  MISS:      52877
DTLB PREFETCH  ACCESS:          0  HIT:          0  MISS:          0
DTLB WRITEBACK ACCESS:          0  HIT:          0  MISS:          0
DTLB PREFETCH  REQUESTED:          0  ISSUED:          0  USEFUL:          0  USELESS:          0
DTLB TOTAL MSHR MERGED:     282277
DTLB LOAD MSHR MERGED:     234540
DTLB RFO MSHR MERGED:      47737
DTLB PREFETCH MSHR MERGED:          0
DTLB WRITEBACK MSHR MERGED:          0
DTLB TOTAL ACCESSES:  142145982 HITS:  141497241 MISSES:     648741
DTLB LOAD ACCESSES:  119501277 HITS:  118953150 MISSES:     548127
DTLB RFO ACCESSES:   22644705 HITS:   22544091 MISSES:     100614
DTLB PREFETCH ACCESSES:          0 HITS:          0 MISSES:          0
DTLB WRITEBACK ACCESSES:          0 HITS:          0 MISSES:          0
DTLB RQ ACCESS:  184791004
DTLB RQ TO_CACHE:  142145982
DTLB RQ MERGED:   42645022
DTLB RQ FORWARD:          0
DTLB WQ ACCESS:          0
DTLB WQ TO_CACHE:          0
DTLB WQ MERGED:          0
DTLB WQ FORWARD:          0
L1D TOTAL     ACCESS:  182626303  HIT:  169186863  MISS:   13439440
L1D LOAD      ACCESS:  111168798  HIT:  107375844  MISS:    3792954
L1D RFO       ACCESS:   15903475  HIT:   13121726  MISS:    2781749
L1D PREFETCH  ACCESS:   55554030  HIT:   48689293  MISS:    6864737
L1D WRITEBACK ACCESS:          0  HIT:          0  MISS:          0
L1D PREFETCH  REQUESTED:  116419768  ISSUED:  115065311  USEFUL:    6655631  USELESS:     209108
L1D TOTAL MSHR MERGED:   39287897
L1D LOAD MSHR MERGED:    8484722
L1D RFO MSHR MERGED:   12348725
L1D PREFETCH MSHR MERGED:   18454450
L1D WRITEBACK MSHR MERGED:          0
L1D TOTAL ACCESSES:  221918400 HITS:  169191060 MISSES:   52727340
L1D LOAD ACCESSES:  116423612 HITS:  107379688 MISSES:    9043924
L1D RFO ACCESSES:   28252140 HITS:   13121726 MISSES:   15130414
L1D PREFETCH ACCESSES:   77242648 HITS:   48689646 MISSES:   28553002
L1D WRITEBACK ACCESSES:          0 HITS:          0 MISSES:          0
L1D RQ ACCESS:  156534938
L1D RQ TO_CACHE:  116419771
L1D RQ MERGED:   40111323
L1D RQ FORWARD:          0
L1D WQ ACCESS:   28256066
L1D WQ TO_CACHE:   28252140
L1D WQ MERGED:       3926
L1D WQ FORWARD:       4197
L1I TOTAL     ACCESS:  116393300  HIT:  116392352  MISS:        948
L1I LOAD      ACCESS:  116393300  HIT:  116392352  MISS:        948
L1I RFO       ACCESS:          0  HIT:          0  MISS:          0
L1I PREFETCH  ACCESS:          0  HIT:          0  MISS:          0
L1I WRITEBACK ACCESS:          0  HIT:          0  MISS:          0
L1I PREFETCH  REQUESTED:          0  ISSUED:          0  USEFUL:          0  USELESS:          0
L1I TOTAL MSHR MERGED:       1592
L1I LOAD MSHR MERGED:       1592
L1I RFO MSHR MERGED:          0
L1I PREFETCH MSHR MERGED:          0
L1I WRITEBACK MSHR MERGED:          0
L1I TOTAL ACCESSES:  116394892 HITS:  116392352 MISSES:       2540
L1I LOAD ACCESSES:  116394892 HITS:  116392352 MISSES:       2540
L1I RFO ACCESSES:          0 HITS:          0 MISSES:          0
L1I PREFETCH ACCESSES:          0 HITS:          0 MISSES:          0
L1I WRITEBACK ACCESSES:          0 HITS:          0 MISSES:          0
L1I RQ ACCESS:  500000007
L1I RQ TO_CACHE:  116394892
L1I RQ MERGED:  383605115
L1I RQ FORWARD:          0
L1I WQ ACCESS:          0
L1I WQ TO_CACHE:          0
L1I WQ MERGED:          0
L1I WQ FORWARD:          0
L2C TOTAL     ACCESS:   16685115  HIT:    4840809  MISS:   11844306
L2C LOAD      ACCESS:     560123  HIT:      96137  MISS:     463986
L2C RFO       ACCESS:    2781689  HIT:     266792  MISS:    2514897
L2C PREFETCH  ACCESS:   10122737  HIT:    1259584  MISS:    8863153
L2C WRITEBACK ACCESS:    3220566  HIT:    3218296  MISS:       2270
L2C PREFETCH  REQUESTED:      27423  ISSUED:      27423  USEFUL:      93365  USELESS:    8767858
L2C TOTAL MSHR MERGED:        701
L2C LOAD MSHR MERGED:         29
L2C RFO MSHR MERGED:          0
L2C PREFETCH MSHR MERGED:        672
L2C WRITEBACK MSHR MERGED:          0
L2C TOTAL ACCESSES:   16686618 HITS:    4840858 MISSES:   11845760
L2C LOAD ACCESSES:     560150 HITS:      96164 MISSES:     463986
L2C RFO ACCESSES:    2781689 HITS:     266792 MISSES:    2514897
L2C PREFETCH ACCESSES:   10124213 HITS:    1259606 MISSES:    8864607
L2C WRITEBACK ACCESSES:    3220566 HITS:    3218296 MISSES:       2270
L2C RQ ACCESS:    3341839
L2C RQ TO_CACHE:    3341812
L2C RQ MERGED:          0
L2C RQ FORWARD:          0
L2C WQ ACCESS:    3220566
L2C WQ TO_CACHE:    3220566
L2C WQ MERGED:          0
L2C WQ FORWARD:         49
LLC TOTAL     ACCESS:   14742929  HIT:    3368784  MISS:   11374145
LLC LOAD      ACCESS:     463955  HIT:      92930  MISS:     371025
LLC RFO       ACCESS:    2514875  HIT:     777301  MISS:    1737574
LLC PREFETCH  ACCESS:    8863799  HIT:    1427263  MISS:    7436536
LLC WRITEBACK ACCESS:    2900300  HIT:    1071290  MISS:    1829010
LLC PREFETCH  REQUESTED:          0  ISSUED:          0  USEFUL:      42948  USELESS:    7393491
LLC TOTAL MSHR MERGED:         19
LLC LOAD MSHR MERGED:          2
LLC RFO MSHR MERGED:          0
LLC PREFETCH MSHR MERGED:         17
LLC WRITEBACK MSHR MERGED:          0
LLC TOTAL ACCESSES:   14743029 HITS:    3368862 MISSES:   11374167
LLC LOAD ACCESSES:     463957 HITS:      92932 MISSES:     371025
LLC RFO ACCESSES:    2514897 HITS:     777323 MISSES:    1737574
LLC PREFETCH ACCESSES:    8863875 HITS:    1427317 MISSES:    7436558
LLC WRITEBACK ACCESSES:    2900300 HITS:    1071290 MISSES:    1829010
LLC 0 RQ ACCESS:    2978854
LLC 0 RQ TO_CACHE:    2978830
LLC 0 RQ MERGED:          0
LLC 0 RQ FORWARD:          0
LLC WQ ACCESS:    2900300
LLC WQ TO_CACHE:    2900300
LLC WQ MERGED:          0
LLC WQ FORWARD:         78
Major fault: 0 Minor fault: 57518
CPU 0 L1D next line prefetcher final stats
CPU 0 L2C PC-based stride prefetcher final stats
All Misses: 12167739
All Hits: 4071371
SD Algo Stats - Switches: 0 SRR-Repls: 381790 BRR-Repls: 0

DRAM Statistics
 CHANNEL 0
 RQ ROW_BUFFER_HIT:    4505801  ROW_BUFFER_MISS:    5028378
 DBUS_CONGESTED:    5617425
 WQ ROW_BUFFER_HIT:     420009  ROW_BUFFER_MISS:    1723255  FULL:          0

 AVG_CONGESTED_CYCLE: 12
LOADS RETIRED: 157818985
INSTR RETIRED: 500000000
