
*** ChampSim Multicore Out-of-Order Simulator ***

Warmup Instructions: 100000000
Simulation Instructions: 500000000
Number of CPUs: 1
LLC sets: 2048
LLC ways: 16
Clean RRIP Policies: 1012030110120301 Dirty RRIP Policies: 22130100221301 PSEL Width: 10 Track Set: 4294967295 PSEL Mask: 1 Demote Mask: 4013211040132110DS Algo: 0Window size: 0
Off-chip DRAM Size: 4096 MB Channels: 1 Width: 64-bit Data Rate: 1600 MT/s

CPU 0 runs /mnt/beegfs/iconst01/spec2017/Mcf.trace.gz
NOT SORTED
TRACE STRING: /mnt/beegfs/iconst01/spec2017/Mcf.trace.gz
SORTED
TRACE STRING: /mnt/beegfs/iconst01/spec2017/Mcf.trace.gz
INITIAL
TRACE STRING: /mnt/beegfs/iconst01/spec2017/Mcf.trace.gz

champsim_seed used: 278

CPU 0 L1D next line prefetcher
CPU 0 L2C IP-based stride prefetcher
Initialize DRRIP state
Assign rand_sets[0]: 454  LLC: 2048
rand_sets[0]: 454
Assign rand_sets[1]: 1662  LLC: 2048
rand_sets[1]: 1662
Assign rand_sets[2]: 1921  LLC: 2048
rand_sets[2]: 1921
Assign rand_sets[3]: 1131  LLC: 2048
rand_sets[3]: 1131
Assign rand_sets[4]: 331  LLC: 2048
rand_sets[4]: 331
Assign rand_sets[5]: 1531  LLC: 2048
rand_sets[5]: 1531
Assign rand_sets[6]: 482  LLC: 2048
rand_sets[6]: 482
Assign rand_sets[7]: 1275  LLC: 2048
rand_sets[7]: 1275
Assign rand_sets[8]: 1876  LLC: 2048
rand_sets[8]: 1876
Assign rand_sets[9]: 2038  LLC: 2048
rand_sets[9]: 2038
Assign rand_sets[10]: 701  LLC: 2048
rand_sets[10]: 701
Assign rand_sets[11]: 479  LLC: 2048
rand_sets[11]: 479
Assign rand_sets[12]: 892  LLC: 2048
rand_sets[12]: 892
Assign rand_sets[13]: 1820  LLC: 2048
rand_sets[13]: 1820
Assign rand_sets[14]: 1505  LLC: 2048
rand_sets[14]: 1505
Assign rand_sets[15]: 1159  LLC: 2048
rand_sets[15]: 1159
Assign rand_sets[16]: 513  LLC: 2048
rand_sets[16]: 513
Assign rand_sets[17]: 703  LLC: 2048
rand_sets[17]: 703
Assign rand_sets[18]: 561  LLC: 2048
rand_sets[18]: 561
Assign rand_sets[19]: 990  LLC: 2048
rand_sets[19]: 990
Assign rand_sets[20]: 342  LLC: 2048
rand_sets[20]: 342
Assign rand_sets[21]: 882  LLC: 2048
rand_sets[21]: 882
Assign rand_sets[22]: 15  LLC: 2048
rand_sets[22]: 15
Assign rand_sets[23]: 71  LLC: 2048
rand_sets[23]: 71
Assign rand_sets[24]: 1127  LLC: 2048
rand_sets[24]: 1127
Assign rand_sets[25]: 1382  LLC: 2048
rand_sets[25]: 1382
Assign rand_sets[26]: 647  LLC: 2048
rand_sets[26]: 647
Assign rand_sets[27]: 857  LLC: 2048
rand_sets[27]: 857
Assign rand_sets[28]: 1450  LLC: 2048
rand_sets[28]: 1450
Assign rand_sets[29]: 1160  LLC: 2048
rand_sets[29]: 1160
Assign rand_sets[30]: 1852  LLC: 2048
rand_sets[30]: 1852
Assign rand_sets[31]: 1881  LLC: 2048
rand_sets[31]: 1881
Assign rand_sets[32]: 1770  LLC: 2048
rand_sets[32]: 1770
Assign rand_sets[33]: 1622  LLC: 2048
rand_sets[33]: 1622
Assign rand_sets[34]: 275  LLC: 2048
rand_sets[34]: 275
Assign rand_sets[35]: 635  LLC: 2048
rand_sets[35]: 635
Assign rand_sets[36]: 466  LLC: 2048
rand_sets[36]: 466
Assign rand_sets[37]: 1413  LLC: 2048
rand_sets[37]: 1413
Assign rand_sets[38]: 417  LLC: 2048
rand_sets[38]: 417
Assign rand_sets[39]: 472  LLC: 2048
rand_sets[39]: 472
Assign rand_sets[40]: 1340  LLC: 2048
rand_sets[40]: 1340
Assign rand_sets[41]: 852  LLC: 2048
rand_sets[41]: 852
Assign rand_sets[42]: 1365  LLC: 2048
rand_sets[42]: 1365
Assign rand_sets[43]: 47  LLC: 2048
rand_sets[43]: 47
Assign rand_sets[44]: 823  LLC: 2048
rand_sets[44]: 823
Assign rand_sets[45]: 686  LLC: 2048
rand_sets[45]: 686
Assign rand_sets[46]: 1637  LLC: 2048
rand_sets[46]: 1637
Assign rand_sets[47]: 1115  LLC: 2048
rand_sets[47]: 1115
Assign rand_sets[48]: 986  LLC: 2048
rand_sets[48]: 986
Assign rand_sets[49]: 258  LLC: 2048
rand_sets[49]: 258
Assign rand_sets[50]: 633  LLC: 2048
rand_sets[50]: 633
Assign rand_sets[51]: 920  LLC: 2048
rand_sets[51]: 920
Assign rand_sets[52]: 204  LLC: 2048
rand_sets[52]: 204
Assign rand_sets[53]: 227  LLC: 2048
rand_sets[53]: 227
Assign rand_sets[54]: 1818  LLC: 2048
rand_sets[54]: 1818
Assign rand_sets[55]: 886  LLC: 2048
rand_sets[55]: 886
Assign rand_sets[56]: 1422  LLC: 2048
rand_sets[56]: 1422
Assign rand_sets[57]: 607  LLC: 2048
rand_sets[57]: 607
Assign rand_sets[58]: 217  LLC: 2048
rand_sets[58]: 217
Assign rand_sets[59]: 1945  LLC: 2048
rand_sets[59]: 1945
Assign rand_sets[60]: 143  LLC: 2048
rand_sets[60]: 143
Assign rand_sets[61]: 1311  LLC: 2048
rand_sets[61]: 1311
Assign rand_sets[62]: 319  LLC: 2048
rand_sets[62]: 319
Assign rand_sets[63]: 1846  LLC: 2048
rand_sets[63]: 1846
 CLEAN-RRIP-POLICY-1: 1-0-1-2-0-3-0-1- CLEAN-RRIP-POLICY-2: 1-0-1-2-0-3-0-1-
 DIRTY-RRIP-POLICY-1: 0-0-2-2-1-3-0-1- DIRTY-RRIP-POLICY-2: 0-0-2-2-1-3-0-1-
 PSEL width: 10
Heartbeat CPU 0 instructions: 10000002 cycles: 6247983 heartbeat IPC: 1.60052 cumulative IPC: 1.60052 (Simulation time: 0 hr 0 min 13 sec) 
Heartbeat CPU 0 instructions: 20000000 cycles: 12468815 heartbeat IPC: 1.6075 cumulative IPC: 1.604 (Simulation time: 0 hr 0 min 26 sec) 
Heartbeat CPU 0 instructions: 30000000 cycles: 18679688 heartbeat IPC: 1.61008 cumulative IPC: 1.60602 (Simulation time: 0 hr 0 min 39 sec) 
Heartbeat CPU 0 instructions: 40000000 cycles: 24890602 heartbeat IPC: 1.61007 cumulative IPC: 1.60703 (Simulation time: 0 hr 0 min 52 sec) 
Heartbeat CPU 0 instructions: 50000003 cycles: 31103593 heartbeat IPC: 1.60953 cumulative IPC: 1.60753 (Simulation time: 0 hr 1 min 5 sec) 
Heartbeat CPU 0 instructions: 60000000 cycles: 37300097 heartbeat IPC: 1.61381 cumulative IPC: 1.60857 (Simulation time: 0 hr 1 min 18 sec) 
Heartbeat CPU 0 instructions: 70000003 cycles: 43519030 heartbeat IPC: 1.60799 cumulative IPC: 1.60849 (Simulation time: 0 hr 1 min 31 sec) 
Heartbeat CPU 0 instructions: 80000000 cycles: 49749922 heartbeat IPC: 1.60491 cumulative IPC: 1.60804 (Simulation time: 0 hr 1 min 44 sec) 
Heartbeat CPU 0 instructions: 90000000 cycles: 55979288 heartbeat IPC: 1.6053 cumulative IPC: 1.60774 (Simulation time: 0 hr 1 min 57 sec) 
Heartbeat CPU 0 instructions: 100000000 cycles: 62198675 heartbeat IPC: 1.60788 cumulative IPC: 1.60775 (Simulation time: 0 hr 2 min 11 sec) 

Warmup complete CPU 0 instructions: 100000001 cycles: 62198676 (Simulation time: 0 hr 2 min 11 sec) 

Heartbeat CPU 0 instructions: 110000000 cycles: 86666771 heartbeat IPC: 0.408695 cumulative IPC: 0.408695 (Simulation time: 0 hr 2 min 36 sec) 
Heartbeat CPU 0 instructions: 120000000 cycles: 111194745 heartbeat IPC: 0.407698 cumulative IPC: 0.408196 (Simulation time: 0 hr 3 min 1 sec) 
Heartbeat CPU 0 instructions: 130000000 cycles: 135824759 heartbeat IPC: 0.406009 cumulative IPC: 0.407464 (Simulation time: 0 hr 3 min 26 sec) 
Heartbeat CPU 0 instructions: 140000000 cycles: 160409479 heartbeat IPC: 0.406757 cumulative IPC: 0.407287 (Simulation time: 0 hr 3 min 51 sec) 
Heartbeat CPU 0 instructions: 150000003 cycles: 184895221 heartbeat IPC: 0.408401 cumulative IPC: 0.407509 (Simulation time: 0 hr 4 min 16 sec) 
Heartbeat CPU 0 instructions: 160000000 cycles: 209666835 heartbeat IPC: 0.403688 cumulative IPC: 0.406867 (Simulation time: 0 hr 4 min 41 sec) 
Heartbeat CPU 0 instructions: 170000001 cycles: 234304080 heartbeat IPC: 0.40589 cumulative IPC: 0.406727 (Simulation time: 0 hr 5 min 7 sec) 
Heartbeat CPU 0 instructions: 180000000 cycles: 258944512 heartbeat IPC: 0.405837 cumulative IPC: 0.406616 (Simulation time: 0 hr 5 min 32 sec) 
Heartbeat CPU 0 instructions: 190000003 cycles: 283545592 heartbeat IPC: 0.406486 cumulative IPC: 0.406602 (Simulation time: 0 hr 5 min 57 sec) 
Heartbeat CPU 0 instructions: 200000000 cycles: 308196507 heartbeat IPC: 0.405664 cumulative IPC: 0.406508 (Simulation time: 0 hr 6 min 22 sec) 
Heartbeat CPU 0 instructions: 210000003 cycles: 332903646 heartbeat IPC: 0.404741 cumulative IPC: 0.406346 (Simulation time: 0 hr 6 min 48 sec) 
Heartbeat CPU 0 instructions: 220000000 cycles: 357812908 heartbeat IPC: 0.401457 cumulative IPC: 0.405934 (Simulation time: 0 hr 7 min 13 sec) 
Heartbeat CPU 0 instructions: 230000002 cycles: 382353135 heartbeat IPC: 0.407494 cumulative IPC: 0.406054 (Simulation time: 0 hr 7 min 38 sec) 
Heartbeat CPU 0 instructions: 240000000 cycles: 407217240 heartbeat IPC: 0.402186 cumulative IPC: 0.405775 (Simulation time: 0 hr 8 min 4 sec) 
Heartbeat CPU 0 instructions: 250000000 cycles: 431899667 heartbeat IPC: 0.405147 cumulative IPC: 0.405733 (Simulation time: 0 hr 8 min 29 sec) 
Heartbeat CPU 0 instructions: 260000000 cycles: 456579580 heartbeat IPC: 0.405188 cumulative IPC: 0.405699 (Simulation time: 0 hr 8 min 55 sec) 
Heartbeat CPU 0 instructions: 270000001 cycles: 481324175 heartbeat IPC: 0.404129 cumulative IPC: 0.405606 (Simulation time: 0 hr 9 min 20 sec) 
Heartbeat CPU 0 instructions: 280000000 cycles: 506022935 heartbeat IPC: 0.404879 cumulative IPC: 0.405566 (Simulation time: 0 hr 9 min 45 sec) 
Heartbeat CPU 0 instructions: 290000001 cycles: 530770391 heartbeat IPC: 0.404082 cumulative IPC: 0.405488 (Simulation time: 0 hr 10 min 11 sec) 
Heartbeat CPU 0 instructions: 300000000 cycles: 555709385 heartbeat IPC: 0.400978 cumulative IPC: 0.40526 (Simulation time: 0 hr 10 min 36 sec) 
Heartbeat CPU 0 instructions: 310000003 cycles: 580284822 heartbeat IPC: 0.40691 cumulative IPC: 0.405338 (Simulation time: 0 hr 11 min 2 sec) 
Heartbeat CPU 0 instructions: 320000000 cycles: 605220236 heartbeat IPC: 0.401036 cumulative IPC: 0.40514 (Simulation time: 0 hr 11 min 27 sec) 
Heartbeat CPU 0 instructions: 330000003 cycles: 629885473 heartbeat IPC: 0.405429 cumulative IPC: 0.405153 (Simulation time: 0 hr 11 min 53 sec) 
Heartbeat CPU 0 instructions: 340000000 cycles: 654834613 heartbeat IPC: 0.400815 cumulative IPC: 0.40497 (Simulation time: 0 hr 12 min 18 sec) 
Heartbeat CPU 0 instructions: 350000002 cycles: 679778930 heartbeat IPC: 0.400893 cumulative IPC: 0.404806 (Simulation time: 0 hr 12 min 43 sec) 
Heartbeat CPU 0 instructions: 360000000 cycles: 704892836 heartbeat IPC: 0.398186 cumulative IPC: 0.404547 (Simulation time: 0 hr 13 min 9 sec) 
Heartbeat CPU 0 instructions: 370000000 cycles: 729770449 heartbeat IPC: 0.401968 cumulative IPC: 0.404451 (Simulation time: 0 hr 13 min 34 sec) 
Heartbeat CPU 0 instructions: 380000000 cycles: 754441880 heartbeat IPC: 0.405327 cumulative IPC: 0.404482 (Simulation time: 0 hr 13 min 58 sec) 
Heartbeat CPU 0 instructions: 390000002 cycles: 779162615 heartbeat IPC: 0.404519 cumulative IPC: 0.404483 (Simulation time: 0 hr 14 min 23 sec) 
Heartbeat CPU 0 instructions: 400000000 cycles: 804041493 heartbeat IPC: 0.401947 cumulative IPC: 0.404398 (Simulation time: 0 hr 14 min 49 sec) 
Heartbeat CPU 0 instructions: 410000002 cycles: 828810602 heartbeat IPC: 0.403729 cumulative IPC: 0.404377 (Simulation time: 0 hr 15 min 14 sec) 
Heartbeat CPU 0 instructions: 420000000 cycles: 853402840 heartbeat IPC: 0.406632 cumulative IPC: 0.404447 (Simulation time: 0 hr 15 min 39 sec) 
Heartbeat CPU 0 instructions: 430000000 cycles: 878225258 heartbeat IPC: 0.402862 cumulative IPC: 0.404399 (Simulation time: 0 hr 16 min 4 sec) 
Heartbeat CPU 0 instructions: 440000000 cycles: 902756047 heartbeat IPC: 0.407651 cumulative IPC: 0.404494 (Simulation time: 0 hr 16 min 29 sec) 
Heartbeat CPU 0 instructions: 450000000 cycles: 927781586 heartbeat IPC: 0.399592 cumulative IPC: 0.404352 (Simulation time: 0 hr 16 min 54 sec) 
Heartbeat CPU 0 instructions: 460000000 cycles: 952653467 heartbeat IPC: 0.40206 cumulative IPC: 0.404288 (Simulation time: 0 hr 17 min 20 sec) 
Heartbeat CPU 0 instructions: 470000001 cycles: 977346584 heartbeat IPC: 0.404971 cumulative IPC: 0.404306 (Simulation time: 0 hr 17 min 45 sec) 
Heartbeat CPU 0 instructions: 480000000 cycles: 1002175941 heartbeat IPC: 0.402749 cumulative IPC: 0.404265 (Simulation time: 0 hr 18 min 11 sec) 
Heartbeat CPU 0 instructions: 490000000 cycles: 1027137800 heartbeat IPC: 0.400611 cumulative IPC: 0.404171 (Simulation time: 0 hr 18 min 36 sec) 
Heartbeat CPU 0 instructions: 500000000 cycles: 1052398898 heartbeat IPC: 0.395866 cumulative IPC: 0.403959 (Simulation time: 0 hr 19 min 1 sec) 
Heartbeat CPU 0 instructions: 510000003 cycles: 1077557255 heartbeat IPC: 0.397482 cumulative IPC: 0.403798 (Simulation time: 0 hr 19 min 27 sec) 
Heartbeat CPU 0 instructions: 520000000 cycles: 1102857235 heartbeat IPC: 0.395257 cumulative IPC: 0.403591 (Simulation time: 0 hr 19 min 52 sec) 
Heartbeat CPU 0 instructions: 530000003 cycles: 1128169782 heartbeat IPC: 0.395061 cumulative IPC: 0.403388 (Simulation time: 0 hr 20 min 17 sec) 
Heartbeat CPU 0 instructions: 540000000 cycles: 1153408799 heartbeat IPC: 0.396212 cumulative IPC: 0.403222 (Simulation time: 0 hr 20 min 43 sec) 
Heartbeat CPU 0 instructions: 550000000 cycles: 1178638648 heartbeat IPC: 0.396356 cumulative IPC: 0.403067 (Simulation time: 0 hr 21 min 8 sec) 
Heartbeat CPU 0 instructions: 560000000 cycles: 1204205219 heartbeat IPC: 0.391136 cumulative IPC: 0.4028 (Simulation time: 0 hr 21 min 34 sec) 
Heartbeat CPU 0 instructions: 570000001 cycles: 1229701369 heartbeat IPC: 0.392216 cumulative IPC: 0.402569 (Simulation time: 0 hr 21 min 59 sec) 
Heartbeat CPU 0 instructions: 580000000 cycles: 1255193367 heartbeat IPC: 0.39228 cumulative IPC: 0.402349 (Simulation time: 0 hr 22 min 24 sec) 
Heartbeat CPU 0 instructions: 590000000 cycles: 1280811678 heartbeat IPC: 0.390346 cumulative IPC: 0.402096 (Simulation time: 0 hr 22 min 50 sec) 
Heartbeat CPU 0 instructions: 600000000 cycles: 1306528219 heartbeat IPC: 0.388855 cumulative IPC: 0.401823 (Simulation time: 0 hr 23 min 16 sec) 
Finished CPU 0 instructions: 500000003 cycles: 1244329556 cumulative IPC: 0.401823 (Simulation time: 0 hr 23 min 16 sec) 

CPU 0 Branch Prediction Accuracy: 91.1342% MPKI: 18.7968
Number of Branches: 106006945 Number of Mispredictions: 9398408
Number of LOAD Instructions: 207894007
Number of LOAD Instructions (ROI): 207894007
Number of STORE Instructions: 54285997
Number of STORE Instructions (ROI): 54285997
Total Destination Memory Operands: 57463404
Total Destination Memory Operands (ROI): 57463404
Total Source Memory Operands: 207894007
Total Source Memory Operands (ROI): 207894007
Number of DEPENDED LOADS: 18036652
Number of DEPENDED LOADS (ROI): 18036652
Number of SQ_ADDED: 57463404
Number of SQ_ADDED (ROI): 57463404
Number of LQ_ADDED: 209224594
Number of LQ_ADDED (ROI): 209224594
Number of Instructions read from trace: 600000039

ChampSim completed all CPUs

Region of Interest Statistics

CPU 0 cumulative IPC: 0.401823 instructions: 500000003 cycles: 1244329556
ITLB TOTAL     ACCESS:   96410785  HIT:   96410785  MISS:          0
ITLB LOAD      ACCESS:   96410785  HIT:   96410785  MISS:          0
ITLB RFO       ACCESS:          0  HIT:          0  MISS:          0
ITLB PREFETCH  ACCESS:          0  HIT:          0  MISS:          0
ITLB WRITEBACK ACCESS:          0  HIT:          0  MISS:          0
ITLB PREFETCH  REQUESTED:          0  ISSUED:          0  USEFUL:          0  USELESS:          0
ITLB TOTAL MSHR MERGED:          0
ITLB LOAD MSHR MERGED:          0
ITLB RFO MSHR MERGED:          0
ITLB PREFETCH MSHR MERGED:          0
ITLB WRITEBACK MSHR MERGED:          0
ITLB TOTAL ACCESSES:   96410785 HITS:   96410785 MISSES:          0
ITLB LOAD ACCESSES:   96410785 HITS:   96410785 MISSES:          0
ITLB RFO ACCESSES:          0 HITS:          0 MISSES:          0
ITLB PREFETCH ACCESSES:          0 HITS:          0 MISSES:          0
ITLB WRITEBACK ACCESSES:          0 HITS:          0 MISSES:          0
ITLB RQ ACCESS:  499999980
ITLB RQ TO_CACHE:   96410785
ITLB RQ MERGED:  403589195
ITLB RQ FORWARD:          0
ITLB WQ ACCESS:          0
ITLB WQ TO_CACHE:          0
ITLB WQ MERGED:          0
ITLB WQ FORWARD:          0
DTLB TOTAL     ACCESS:  155216570  HIT:  150304529  MISS:    4912041
DTLB LOAD      ACCESS:  117769502  HIT:  113379115  MISS:    4390387
DTLB RFO       ACCESS:   37447068  HIT:   36925414  MISS:     521654
DTLB PREFETCH  ACCESS:          0  HIT:          0  MISS:          0
DTLB WRITEBACK ACCESS:          0  HIT:          0  MISS:          0
DTLB PREFETCH  REQUESTED:          0  ISSUED:          0  USEFUL:          0  USELESS:          0
DTLB TOTAL MSHR MERGED:     452937
DTLB LOAD MSHR MERGED:     161332
DTLB RFO MSHR MERGED:     291605
DTLB PREFETCH MSHR MERGED:          0
DTLB WRITEBACK MSHR MERGED:          0
DTLB TOTAL ACCESSES:  155669507 HITS:  150304529 MISSES:    5364978
DTLB LOAD ACCESSES:  117930834 HITS:  113379115 MISSES:    4551719
DTLB RFO ACCESSES:   37738673 HITS:   36925414 MISSES:     813259
DTLB PREFETCH ACCESSES:          0 HITS:          0 MISSES:          0
DTLB WRITEBACK ACCESSES:          0 HITS:          0 MISSES:          0
DTLB RQ ACCESS:  206043018
DTLB RQ TO_CACHE:  155669507
DTLB RQ MERGED:   50373511
DTLB RQ FORWARD:          0
DTLB WQ ACCESS:          0
DTLB WQ TO_CACHE:          0
DTLB WQ MERGED:          0
DTLB WQ FORWARD:          0
L1D TOTAL     ACCESS:  277302213  HIT:  242477785  MISS:   34824428
L1D LOAD      ACCESS:  125484556  HIT:  107873901  MISS:   17610655
L1D RFO       ACCESS:   41147322  HIT:   38835526  MISS:    2311796
L1D PREFETCH  ACCESS:  110670335  HIT:   95768358  MISS:   14901977
L1D WRITEBACK ACCESS:          0  HIT:          0  MISS:          0
L1D PREFETCH  REQUESTED:  126327925  ISSUED:  124808640  USEFUL:    2734089  USELESS:   12167913
L1D TOTAL MSHR MERGED:    8491217
L1D LOAD MSHR MERGED:    1534427
L1D RFO MSHR MERGED:    3768616
L1D PREFETCH MSHR MERGED:    3188174
L1D WRITEBACK MSHR MERGED:          0
L1D TOTAL ACCESSES:  285880940 HITS:  242565295 MISSES:   43315645
L1D LOAD ACCESSES:  126327934 HITS:  107873910 MISSES:   18454024
L1D RFO ACCESSES:   44915439 HITS:   38835526 MISSES:    6079913
L1D PREFETCH ACCESSES:  114637567 HITS:   95855859 MISSES:   18781708
L1D WRITEBACK ACCESSES:          0 HITS:          0 MISSES:          0
L1D RQ ACCESS:  158496137
L1D RQ TO_CACHE:  126327925
L1D RQ MERGED:   32168203
L1D RQ FORWARD:          0
L1D WQ ACCESS:   47546882
L1D WQ TO_CACHE:   44915439
L1D WQ MERGED:    2631443
L1D WQ FORWARD:      87510
L1I TOTAL     ACCESS:  132821385  HIT:  132821385  MISS:          0
L1I LOAD      ACCESS:  132821385  HIT:  132821385  MISS:          0
L1I RFO       ACCESS:          0  HIT:          0  MISS:          0
L1I PREFETCH  ACCESS:          0  HIT:          0  MISS:          0
L1I WRITEBACK ACCESS:          0  HIT:          0  MISS:          0
L1I PREFETCH  REQUESTED:          0  ISSUED:          0  USEFUL:          0  USELESS:          0
L1I TOTAL MSHR MERGED:          0
L1I LOAD MSHR MERGED:          0
L1I RFO MSHR MERGED:          0
L1I PREFETCH MSHR MERGED:          0
L1I WRITEBACK MSHR MERGED:          0
L1I TOTAL ACCESSES:  132821385 HITS:  132821385 MISSES:          0
L1I LOAD ACCESSES:  132821385 HITS:  132821385 MISSES:          0
L1I RFO ACCESSES:          0 HITS:          0 MISSES:          0
L1I PREFETCH ACCESSES:          0 HITS:          0 MISSES:          0
L1I WRITEBACK ACCESSES:          0 HITS:          0 MISSES:          0
L1I RQ ACCESS:  499999980
L1I RQ TO_CACHE:  132821385
L1I RQ MERGED:  367178595
L1I RQ FORWARD:          0
L1I WQ ACCESS:          0
L1I WQ TO_CACHE:          0
L1I WQ MERGED:          0
L1I WQ FORWARD:          0
L2C TOTAL     ACCESS:   39593791  HIT:   20624209  MISS:   18969582
L2C LOAD      ACCESS:   16919537  HIT:    8569165  MISS:    8350372
L2C RFO       ACCESS:    2311248  HIT:     630773  MISS:    1680475
L2C PREFETCH  ACCESS:   17140590  HIT:    8205602  MISS:    8934988
L2C WRITEBACK ACCESS:    3222416  HIT:    3218669  MISS:       3747
L2C PREFETCH  REQUESTED:    2800195  ISSUED:    2800195  USEFUL:    1307964  USELESS:    7626746
L2C TOTAL MSHR MERGED:     495204
L2C LOAD MSHR MERGED:      68739
L2C RFO MSHR MERGED:          0
L2C PREFETCH MSHR MERGED:     426465
L2C WRITEBACK MSHR MERGED:          0
L2C TOTAL ACCESSES:   40149077 HITS:   20624365 MISSES:   19524712
L2C LOAD ACCESSES:   16919597 HITS:    8569225 MISSES:    8350372
L2C RFO ACCESSES:    2311297 HITS:     630822 MISSES:    1680475
L2C PREFETCH ACCESSES:   17695767 HITS:    8205649 MISSES:    9490118
L2C WRITEBACK ACCESSES:    3222416 HITS:    3218669 MISSES:       3747
L2C RQ ACCESS:   19230894
L2C RQ TO_CACHE:   19230785
L2C RQ MERGED:          0
L2C RQ FORWARD:          0
L2C WQ ACCESS:    3222416
L2C WQ TO_CACHE:    3222416
L2C WQ MERGED:          0
L2C WQ FORWARD:        156
LLC TOTAL     ACCESS:   21174443  HIT:   15254111  MISS:    5920332
LLC LOAD      ACCESS:    8281608  HIT:    5878151  MISS:    2403457
LLC RFO       ACCESS:    1680409  HIT:    1580164  MISS:     100245
LLC PREFETCH  ACCESS:    9036764  HIT:    5720421  MISS:    3316343
LLC WRITEBACK ACCESS:    2175662  HIT:    2075375  MISS:     100287
LLC PREFETCH  REQUESTED:          0  ISSUED:          0  USEFUL:     442882  USELESS:    2877206
LLC TOTAL MSHR MERGED:      23120
LLC LOAD MSHR MERGED:       6305
LLC RFO MSHR MERGED:          0
LLC PREFETCH MSHR MERGED:      16815
LLC WRITEBACK MSHR MERGED:          0
LLC TOTAL ACCESSES:   21197680 HITS:   15254228 MISSES:    5943452
LLC LOAD ACCESSES:    8281633 HITS:    5878176 MISSES:    2403457
LLC RFO ACCESSES:    1680475 HITS:    1580230 MISSES:     100245
LLC PREFETCH ACCESSES:    9059910 HITS:    5720447 MISSES:    3339463
LLC WRITEBACK ACCESSES:    2175662 HITS:    2075375 MISSES:     100287
LLC 0 RQ ACCESS:    9962108
LLC 0 RQ TO_CACHE:    9962017
LLC 0 RQ MERGED:          0
LLC 0 RQ FORWARD:          0
LLC WQ ACCESS:    2175663
LLC WQ TO_CACHE:    2175663
LLC WQ MERGED:          0
LLC WQ FORWARD:        117
Major fault: 0 Minor fault: 56391
CPU 0 L1D next line prefetcher final stats
CPU 0 L2C PC-based stride prefetcher final stats
All Misses: 6936563
All Hits: 17614724
SD Algo Stats - Switches: 0 SRR-Repls: 2482086 BRR-Repls: 0

DRAM Statistics
 CHANNEL 0
 RQ ROW_BUFFER_HIT:    4148638  ROW_BUFFER_MISS:    1633568
 DBUS_CONGESTED:    2999521
 WQ ROW_BUFFER_HIT:      21970  ROW_BUFFER_MISS:     160230  FULL:          0

 AVG_CONGESTED_CYCLE: 13
LOADS RETIRED: 173631671
INSTR RETIRED: 500000000
