
*** ChampSim Multicore Out-of-Order Simulator ***

Warmup Instructions: 100000000
Simulation Instructions: 500000000
Number of CPUs: 1
LLC sets: 2048
LLC ways: 16
Clean RRIP Policies: 1213000112130001 Dirty RRIP Policies: 2213100122131001 PSEL Width: 10 Track Set: 4294967295 PSEL Mask: 1 Demote Mask: 3340201033402010DS Algo: 0Window size: 0
Off-chip DRAM Size: 4096 MB Channels: 1 Width: 64-bit Data Rate: 1600 MT/s

CPU 0 runs /mnt/beegfs/iconst01/spec2017/Gcc.trace.gz
NOT SORTED
TRACE STRING: /mnt/beegfs/iconst01/spec2017/Gcc.trace.gz
SORTED
TRACE STRING: /mnt/beegfs/iconst01/spec2017/Gcc.trace.gz
INITIAL
TRACE STRING: /mnt/beegfs/iconst01/spec2017/Gcc.trace.gz

champsim_seed used: 269

CPU 0 L1D next line prefetcher
CPU 0 L2C IP-based stride prefetcher
Initialize DRRIP state
Assign rand_sets[0]: 454  LLC: 2048
rand_sets[0]: 454
Assign rand_sets[1]: 1662  LLC: 2048
rand_sets[1]: 1662
Assign rand_sets[2]: 1921  LLC: 2048
rand_sets[2]: 1921
Assign rand_sets[3]: 1131  LLC: 2048
rand_sets[3]: 1131
Assign rand_sets[4]: 331  LLC: 2048
rand_sets[4]: 331
Assign rand_sets[5]: 1531  LLC: 2048
rand_sets[5]: 1531
Assign rand_sets[6]: 482  LLC: 2048
rand_sets[6]: 482
Assign rand_sets[7]: 1275  LLC: 2048
rand_sets[7]: 1275
Assign rand_sets[8]: 1876  LLC: 2048
rand_sets[8]: 1876
Assign rand_sets[9]: 2038  LLC: 2048
rand_sets[9]: 2038
Assign rand_sets[10]: 701  LLC: 2048
rand_sets[10]: 701
Assign rand_sets[11]: 479  LLC: 2048
rand_sets[11]: 479
Assign rand_sets[12]: 892  LLC: 2048
rand_sets[12]: 892
Assign rand_sets[13]: 1820  LLC: 2048
rand_sets[13]: 1820
Assign rand_sets[14]: 1505  LLC: 2048
rand_sets[14]: 1505
Assign rand_sets[15]: 1159  LLC: 2048
rand_sets[15]: 1159
Assign rand_sets[16]: 513  LLC: 2048
rand_sets[16]: 513
Assign rand_sets[17]: 703  LLC: 2048
rand_sets[17]: 703
Assign rand_sets[18]: 561  LLC: 2048
rand_sets[18]: 561
Assign rand_sets[19]: 990  LLC: 2048
rand_sets[19]: 990
Assign rand_sets[20]: 342  LLC: 2048
rand_sets[20]: 342
Assign rand_sets[21]: 882  LLC: 2048
rand_sets[21]: 882
Assign rand_sets[22]: 15  LLC: 2048
rand_sets[22]: 15
Assign rand_sets[23]: 71  LLC: 2048
rand_sets[23]: 71
Assign rand_sets[24]: 1127  LLC: 2048
rand_sets[24]: 1127
Assign rand_sets[25]: 1382  LLC: 2048
rand_sets[25]: 1382
Assign rand_sets[26]: 647  LLC: 2048
rand_sets[26]: 647
Assign rand_sets[27]: 857  LLC: 2048
rand_sets[27]: 857
Assign rand_sets[28]: 1450  LLC: 2048
rand_sets[28]: 1450
Assign rand_sets[29]: 1160  LLC: 2048
rand_sets[29]: 1160
Assign rand_sets[30]: 1852  LLC: 2048
rand_sets[30]: 1852
Assign rand_sets[31]: 1881  LLC: 2048
rand_sets[31]: 1881
Assign rand_sets[32]: 1770  LLC: 2048
rand_sets[32]: 1770
Assign rand_sets[33]: 1622  LLC: 2048
rand_sets[33]: 1622
Assign rand_sets[34]: 275  LLC: 2048
rand_sets[34]: 275
Assign rand_sets[35]: 635  LLC: 2048
rand_sets[35]: 635
Assign rand_sets[36]: 466  LLC: 2048
rand_sets[36]: 466
Assign rand_sets[37]: 1413  LLC: 2048
rand_sets[37]: 1413
Assign rand_sets[38]: 417  LLC: 2048
rand_sets[38]: 417
Assign rand_sets[39]: 472  LLC: 2048
rand_sets[39]: 472
Assign rand_sets[40]: 1340  LLC: 2048
rand_sets[40]: 1340
Assign rand_sets[41]: 852  LLC: 2048
rand_sets[41]: 852
Assign rand_sets[42]: 1365  LLC: 2048
rand_sets[42]: 1365
Assign rand_sets[43]: 47  LLC: 2048
rand_sets[43]: 47
Assign rand_sets[44]: 823  LLC: 2048
rand_sets[44]: 823
Assign rand_sets[45]: 686  LLC: 2048
rand_sets[45]: 686
Assign rand_sets[46]: 1637  LLC: 2048
rand_sets[46]: 1637
Assign rand_sets[47]: 1115  LLC: 2048
rand_sets[47]: 1115
Assign rand_sets[48]: 986  LLC: 2048
rand_sets[48]: 986
Assign rand_sets[49]: 258  LLC: 2048
rand_sets[49]: 258
Assign rand_sets[50]: 633  LLC: 2048
rand_sets[50]: 633
Assign rand_sets[51]: 920  LLC: 2048
rand_sets[51]: 920
Assign rand_sets[52]: 204  LLC: 2048
rand_sets[52]: 204
Assign rand_sets[53]: 227  LLC: 2048
rand_sets[53]: 227
Assign rand_sets[54]: 1818  LLC: 2048
rand_sets[54]: 1818
Assign rand_sets[55]: 886  LLC: 2048
rand_sets[55]: 886
Assign rand_sets[56]: 1422  LLC: 2048
rand_sets[56]: 1422
Assign rand_sets[57]: 607  LLC: 2048
rand_sets[57]: 607
Assign rand_sets[58]: 217  LLC: 2048
rand_sets[58]: 217
Assign rand_sets[59]: 1945  LLC: 2048
rand_sets[59]: 1945
Assign rand_sets[60]: 143  LLC: 2048
rand_sets[60]: 143
Assign rand_sets[61]: 1311  LLC: 2048
rand_sets[61]: 1311
Assign rand_sets[62]: 319  LLC: 2048
rand_sets[62]: 319
Assign rand_sets[63]: 1846  LLC: 2048
rand_sets[63]: 1846
 CLEAN-RRIP-POLICY-1: 1-2-1-3-0-0-0-1- CLEAN-RRIP-POLICY-2: 1-2-1-3-0-0-0-1-
 DIRTY-RRIP-POLICY-1: 2-2-1-3-1-0-0-1- DIRTY-RRIP-POLICY-2: 2-2-1-3-1-0-0-1-
 PSEL width: 10
Heartbeat CPU 0 instructions: 10000001 cycles: 7315978 heartbeat IPC: 1.36687 cumulative IPC: 1.36687 (Simulation time: 0 hr 0 min 14 sec) 
Heartbeat CPU 0 instructions: 20000000 cycles: 14307551 heartbeat IPC: 1.43029 cumulative IPC: 1.39786 (Simulation time: 0 hr 0 min 28 sec) 
Heartbeat CPU 0 instructions: 30000001 cycles: 21020552 heartbeat IPC: 1.48965 cumulative IPC: 1.42717 (Simulation time: 0 hr 0 min 44 sec) 
Heartbeat CPU 0 instructions: 40000000 cycles: 27481396 heartbeat IPC: 1.54779 cumulative IPC: 1.45553 (Simulation time: 0 hr 0 min 59 sec) 
Heartbeat CPU 0 instructions: 50000001 cycles: 33583299 heartbeat IPC: 1.63883 cumulative IPC: 1.48884 (Simulation time: 0 hr 1 min 14 sec) 
Heartbeat CPU 0 instructions: 60000000 cycles: 40064583 heartbeat IPC: 1.5429 cumulative IPC: 1.49758 (Simulation time: 0 hr 1 min 30 sec) 
Heartbeat CPU 0 instructions: 70000000 cycles: 47103829 heartbeat IPC: 1.42061 cumulative IPC: 1.48608 (Simulation time: 0 hr 1 min 44 sec) 
Heartbeat CPU 0 instructions: 80000000 cycles: 54193608 heartbeat IPC: 1.41048 cumulative IPC: 1.47619 (Simulation time: 0 hr 1 min 59 sec) 
Heartbeat CPU 0 instructions: 90000003 cycles: 61198110 heartbeat IPC: 1.42765 cumulative IPC: 1.47063 (Simulation time: 0 hr 2 min 13 sec) 
Heartbeat CPU 0 instructions: 100000000 cycles: 68365599 heartbeat IPC: 1.39519 cumulative IPC: 1.46272 (Simulation time: 0 hr 2 min 28 sec) 

Warmup complete CPU 0 instructions: 100000004 cycles: 68365600 (Simulation time: 0 hr 2 min 28 sec) 

Heartbeat CPU 0 instructions: 110000003 cycles: 96046088 heartbeat IPC: 0.361265 cumulative IPC: 0.361265 (Simulation time: 0 hr 2 min 56 sec) 
Heartbeat CPU 0 instructions: 120000000 cycles: 123526904 heartbeat IPC: 0.36389 cumulative IPC: 0.362573 (Simulation time: 0 hr 3 min 24 sec) 
Heartbeat CPU 0 instructions: 130000000 cycles: 148545696 heartbeat IPC: 0.3997 cumulative IPC: 0.374158 (Simulation time: 0 hr 3 min 51 sec) 
Heartbeat CPU 0 instructions: 140000000 cycles: 178103210 heartbeat IPC: 0.338323 cumulative IPC: 0.364506 (Simulation time: 0 hr 4 min 19 sec) 
Heartbeat CPU 0 instructions: 150000000 cycles: 207977633 heartbeat IPC: 0.334734 cumulative IPC: 0.358135 (Simulation time: 0 hr 4 min 47 sec) 
Heartbeat CPU 0 instructions: 160000000 cycles: 235414345 heartbeat IPC: 0.364475 cumulative IPC: 0.359177 (Simulation time: 0 hr 5 min 13 sec) 
Heartbeat CPU 0 instructions: 170000001 cycles: 263490351 heartbeat IPC: 0.356176 cumulative IPC: 0.358745 (Simulation time: 0 hr 5 min 42 sec) 
Heartbeat CPU 0 instructions: 180000000 cycles: 291974113 heartbeat IPC: 0.351077 cumulative IPC: 0.357768 (Simulation time: 0 hr 6 min 11 sec) 
Heartbeat CPU 0 instructions: 190000002 cycles: 320046258 heartbeat IPC: 0.356225 cumulative IPC: 0.357596 (Simulation time: 0 hr 6 min 39 sec) 
Heartbeat CPU 0 instructions: 200000000 cycles: 348405383 heartbeat IPC: 0.35262 cumulative IPC: 0.357092 (Simulation time: 0 hr 7 min 7 sec) 
Heartbeat CPU 0 instructions: 210000002 cycles: 376305596 heartbeat IPC: 0.35842 cumulative IPC: 0.357212 (Simulation time: 0 hr 7 min 35 sec) 
Heartbeat CPU 0 instructions: 220000000 cycles: 405480490 heartbeat IPC: 0.34276 cumulative IPC: 0.355962 (Simulation time: 0 hr 8 min 2 sec) 
Heartbeat CPU 0 instructions: 230000000 cycles: 433054441 heartbeat IPC: 0.362661 cumulative IPC: 0.356468 (Simulation time: 0 hr 8 min 29 sec) 
Heartbeat CPU 0 instructions: 240000000 cycles: 458961759 heartbeat IPC: 0.385991 cumulative IPC: 0.358426 (Simulation time: 0 hr 8 min 55 sec) 
Heartbeat CPU 0 instructions: 250000000 cycles: 489124667 heartbeat IPC: 0.331533 cumulative IPC: 0.356499 (Simulation time: 0 hr 9 min 25 sec) 
Heartbeat CPU 0 instructions: 260000000 cycles: 516252416 heartbeat IPC: 0.368626 cumulative IPC: 0.357233 (Simulation time: 0 hr 9 min 52 sec) 
Heartbeat CPU 0 instructions: 270000003 cycles: 544754104 heartbeat IPC: 0.350857 cumulative IPC: 0.356852 (Simulation time: 0 hr 10 min 21 sec) 
Heartbeat CPU 0 instructions: 280000000 cycles: 572990789 heartbeat IPC: 0.354149 cumulative IPC: 0.3567 (Simulation time: 0 hr 10 min 50 sec) 
Heartbeat CPU 0 instructions: 290000000 cycles: 601943788 heartbeat IPC: 0.345387 cumulative IPC: 0.356087 (Simulation time: 0 hr 11 min 19 sec) 
Heartbeat CPU 0 instructions: 300000000 cycles: 631949393 heartbeat IPC: 0.333271 cumulative IPC: 0.354872 (Simulation time: 0 hr 11 min 47 sec) 
Heartbeat CPU 0 instructions: 310000001 cycles: 661368232 heartbeat IPC: 0.339918 cumulative IPC: 0.35413 (Simulation time: 0 hr 12 min 14 sec) 
Heartbeat CPU 0 instructions: 320000000 cycles: 689626816 heartbeat IPC: 0.353875 cumulative IPC: 0.354118 (Simulation time: 0 hr 12 min 41 sec) 
Heartbeat CPU 0 instructions: 330000000 cycles: 718289245 heartbeat IPC: 0.348889 cumulative IPC: 0.353888 (Simulation time: 0 hr 13 min 8 sec) 
Heartbeat CPU 0 instructions: 340000000 cycles: 747603112 heartbeat IPC: 0.341135 cumulative IPC: 0.353337 (Simulation time: 0 hr 13 min 35 sec) 
Heartbeat CPU 0 instructions: 350000003 cycles: 774678376 heartbeat IPC: 0.369341 cumulative IPC: 0.353951 (Simulation time: 0 hr 14 min 2 sec) 
Heartbeat CPU 0 instructions: 360000000 cycles: 802821999 heartbeat IPC: 0.35532 cumulative IPC: 0.354003 (Simulation time: 0 hr 14 min 28 sec) 
Heartbeat CPU 0 instructions: 370000000 cycles: 831003110 heartbeat IPC: 0.354848 cumulative IPC: 0.354035 (Simulation time: 0 hr 14 min 53 sec) 
Heartbeat CPU 0 instructions: 380000000 cycles: 859521164 heartbeat IPC: 0.350655 cumulative IPC: 0.353913 (Simulation time: 0 hr 15 min 19 sec) 
Heartbeat CPU 0 instructions: 390000001 cycles: 887137228 heartbeat IPC: 0.362108 cumulative IPC: 0.354189 (Simulation time: 0 hr 15 min 45 sec) 
Heartbeat CPU 0 instructions: 400000000 cycles: 915764315 heartbeat IPC: 0.349319 cumulative IPC: 0.354025 (Simulation time: 0 hr 16 min 11 sec) 
Heartbeat CPU 0 instructions: 410000001 cycles: 943051553 heartbeat IPC: 0.366472 cumulative IPC: 0.354413 (Simulation time: 0 hr 16 min 36 sec) 
Heartbeat CPU 0 instructions: 420000000 cycles: 970351792 heartbeat IPC: 0.366297 cumulative IPC: 0.354773 (Simulation time: 0 hr 17 min 1 sec) 
Heartbeat CPU 0 instructions: 430000002 cycles: 998072055 heartbeat IPC: 0.360747 cumulative IPC: 0.354951 (Simulation time: 0 hr 17 min 26 sec) 
Heartbeat CPU 0 instructions: 440000000 cycles: 1027686522 heartbeat IPC: 0.337673 cumulative IPC: 0.354417 (Simulation time: 0 hr 17 min 51 sec) 
Heartbeat CPU 0 instructions: 450000002 cycles: 1056932584 heartbeat IPC: 0.341926 cumulative IPC: 0.354048 (Simulation time: 0 hr 18 min 17 sec) 
Heartbeat CPU 0 instructions: 460000000 cycles: 1084644131 heartbeat IPC: 0.36086 cumulative IPC: 0.354234 (Simulation time: 0 hr 18 min 42 sec) 
Heartbeat CPU 0 instructions: 470000000 cycles: 1112279812 heartbeat IPC: 0.361851 cumulative IPC: 0.354435 (Simulation time: 0 hr 19 min 6 sec) 
Heartbeat CPU 0 instructions: 480000000 cycles: 1140162083 heartbeat IPC: 0.358651 cumulative IPC: 0.354545 (Simulation time: 0 hr 19 min 31 sec) 
Heartbeat CPU 0 instructions: 490000000 cycles: 1167746938 heartbeat IPC: 0.362518 cumulative IPC: 0.354745 (Simulation time: 0 hr 19 min 56 sec) 
Heartbeat CPU 0 instructions: 500000000 cycles: 1196080724 heartbeat IPC: 0.352936 cumulative IPC: 0.354699 (Simulation time: 0 hr 20 min 21 sec) 
Heartbeat CPU 0 instructions: 510000000 cycles: 1230369290 heartbeat IPC: 0.291642 cumulative IPC: 0.352839 (Simulation time: 0 hr 20 min 50 sec) 
Heartbeat CPU 0 instructions: 520000000 cycles: 1258395442 heartbeat IPC: 0.35681 cumulative IPC: 0.352932 (Simulation time: 0 hr 21 min 16 sec) 
Heartbeat CPU 0 instructions: 530000001 cycles: 1287719978 heartbeat IPC: 0.341011 cumulative IPC: 0.352646 (Simulation time: 0 hr 21 min 42 sec) 
Heartbeat CPU 0 instructions: 540000000 cycles: 1315775383 heartbeat IPC: 0.356438 cumulative IPC: 0.352731 (Simulation time: 0 hr 22 min 8 sec) 
Heartbeat CPU 0 instructions: 550000001 cycles: 1344981102 heartbeat IPC: 0.342399 cumulative IPC: 0.352495 (Simulation time: 0 hr 22 min 36 sec) 
Heartbeat CPU 0 instructions: 560000000 cycles: 1370396062 heartbeat IPC: 0.393469 cumulative IPC: 0.353294 (Simulation time: 0 hr 23 min 1 sec) 
Heartbeat CPU 0 instructions: 570000000 cycles: 1399997577 heartbeat IPC: 0.337821 cumulative IPC: 0.35295 (Simulation time: 0 hr 23 min 28 sec) 
Heartbeat CPU 0 instructions: 580000000 cycles: 1427973950 heartbeat IPC: 0.357444 cumulative IPC: 0.353043 (Simulation time: 0 hr 23 min 54 sec) 
Heartbeat CPU 0 instructions: 590000001 cycles: 1452705920 heartbeat IPC: 0.404335 cumulative IPC: 0.353959 (Simulation time: 0 hr 24 min 18 sec) 
Heartbeat CPU 0 instructions: 600000000 cycles: 1478758723 heartbeat IPC: 0.383836 cumulative IPC: 0.354511 (Simulation time: 0 hr 24 min 44 sec) 
Finished CPU 0 instructions: 500000000 cycles: 1410393145 cumulative IPC: 0.354511 (Simulation time: 0 hr 24 min 44 sec) 

CPU 0 Branch Prediction Accuracy: 86.4311% MPKI: 26.2662
Number of Branches: 96788573 Number of Mispredictions: 13133102
Number of LOAD Instructions: 164682285
Number of LOAD Instructions (ROI): 164682285
Number of STORE Instructions: 78194750
Number of STORE Instructions (ROI): 78194750
Total Destination Memory Operands: 83268534
Total Destination Memory Operands (ROI): 83268534
Total Source Memory Operands: 164712438
Total Source Memory Operands (ROI): 164712438
Number of DEPENDED LOADS: 7056416
Number of DEPENDED LOADS (ROI): 7056416
Number of SQ_ADDED: 83268522
Number of SQ_ADDED (ROI): 83268522
Number of LQ_ADDED: 236777980
Number of LQ_ADDED (ROI): 236777980
Number of Instructions read from trace: 600000066

ChampSim completed all CPUs

Region of Interest Statistics

CPU 0 cumulative IPC: 0.354511 instructions: 500000000 cycles: 1410393145
ITLB TOTAL     ACCESS:  100522080  HIT:  100317634  MISS:     204446
ITLB LOAD      ACCESS:  100522080  HIT:  100317634  MISS:     204446
ITLB RFO       ACCESS:          0  HIT:          0  MISS:          0
ITLB PREFETCH  ACCESS:          0  HIT:          0  MISS:          0
ITLB WRITEBACK ACCESS:          0  HIT:          0  MISS:          0
ITLB PREFETCH  REQUESTED:          0  ISSUED:          0  USEFUL:          0  USELESS:          0
ITLB TOTAL MSHR MERGED:     172424
ITLB LOAD MSHR MERGED:     172424
ITLB RFO MSHR MERGED:          0
ITLB PREFETCH MSHR MERGED:          0
ITLB WRITEBACK MSHR MERGED:          0
ITLB TOTAL ACCESSES:  100694504 HITS:  100317634 MISSES:     376870
ITLB LOAD ACCESSES:  100694504 HITS:  100317634 MISSES:     376870
ITLB RFO ACCESSES:          0 HITS:          0 MISSES:          0
ITLB PREFETCH ACCESSES:          0 HITS:          0 MISSES:          0
ITLB WRITEBACK ACCESSES:          0 HITS:          0 MISSES:          0
ITLB RQ ACCESS:  500000057
ITLB RQ TO_CACHE:  100694504
ITLB RQ MERGED:  399305553
ITLB RQ FORWARD:          0
ITLB WQ ACCESS:          0
ITLB WQ TO_CACHE:          0
ITLB WQ MERGED:          0
ITLB WQ FORWARD:          0
DTLB TOTAL     ACCESS:  165339831  HIT:  164705480  MISS:     634351
DTLB LOAD      ACCESS:  106295020  HIT:  105725113  MISS:     569907
DTLB RFO       ACCESS:   59044811  HIT:   58980367  MISS:      64444
DTLB PREFETCH  ACCESS:          0  HIT:          0  MISS:          0
DTLB WRITEBACK ACCESS:          0  HIT:          0  MISS:          0
DTLB PREFETCH  REQUESTED:          0  ISSUED:          0  USEFUL:          0  USELESS:          0
DTLB TOTAL MSHR MERGED:      99935
DTLB LOAD MSHR MERGED:      59450
DTLB RFO MSHR MERGED:      40485
DTLB PREFETCH MSHR MERGED:          0
DTLB WRITEBACK MSHR MERGED:          0
DTLB TOTAL ACCESSES:  165439766 HITS:  164705480 MISSES:     734286
DTLB LOAD ACCESSES:  106354470 HITS:  105725113 MISSES:     629357
DTLB RFO ACCESSES:   59085296 HITS:   58980367 MISSES:     104929
DTLB PREFETCH ACCESSES:          0 HITS:          0 MISSES:          0
DTLB WRITEBACK ACCESSES:          0 HITS:          0 MISSES:          0
DTLB RQ ACCESS:  200314467
DTLB RQ TO_CACHE:  165439766
DTLB RQ MERGED:   34874701
DTLB RQ FORWARD:          0
DTLB WQ ACCESS:          0
DTLB WQ TO_CACHE:          0
DTLB WQ MERGED:          0
DTLB WQ FORWARD:          0
L1D TOTAL     ACCESS:  281839746  HIT:  273930416  MISS:    7909330
L1D LOAD      ACCESS:  110420013  HIT:  107141817  MISS:    3278196
L1D RFO       ACCESS:   67120126  HIT:   66229550  MISS:     890576
L1D PREFETCH  ACCESS:  104299607  HIT:  100559049  MISS:    3740558
L1D WRITEBACK ACCESS:          0  HIT:          0  MISS:          0
L1D PREFETCH  REQUESTED:  110820295  ISSUED:  109120984  USEFUL:    1661261  USELESS:    2079261
L1D TOTAL MSHR MERGED:    2870927
L1D LOAD MSHR MERGED:     497948
L1D RFO MSHR MERGED:    1865846
L1D PREFETCH MSHR MERGED:     507133
L1D WRITEBACK MSHR MERGED:          0
L1D TOTAL ACCESSES:  284738173 HITS:  273957916 MISSES:   10780257
L1D LOAD ACCESSES:  110821791 HITS:  107143313 MISSES:    3678478
L1D RFO ACCESSES:   68974188 HITS:   66229550 MISSES:    2744638
L1D PREFETCH ACCESSES:  104942194 HITS:  100585053 MISSES:    4357141
L1D WRITEBACK ACCESSES:          0 HITS:          0 MISSES:          0
L1D RQ ACCESS:  130761864
L1D RQ TO_CACHE:  110820298
L1D RQ MERGED:   19940070
L1D RQ FORWARD:          0
L1D WQ ACCESS:   69552603
L1D WQ TO_CACHE:   68974189
L1D WQ MERGED:     578414
L1D WQ FORWARD:      27500
L1I TOTAL     ACCESS:  126569253  HIT:  122330701  MISS:    4238552
L1I LOAD      ACCESS:  126569253  HIT:  122330701  MISS:    4238552
L1I RFO       ACCESS:          0  HIT:          0  MISS:          0
L1I PREFETCH  ACCESS:          0  HIT:          0  MISS:          0
L1I WRITEBACK ACCESS:          0  HIT:          0  MISS:          0
L1I PREFETCH  REQUESTED:          0  ISSUED:          0  USEFUL:          0  USELESS:          0
L1I TOTAL MSHR MERGED:    1834712
L1I LOAD MSHR MERGED:    1834712
L1I RFO MSHR MERGED:          0
L1I PREFETCH MSHR MERGED:          0
L1I WRITEBACK MSHR MERGED:          0
L1I TOTAL ACCESSES:  128403968 HITS:  122330701 MISSES:    6073267
L1I LOAD ACCESSES:  128403968 HITS:  122330701 MISSES:    6073267
L1I RFO ACCESSES:          0 HITS:          0 MISSES:          0
L1I PREFETCH ACCESSES:          0 HITS:          0 MISSES:          0
L1I WRITEBACK ACCESSES:          0 HITS:          0 MISSES:          0
L1I RQ ACCESS:  500000057
L1I RQ TO_CACHE:  128403968
L1I RQ MERGED:  371596089
L1I RQ FORWARD:          0
L1I WQ ACCESS:          0
L1I WQ TO_CACHE:          0
L1I WQ MERGED:          0
L1I WQ FORWARD:          0
L2C TOTAL     ACCESS:   14905203  HIT:   11158687  MISS:    3746516
L2C LOAD      ACCESS:    7418875  HIT:    5098864  MISS:    2320011
L2C RFO       ACCESS:     878694  HIT:     409889  MISS:     468805
L2C PREFETCH  ACCESS:    4568393  HIT:    3627949  MISS:     940444
L2C WRITEBACK ACCESS:    2039241  HIT:    2021985  MISS:      17256
L2C PREFETCH  REQUESTED:     842828  ISSUED:     842828  USEFUL:     203382  USELESS:     736768
L2C TOTAL MSHR MERGED:       7131
L2C LOAD MSHR MERGED:        811
L2C RFO MSHR MERGED:          0
L2C PREFETCH MSHR MERGED:       6320
L2C WRITEBACK MSHR MERGED:          0
L2C TOTAL ACCESSES:   14913206 HITS:   11159135 MISSES:    3754071
L2C LOAD ACCESSES:    7419082 HITS:    5099071 MISSES:    2320011
L2C RFO ACCESSES:     878792 HITS:     409987 MISSES:     468805
L2C PREFETCH ACCESSES:    4576091 HITS:    3628092 MISSES:     947999
L2C WRITEBACK ACCESSES:    2039241 HITS:    2021985 MISSES:      17256
L2C RQ ACCESS:    8297877
L2C RQ TO_CACHE:    8297572
L2C RQ MERGED:          0
L2C RQ FORWARD:          0
L2C WQ ACCESS:    2039241
L2C WQ TO_CACHE:    2039241
L2C WQ MERGED:          0
L2C WQ FORWARD:        448
LLC TOTAL     ACCESS:    4609857  HIT:    3983642  MISS:     626215
LLC LOAD      ACCESS:    2319185  HIT:    2065800  MISS:     253385
LLC RFO       ACCESS:     468795  HIT:     404330  MISS:      64465
LLC PREFETCH  ACCESS:     941570  HIT:     658992  MISS:     282578
LLC WRITEBACK ACCESS:     880307  HIT:     854520  MISS:      25787
LLC PREFETCH  REQUESTED:          0  ISSUED:          0  USEFUL:      15965  USELESS:     266560
LLC TOTAL MSHR MERGED:         92
LLC LOAD MSHR MERGED:         32
LLC RFO MSHR MERGED:          0
LLC PREFETCH MSHR MERGED:         60
LLC WRITEBACK MSHR MERGED:          0
LLC TOTAL ACCESSES:    4609984 HITS:    3983677 MISSES:     626307
LLC LOAD ACCESSES:    2319200 HITS:    2065815 MISSES:     253385
LLC RFO ACCESSES:     468805 HITS:     404340 MISSES:      64465
LLC PREFETCH ACCESSES:     941672 HITS:     659002 MISSES:     282670
LLC WRITEBACK ACCESSES:     880307 HITS:     854520 MISSES:      25787
LLC 0 RQ ACCESS:    2788005
LLC 0 RQ TO_CACHE:    2787980
LLC 0 RQ MERGED:          0
LLC 0 RQ FORWARD:          0
LLC WQ ACCESS:     880307
LLC WQ TO_CACHE:     880307
LLC WQ MERGED:          0
LLC WQ FORWARD:         35
Major fault: 0 Minor fault: 12862
CPU 0 L1D next line prefetcher final stats
CPU 0 L2C PC-based stride prefetcher final stats
All Misses: 745487
All Hits: 4681376
SD Algo Stats - Switches: 0 SRR-Repls: 298622 BRR-Repls: 0

DRAM Statistics
 CHANNEL 0
 RQ ROW_BUFFER_HIT:     125900  ROW_BUFFER_MISS:     473456
 DBUS_CONGESTED:     331076
 WQ ROW_BUFFER_HIT:      11763  ROW_BUFFER_MISS:     159749  FULL:          0

 AVG_CONGESTED_CYCLE: 13
LOADS RETIRED: 136549171
INSTR RETIRED: 500000000
