
*** ChampSim Multicore Out-of-Order Simulator ***

Warmup Instructions: 100000000
Simulation Instructions: 500000000
Number of CPUs: 1
LLC sets: 2048
LLC ways: 16
Clean RRIP Policies: 1213000112130001 Dirty RRIP Policies: 2213100122131001 PSEL Width: 10 Track Set: 4294967295 PSEL Mask: 1 Demote Mask: 3340201033402010DS Algo: 0Window size: 0
Off-chip DRAM Size: 4096 MB Channels: 1 Width: 64-bit Data Rate: 1600 MT/s

CPU 0 runs /mnt/beegfs/iconst01/spec2017/Parest.trace.gz
NOT SORTED
TRACE STRING: /mnt/beegfs/iconst01/spec2017/Parest.trace.gz
SORTED
TRACE STRING: /mnt/beegfs/iconst01/spec2017/Parest.trace.gz
INITIAL
TRACE STRING: /mnt/beegfs/iconst01/spec2017/Parest.trace.gz

champsim_seed used: 623

CPU 0 L1D next line prefetcher
CPU 0 L2C IP-based stride prefetcher
Initialize DRRIP state
Assign rand_sets[0]: 454  LLC: 2048
rand_sets[0]: 454
Assign rand_sets[1]: 1662  LLC: 2048
rand_sets[1]: 1662
Assign rand_sets[2]: 1921  LLC: 2048
rand_sets[2]: 1921
Assign rand_sets[3]: 1131  LLC: 2048
rand_sets[3]: 1131
Assign rand_sets[4]: 331  LLC: 2048
rand_sets[4]: 331
Assign rand_sets[5]: 1531  LLC: 2048
rand_sets[5]: 1531
Assign rand_sets[6]: 482  LLC: 2048
rand_sets[6]: 482
Assign rand_sets[7]: 1275  LLC: 2048
rand_sets[7]: 1275
Assign rand_sets[8]: 1876  LLC: 2048
rand_sets[8]: 1876
Assign rand_sets[9]: 2038  LLC: 2048
rand_sets[9]: 2038
Assign rand_sets[10]: 701  LLC: 2048
rand_sets[10]: 701
Assign rand_sets[11]: 479  LLC: 2048
rand_sets[11]: 479
Assign rand_sets[12]: 892  LLC: 2048
rand_sets[12]: 892
Assign rand_sets[13]: 1820  LLC: 2048
rand_sets[13]: 1820
Assign rand_sets[14]: 1505  LLC: 2048
rand_sets[14]: 1505
Assign rand_sets[15]: 1159  LLC: 2048
rand_sets[15]: 1159
Assign rand_sets[16]: 513  LLC: 2048
rand_sets[16]: 513
Assign rand_sets[17]: 703  LLC: 2048
rand_sets[17]: 703
Assign rand_sets[18]: 561  LLC: 2048
rand_sets[18]: 561
Assign rand_sets[19]: 990  LLC: 2048
rand_sets[19]: 990
Assign rand_sets[20]: 342  LLC: 2048
rand_sets[20]: 342
Assign rand_sets[21]: 882  LLC: 2048
rand_sets[21]: 882
Assign rand_sets[22]: 15  LLC: 2048
rand_sets[22]: 15
Assign rand_sets[23]: 71  LLC: 2048
rand_sets[23]: 71
Assign rand_sets[24]: 1127  LLC: 2048
rand_sets[24]: 1127
Assign rand_sets[25]: 1382  LLC: 2048
rand_sets[25]: 1382
Assign rand_sets[26]: 647  LLC: 2048
rand_sets[26]: 647
Assign rand_sets[27]: 857  LLC: 2048
rand_sets[27]: 857
Assign rand_sets[28]: 1450  LLC: 2048
rand_sets[28]: 1450
Assign rand_sets[29]: 1160  LLC: 2048
rand_sets[29]: 1160
Assign rand_sets[30]: 1852  LLC: 2048
rand_sets[30]: 1852
Assign rand_sets[31]: 1881  LLC: 2048
rand_sets[31]: 1881
Assign rand_sets[32]: 1770  LLC: 2048
rand_sets[32]: 1770
Assign rand_sets[33]: 1622  LLC: 2048
rand_sets[33]: 1622
Assign rand_sets[34]: 275  LLC: 2048
rand_sets[34]: 275
Assign rand_sets[35]: 635  LLC: 2048
rand_sets[35]: 635
Assign rand_sets[36]: 466  LLC: 2048
rand_sets[36]: 466
Assign rand_sets[37]: 1413  LLC: 2048
rand_sets[37]: 1413
Assign rand_sets[38]: 417  LLC: 2048
rand_sets[38]: 417
Assign rand_sets[39]: 472  LLC: 2048
rand_sets[39]: 472
Assign rand_sets[40]: 1340  LLC: 2048
rand_sets[40]: 1340
Assign rand_sets[41]: 852  LLC: 2048
rand_sets[41]: 852
Assign rand_sets[42]: 1365  LLC: 2048
rand_sets[42]: 1365
Assign rand_sets[43]: 47  LLC: 2048
rand_sets[43]: 47
Assign rand_sets[44]: 823  LLC: 2048
rand_sets[44]: 823
Assign rand_sets[45]: 686  LLC: 2048
rand_sets[45]: 686
Assign rand_sets[46]: 1637  LLC: 2048
rand_sets[46]: 1637
Assign rand_sets[47]: 1115  LLC: 2048
rand_sets[47]: 1115
Assign rand_sets[48]: 986  LLC: 2048
rand_sets[48]: 986
Assign rand_sets[49]: 258  LLC: 2048
rand_sets[49]: 258
Assign rand_sets[50]: 633  LLC: 2048
rand_sets[50]: 633
Assign rand_sets[51]: 920  LLC: 2048
rand_sets[51]: 920
Assign rand_sets[52]: 204  LLC: 2048
rand_sets[52]: 204
Assign rand_sets[53]: 227  LLC: 2048
rand_sets[53]: 227
Assign rand_sets[54]: 1818  LLC: 2048
rand_sets[54]: 1818
Assign rand_sets[55]: 886  LLC: 2048
rand_sets[55]: 886
Assign rand_sets[56]: 1422  LLC: 2048
rand_sets[56]: 1422
Assign rand_sets[57]: 607  LLC: 2048
rand_sets[57]: 607
Assign rand_sets[58]: 217  LLC: 2048
rand_sets[58]: 217
Assign rand_sets[59]: 1945  LLC: 2048
rand_sets[59]: 1945
Assign rand_sets[60]: 143  LLC: 2048
rand_sets[60]: 143
Assign rand_sets[61]: 1311  LLC: 2048
rand_sets[61]: 1311
Assign rand_sets[62]: 319  LLC: 2048
rand_sets[62]: 319
Assign rand_sets[63]: 1846  LLC: 2048
rand_sets[63]: 1846
 CLEAN-RRIP-POLICY-1: 1-2-1-3-0-0-0-1- CLEAN-RRIP-POLICY-2: 1-2-1-3-0-0-0-1-
 DIRTY-RRIP-POLICY-1: 2-2-1-3-1-0-0-1- DIRTY-RRIP-POLICY-2: 2-2-1-3-1-0-0-1-
 PSEL width: 10
Heartbeat CPU 0 instructions: 10000001 cycles: 4387120 heartbeat IPC: 2.2794 cumulative IPC: 2.2794 (Simulation time: 0 hr 0 min 14 sec) 
Heartbeat CPU 0 instructions: 20000000 cycles: 8781242 heartbeat IPC: 2.27577 cumulative IPC: 2.27758 (Simulation time: 0 hr 0 min 29 sec) 
Heartbeat CPU 0 instructions: 30000003 cycles: 13213177 heartbeat IPC: 2.25635 cumulative IPC: 2.27046 (Simulation time: 0 hr 0 min 44 sec) 
Heartbeat CPU 0 instructions: 40000000 cycles: 17643747 heartbeat IPC: 2.25705 cumulative IPC: 2.26709 (Simulation time: 0 hr 0 min 59 sec) 
Heartbeat CPU 0 instructions: 50000000 cycles: 22051943 heartbeat IPC: 2.2685 cumulative IPC: 2.26737 (Simulation time: 0 hr 1 min 13 sec) 
Heartbeat CPU 0 instructions: 60000000 cycles: 26457633 heartbeat IPC: 2.26979 cumulative IPC: 2.26778 (Simulation time: 0 hr 1 min 27 sec) 
Heartbeat CPU 0 instructions: 70000000 cycles: 30858457 heartbeat IPC: 2.2723 cumulative IPC: 2.26842 (Simulation time: 0 hr 1 min 42 sec) 
Heartbeat CPU 0 instructions: 80000000 cycles: 35254013 heartbeat IPC: 2.27503 cumulative IPC: 2.26925 (Simulation time: 0 hr 1 min 57 sec) 
Heartbeat CPU 0 instructions: 90000000 cycles: 39648279 heartbeat IPC: 2.27569 cumulative IPC: 2.26996 (Simulation time: 0 hr 2 min 12 sec) 
Heartbeat CPU 0 instructions: 100000000 cycles: 44045591 heartbeat IPC: 2.27412 cumulative IPC: 2.27037 (Simulation time: 0 hr 2 min 27 sec) 

Warmup complete CPU 0 instructions: 100000002 cycles: 44045601 (Simulation time: 0 hr 2 min 27 sec) 

Heartbeat CPU 0 instructions: 110000000 cycles: 54170919 heartbeat IPC: 0.987622 cumulative IPC: 0.987623 (Simulation time: 0 hr 2 min 47 sec) 
Heartbeat CPU 0 instructions: 120000000 cycles: 63496124 heartbeat IPC: 1.07236 cumulative IPC: 1.02825 (Simulation time: 0 hr 3 min 6 sec) 
Heartbeat CPU 0 instructions: 130000000 cycles: 72829908 heartbeat IPC: 1.07138 cumulative IPC: 1.04223 (Simulation time: 0 hr 3 min 25 sec) 
Heartbeat CPU 0 instructions: 140000000 cycles: 82366304 heartbeat IPC: 1.04861 cumulative IPC: 1.04382 (Simulation time: 0 hr 3 min 44 sec) 
Heartbeat CPU 0 instructions: 150000000 cycles: 93419734 heartbeat IPC: 0.904697 cumulative IPC: 1.01268 (Simulation time: 0 hr 4 min 4 sec) 
Heartbeat CPU 0 instructions: 160000000 cycles: 103555969 heartbeat IPC: 0.98656 cumulative IPC: 1.00823 (Simulation time: 0 hr 4 min 23 sec) 
Heartbeat CPU 0 instructions: 170000003 cycles: 113528818 heartbeat IPC: 1.00272 cumulative IPC: 1.00744 (Simulation time: 0 hr 4 min 42 sec) 
Heartbeat CPU 0 instructions: 180000000 cycles: 123391284 heartbeat IPC: 1.01394 cumulative IPC: 1.00825 (Simulation time: 0 hr 5 min 1 sec) 
Heartbeat CPU 0 instructions: 190000002 cycles: 133378218 heartbeat IPC: 1.00131 cumulative IPC: 1.00747 (Simulation time: 0 hr 5 min 20 sec) 
Heartbeat CPU 0 instructions: 200000000 cycles: 142891758 heartbeat IPC: 1.05113 cumulative IPC: 1.01167 (Simulation time: 0 hr 5 min 39 sec) 
Heartbeat CPU 0 instructions: 210000000 cycles: 152798685 heartbeat IPC: 1.00939 cumulative IPC: 1.01147 (Simulation time: 0 hr 5 min 58 sec) 
Heartbeat CPU 0 instructions: 220000000 cycles: 162147744 heartbeat IPC: 1.06963 cumulative IPC: 1.01607 (Simulation time: 0 hr 6 min 17 sec) 
Heartbeat CPU 0 instructions: 230000001 cycles: 174259814 heartbeat IPC: 0.825623 cumulative IPC: 0.998355 (Simulation time: 0 hr 6 min 38 sec) 
Heartbeat CPU 0 instructions: 240000000 cycles: 184747542 heartbeat IPC: 0.953495 cumulative IPC: 0.995011 (Simulation time: 0 hr 6 min 57 sec) 
Heartbeat CPU 0 instructions: 250000002 cycles: 194699226 heartbeat IPC: 1.00486 cumulative IPC: 0.995661 (Simulation time: 0 hr 7 min 16 sec) 
Heartbeat CPU 0 instructions: 260000000 cycles: 204444111 heartbeat IPC: 1.02618 cumulative IPC: 0.997515 (Simulation time: 0 hr 7 min 35 sec) 
Heartbeat CPU 0 instructions: 270000001 cycles: 214058281 heartbeat IPC: 1.04013 cumulative IPC: 0.999925 (Simulation time: 0 hr 7 min 54 sec) 
Heartbeat CPU 0 instructions: 280000000 cycles: 223974191 heartbeat IPC: 1.00848 cumulative IPC: 1.0004 (Simulation time: 0 hr 8 min 13 sec) 
Heartbeat CPU 0 instructions: 290000002 cycles: 233352184 heartbeat IPC: 1.06633 cumulative IPC: 1.00366 (Simulation time: 0 hr 8 min 32 sec) 
Heartbeat CPU 0 instructions: 300000000 cycles: 243147119 heartbeat IPC: 1.02094 cumulative IPC: 1.00451 (Simulation time: 0 hr 8 min 51 sec) 
Heartbeat CPU 0 instructions: 310000000 cycles: 252505801 heartbeat IPC: 1.06853 cumulative IPC: 1.00739 (Simulation time: 0 hr 9 min 10 sec) 
Heartbeat CPU 0 instructions: 320000000 cycles: 261922810 heartbeat IPC: 1.06191 cumulative IPC: 1.00974 (Simulation time: 0 hr 9 min 29 sec) 
Heartbeat CPU 0 instructions: 330000003 cycles: 271470359 heartbeat IPC: 1.04739 cumulative IPC: 1.01132 (Simulation time: 0 hr 9 min 48 sec) 
Heartbeat CPU 0 instructions: 340000000 cycles: 281575860 heartbeat IPC: 0.98956 cumulative IPC: 1.0104 (Simulation time: 0 hr 10 min 8 sec) 
Heartbeat CPU 0 instructions: 350000000 cycles: 291834235 heartbeat IPC: 0.974813 cumulative IPC: 1.00892 (Simulation time: 0 hr 10 min 27 sec) 
Heartbeat CPU 0 instructions: 360000000 cycles: 301679246 heartbeat IPC: 1.01574 cumulative IPC: 1.00918 (Simulation time: 0 hr 10 min 46 sec) 
Heartbeat CPU 0 instructions: 370000000 cycles: 311335122 heartbeat IPC: 1.03564 cumulative IPC: 1.01014 (Simulation time: 0 hr 11 min 5 sec) 
Heartbeat CPU 0 instructions: 380000000 cycles: 320904583 heartbeat IPC: 1.04499 cumulative IPC: 1.01135 (Simulation time: 0 hr 11 min 24 sec) 
Heartbeat CPU 0 instructions: 390000002 cycles: 330299268 heartbeat IPC: 1.06443 cumulative IPC: 1.01309 (Simulation time: 0 hr 11 min 43 sec) 
Heartbeat CPU 0 instructions: 400000000 cycles: 340072394 heartbeat IPC: 1.02321 cumulative IPC: 1.01342 (Simulation time: 0 hr 12 min 2 sec) 
Heartbeat CPU 0 instructions: 410000000 cycles: 349351131 heartbeat IPC: 1.07773 cumulative IPC: 1.01538 (Simulation time: 0 hr 12 min 21 sec) 
Heartbeat CPU 0 instructions: 420000000 cycles: 360318848 heartbeat IPC: 0.911767 cumulative IPC: 1.01178 (Simulation time: 0 hr 12 min 40 sec) 
Heartbeat CPU 0 instructions: 430000000 cycles: 371122204 heartbeat IPC: 0.925638 cumulative IPC: 1.00894 (Simulation time: 0 hr 12 min 59 sec) 
Heartbeat CPU 0 instructions: 440000000 cycles: 381121908 heartbeat IPC: 1.00003 cumulative IPC: 1.00867 (Simulation time: 0 hr 13 min 18 sec) 
Heartbeat CPU 0 instructions: 450000000 cycles: 391049878 heartbeat IPC: 1.00726 cumulative IPC: 1.00863 (Simulation time: 0 hr 13 min 37 sec) 
Heartbeat CPU 0 instructions: 460000000 cycles: 400934336 heartbeat IPC: 1.01169 cumulative IPC: 1.00872 (Simulation time: 0 hr 13 min 55 sec) 
Heartbeat CPU 0 instructions: 470000001 cycles: 410907377 heartbeat IPC: 1.0027 cumulative IPC: 1.00855 (Simulation time: 0 hr 14 min 14 sec) 
Heartbeat CPU 0 instructions: 480000000 cycles: 420421595 heartbeat IPC: 1.05106 cumulative IPC: 1.00963 (Simulation time: 0 hr 14 min 33 sec) 
Heartbeat CPU 0 instructions: 490000000 cycles: 430358784 heartbeat IPC: 1.00632 cumulative IPC: 1.00954 (Simulation time: 0 hr 14 min 51 sec) 
Heartbeat CPU 0 instructions: 500000000 cycles: 439972389 heartbeat IPC: 1.04019 cumulative IPC: 1.01029 (Simulation time: 0 hr 15 min 10 sec) 
Heartbeat CPU 0 instructions: 510000000 cycles: 449391968 heartbeat IPC: 1.06162 cumulative IPC: 1.01148 (Simulation time: 0 hr 15 min 29 sec) 
Heartbeat CPU 0 instructions: 520000000 cycles: 459027660 heartbeat IPC: 1.03781 cumulative IPC: 1.01209 (Simulation time: 0 hr 15 min 47 sec) 
Heartbeat CPU 0 instructions: 530000001 cycles: 469371348 heartbeat IPC: 0.966773 cumulative IPC: 1.01099 (Simulation time: 0 hr 16 min 7 sec) 
Heartbeat CPU 0 instructions: 540000000 cycles: 479786726 heartbeat IPC: 0.960119 cumulative IPC: 1.00977 (Simulation time: 0 hr 16 min 25 sec) 
Heartbeat CPU 0 instructions: 550000003 cycles: 489824061 heartbeat IPC: 0.996281 cumulative IPC: 1.00947 (Simulation time: 0 hr 16 min 43 sec) 
Heartbeat CPU 0 instructions: 560000000 cycles: 499656378 heartbeat IPC: 1.01705 cumulative IPC: 1.00963 (Simulation time: 0 hr 17 min 1 sec) 
Heartbeat CPU 0 instructions: 570000002 cycles: 509382834 heartbeat IPC: 1.02812 cumulative IPC: 1.01002 (Simulation time: 0 hr 17 min 19 sec) 
Heartbeat CPU 0 instructions: 580000000 cycles: 518966680 heartbeat IPC: 1.04342 cumulative IPC: 1.01069 (Simulation time: 0 hr 17 min 37 sec) 
Heartbeat CPU 0 instructions: 590000002 cycles: 528856124 heartbeat IPC: 1.01118 cumulative IPC: 1.0107 (Simulation time: 0 hr 17 min 56 sec) 
Heartbeat CPU 0 instructions: 600000000 cycles: 538381877 heartbeat IPC: 1.04979 cumulative IPC: 1.01146 (Simulation time: 0 hr 18 min 14 sec) 
Finished CPU 0 instructions: 500000000 cycles: 494336290 cumulative IPC: 1.01146 (Simulation time: 0 hr 18 min 14 sec) 

CPU 0 Branch Prediction Accuracy: 97.8526% MPKI: 2.66709
Number of Branches: 62099103 Number of Mispredictions: 1333545
Number of LOAD Instructions: 210576465
Number of LOAD Instructions (ROI): 210576465
Number of STORE Instructions: 16915507
Number of STORE Instructions (ROI): 16915507
Total Destination Memory Operands: 16918869
Total Destination Memory Operands (ROI): 16918869
Total Source Memory Operands: 210576465
Total Source Memory Operands (ROI): 210576465
Number of DEPENDED LOADS: 345464
Number of DEPENDED LOADS (ROI): 345464
Number of SQ_ADDED: 16918826
Number of SQ_ADDED (ROI): 16918826
Number of LQ_ADDED: 210608769
Number of LQ_ADDED (ROI): 210608769
Number of Instructions read from trace: 600000257

ChampSim completed all CPUs

Region of Interest Statistics

CPU 0 cumulative IPC: 1.01146 instructions: 500000000 cycles: 494336290
ITLB TOTAL     ACCESS:   76309407  HIT:   76309369  MISS:         38
ITLB LOAD      ACCESS:   76309407  HIT:   76309369  MISS:         38
ITLB RFO       ACCESS:          0  HIT:          0  MISS:          0
ITLB PREFETCH  ACCESS:          0  HIT:          0  MISS:          0
ITLB WRITEBACK ACCESS:          0  HIT:          0  MISS:          0
ITLB PREFETCH  REQUESTED:          0  ISSUED:          0  USEFUL:          0  USELESS:          0
ITLB TOTAL MSHR MERGED:         37
ITLB LOAD MSHR MERGED:         37
ITLB RFO MSHR MERGED:          0
ITLB PREFETCH MSHR MERGED:          0
ITLB WRITEBACK MSHR MERGED:          0
ITLB TOTAL ACCESSES:   76309444 HITS:   76309369 MISSES:         75
ITLB LOAD ACCESSES:   76309444 HITS:   76309369 MISSES:         75
ITLB RFO ACCESSES:          0 HITS:          0 MISSES:          0
ITLB PREFETCH ACCESSES:          0 HITS:          0 MISSES:          0
ITLB WRITEBACK ACCESSES:          0 HITS:          0 MISSES:          0
ITLB RQ ACCESS:  500000188
ITLB RQ TO_CACHE:   76309445
ITLB RQ MERGED:  423690743
ITLB RQ FORWARD:          0
ITLB WQ ACCESS:          0
ITLB WQ TO_CACHE:          0
ITLB WQ MERGED:          0
ITLB WQ FORWARD:          0
DTLB TOTAL     ACCESS:  136781692  HIT:  136578898  MISS:     202794
DTLB LOAD      ACCESS:  128719485  HIT:  128519412  MISS:     200073
DTLB RFO       ACCESS:    8062207  HIT:    8059486  MISS:       2721
DTLB PREFETCH  ACCESS:          0  HIT:          0  MISS:          0
DTLB WRITEBACK ACCESS:          0  HIT:          0  MISS:          0
DTLB PREFETCH  REQUESTED:          0  ISSUED:          0  USEFUL:          0  USELESS:          0
DTLB TOTAL MSHR MERGED:     447702
DTLB LOAD MSHR MERGED:     443917
DTLB RFO MSHR MERGED:       3785
DTLB PREFETCH MSHR MERGED:          0
DTLB WRITEBACK MSHR MERGED:          0
DTLB TOTAL ACCESSES:  137229394 HITS:  136578898 MISSES:     650496
DTLB LOAD ACCESSES:  129163402 HITS:  128519412 MISSES:     643990
DTLB RFO ACCESSES:    8065992 HITS:    8059486 MISSES:       6506
DTLB PREFETCH ACCESSES:          0 HITS:          0 MISSES:          0
DTLB WRITEBACK ACCESSES:          0 HITS:          0 MISSES:          0
DTLB RQ ACCESS:  189419100
DTLB RQ TO_CACHE:  137229394
DTLB RQ MERGED:   52189706
DTLB RQ FORWARD:          0
DTLB WQ ACCESS:          0
DTLB WQ TO_CACHE:          0
DTLB WQ MERGED:          0
DTLB WQ FORWARD:          0
L1D TOTAL     ACCESS:  125365731  HIT:  107808810  MISS:   17556921
L1D LOAD      ACCESS:   72306802  HIT:   62033603  MISS:   10273199
L1D RFO       ACCESS:   14016354  HIT:   13863522  MISS:     152832
L1D PREFETCH  ACCESS:   39042575  HIT:   31911685  MISS:    7130890
L1D WRITEBACK ACCESS:          0  HIT:          0  MISS:          0
L1D PREFETCH  REQUESTED:   85523460  ISSUED:   84202708  USEFUL:    5871576  USELESS:    1259325
L1D TOTAL MSHR MERGED:   31562128
L1D LOAD MSHR MERGED:   18382871
L1D RFO MSHR MERGED:     264399
L1D PREFETCH MSHR MERGED:   12914858
L1D WRITEBACK MSHR MERGED:          0
L1D TOTAL ACCESSES:  156928380 HITS:  107809332 MISSES:   49119048
L1D LOAD ACCESSES:   85523484 HITS:   62033627 MISSES:   23489857
L1D RFO ACCESSES:   14280725 HITS:   13863522 MISSES:     417203
L1D PREFETCH ACCESSES:   57124171 HITS:   31912183 MISSES:   25211988
L1D WRITEBACK ACCESSES:          0 HITS:          0 MISSES:          0
L1D RQ ACCESS:  175130078
L1D RQ TO_CACHE:   85523460
L1D RQ MERGED:   89606594
L1D RQ FORWARD:          0
L1D WQ ACCESS:   14289037
L1D WQ TO_CACHE:   14280725
L1D WQ MERGED:       8312
L1D WQ FORWARD:        522
L1I TOTAL     ACCESS:   93336689  HIT:   93334893  MISS:       1796
L1I LOAD      ACCESS:   93336689  HIT:   93334893  MISS:       1796
L1I RFO       ACCESS:          0  HIT:          0  MISS:          0
L1I PREFETCH  ACCESS:          0  HIT:          0  MISS:          0
L1I WRITEBACK ACCESS:          0  HIT:          0  MISS:          0
L1I PREFETCH  REQUESTED:          0  ISSUED:          0  USEFUL:          0  USELESS:          0
L1I TOTAL MSHR MERGED:       2315
L1I LOAD MSHR MERGED:       2315
L1I RFO MSHR MERGED:          0
L1I PREFETCH MSHR MERGED:          0
L1I WRITEBACK MSHR MERGED:          0
L1I TOTAL ACCESSES:   93339004 HITS:   93334893 MISSES:       4111
L1I LOAD ACCESSES:   93339004 HITS:   93334893 MISSES:       4111
L1I RFO ACCESSES:          0 HITS:          0 MISSES:          0
L1I PREFETCH ACCESSES:          0 HITS:          0 MISSES:          0
L1I WRITEBACK ACCESSES:          0 HITS:          0 MISSES:          0
L1I RQ ACCESS:  500000187
L1I RQ TO_CACHE:   93339004
L1I RQ MERGED:  406661183
L1I RQ FORWARD:          0
L1I WQ ACCESS:          0
L1I WQ TO_CACHE:          0
L1I WQ MERGED:          0
L1I WQ FORWARD:          0
L2C TOTAL     ACCESS:   20896054  HIT:    8666981  MISS:   12229073
L2C LOAD      ACCESS:    5108760  HIT:    2143207  MISS:    2965553
L2C RFO       ACCESS:     152804  HIT:       6513  MISS:     146291
L2C PREFETCH  ACCESS:   13861739  HIT:    4744619  MISS:    9117120
L2C WRITEBACK ACCESS:    1772751  HIT:    1772642  MISS:        109
L2C PREFETCH  REQUESTED:    1801463  ISSUED:    1801463  USEFUL:    1065881  USELESS:    8052868
L2C TOTAL MSHR MERGED:      96627
L2C LOAD MSHR MERGED:      22165
L2C RFO MSHR MERGED:          0
L2C PREFETCH MSHR MERGED:      74462
L2C WRITEBACK MSHR MERGED:          0
L2C TOTAL ACCESSES:   21014462 HITS:    8667019 MISSES:   12347443
L2C LOAD ACCESSES:    5108782 HITS:    2143229 MISSES:    2965553
L2C RFO ACCESSES:     152804 HITS:       6513 MISSES:     146291
L2C PREFETCH ACCESSES:   13980125 HITS:    4744635 MISSES:    9235490
L2C WRITEBACK ACCESSES:    1772751 HITS:    1772642 MISSES:        109
L2C RQ ACCESS:    5261586
L2C RQ TO_CACHE:    5261564
L2C RQ MERGED:          0
L2C RQ FORWARD:          0
L2C WQ ACCESS:    1772751
L2C WQ TO_CACHE:    1772751
L2C WQ MERGED:          0
L2C WQ FORWARD:         38
LLC TOTAL     ACCESS:   12531556  HIT:    6707452  MISS:    5824104
LLC LOAD      ACCESS:    2943369  HIT:    2440643  MISS:     502726
LLC RFO       ACCESS:     146291  HIT:      86987  MISS:      59304
LLC PREFETCH  ACCESS:    9155912  HIT:    3901766  MISS:    5254146
LLC WRITEBACK ACCESS:     285984  HIT:     278056  MISS:       7928
LLC PREFETCH  REQUESTED:          0  ISSUED:          0  USEFUL:      12975  USELESS:    5240631
LLC TOTAL MSHR MERGED:       1250
LLC LOAD MSHR MERGED:        254
LLC RFO MSHR MERGED:          0
LLC PREFETCH MSHR MERGED:        996
LLC WRITEBACK MSHR MERGED:          0
LLC TOTAL ACCESSES:   12532835 HITS:    6707481 MISSES:    5825354
LLC LOAD ACCESSES:    2943388 HITS:    2440662 MISSES:     502726
LLC RFO ACCESSES:     146291 HITS:      86987 MISSES:      59304
LLC PREFETCH ACCESSES:    9157172 HITS:    3901776 MISSES:    5255396
LLC WRITEBACK ACCESSES:     285984 HITS:     278056 MISSES:       7928
LLC 0 RQ ACCESS:    3089679
LLC 0 RQ TO_CACHE:    3089660
LLC 0 RQ MERGED:          0
LLC 0 RQ FORWARD:          0
LLC WQ ACCESS:     285984
LLC WQ TO_CACHE:     285984
LLC WQ MERGED:          0
LLC WQ FORWARD:         29
Major fault: 0 Minor fault: 6524
CPU 0 L1D next line prefetcher final stats
CPU 0 L2C PC-based stride prefetcher final stats
All Misses: 7613249
All Hits: 7443320
SD Algo Stats - Switches: 0 SRR-Repls: 535390 BRR-Repls: 0

DRAM Statistics
 CHANNEL 0
 RQ ROW_BUFFER_HIT:    4988297  ROW_BUFFER_MISS:     820251
 DBUS_CONGESTED:    2028466
 WQ ROW_BUFFER_HIT:       5591  ROW_BUFFER_MISS:      73985  FULL:          0

 AVG_CONGESTED_CYCLE: 12
LOADS RETIRED: 175418235
INSTR RETIRED: 500000000
