
*** ChampSim Multicore Out-of-Order Simulator ***

Warmup Instructions: 100000000
Simulation Instructions: 500000000
Number of CPUs: 1
LLC sets: 2048
LLC ways: 16
Clean RRIP Policies: 1213130112131301 Dirty RRIP Policies: 2203130122031301 PSEL Width: 10 Track Set: 4294967295 PSEL Mask: 1 Demote Mask: 3010002030100020DS Algo: 0Window size: 0
Off-chip DRAM Size: 4096 MB Channels: 1 Width: 64-bit Data Rate: 1600 MT/s

CPU 0 runs /mnt/beegfs/iconst01/spec2017/Wrf.trace.gz
NOT SORTED
TRACE STRING: /mnt/beegfs/iconst01/spec2017/Wrf.trace.gz
SORTED
TRACE STRING: /mnt/beegfs/iconst01/spec2017/Wrf.trace.gz
INITIAL
TRACE STRING: /mnt/beegfs/iconst01/spec2017/Wrf.trace.gz

champsim_seed used: 303

CPU 0 L1D next line prefetcher
CPU 0 L2C IP-based stride prefetcher
Initialize DRRIP state
Assign rand_sets[0]: 454  LLC: 2048
rand_sets[0]: 454
Assign rand_sets[1]: 1662  LLC: 2048
rand_sets[1]: 1662
Assign rand_sets[2]: 1921  LLC: 2048
rand_sets[2]: 1921
Assign rand_sets[3]: 1131  LLC: 2048
rand_sets[3]: 1131
Assign rand_sets[4]: 331  LLC: 2048
rand_sets[4]: 331
Assign rand_sets[5]: 1531  LLC: 2048
rand_sets[5]: 1531
Assign rand_sets[6]: 482  LLC: 2048
rand_sets[6]: 482
Assign rand_sets[7]: 1275  LLC: 2048
rand_sets[7]: 1275
Assign rand_sets[8]: 1876  LLC: 2048
rand_sets[8]: 1876
Assign rand_sets[9]: 2038  LLC: 2048
rand_sets[9]: 2038
Assign rand_sets[10]: 701  LLC: 2048
rand_sets[10]: 701
Assign rand_sets[11]: 479  LLC: 2048
rand_sets[11]: 479
Assign rand_sets[12]: 892  LLC: 2048
rand_sets[12]: 892
Assign rand_sets[13]: 1820  LLC: 2048
rand_sets[13]: 1820
Assign rand_sets[14]: 1505  LLC: 2048
rand_sets[14]: 1505
Assign rand_sets[15]: 1159  LLC: 2048
rand_sets[15]: 1159
Assign rand_sets[16]: 513  LLC: 2048
rand_sets[16]: 513
Assign rand_sets[17]: 703  LLC: 2048
rand_sets[17]: 703
Assign rand_sets[18]: 561  LLC: 2048
rand_sets[18]: 561
Assign rand_sets[19]: 990  LLC: 2048
rand_sets[19]: 990
Assign rand_sets[20]: 342  LLC: 2048
rand_sets[20]: 342
Assign rand_sets[21]: 882  LLC: 2048
rand_sets[21]: 882
Assign rand_sets[22]: 15  LLC: 2048
rand_sets[22]: 15
Assign rand_sets[23]: 71  LLC: 2048
rand_sets[23]: 71
Assign rand_sets[24]: 1127  LLC: 2048
rand_sets[24]: 1127
Assign rand_sets[25]: 1382  LLC: 2048
rand_sets[25]: 1382
Assign rand_sets[26]: 647  LLC: 2048
rand_sets[26]: 647
Assign rand_sets[27]: 857  LLC: 2048
rand_sets[27]: 857
Assign rand_sets[28]: 1450  LLC: 2048
rand_sets[28]: 1450
Assign rand_sets[29]: 1160  LLC: 2048
rand_sets[29]: 1160
Assign rand_sets[30]: 1852  LLC: 2048
rand_sets[30]: 1852
Assign rand_sets[31]: 1881  LLC: 2048
rand_sets[31]: 1881
Assign rand_sets[32]: 1770  LLC: 2048
rand_sets[32]: 1770
Assign rand_sets[33]: 1622  LLC: 2048
rand_sets[33]: 1622
Assign rand_sets[34]: 275  LLC: 2048
rand_sets[34]: 275
Assign rand_sets[35]: 635  LLC: 2048
rand_sets[35]: 635
Assign rand_sets[36]: 466  LLC: 2048
rand_sets[36]: 466
Assign rand_sets[37]: 1413  LLC: 2048
rand_sets[37]: 1413
Assign rand_sets[38]: 417  LLC: 2048
rand_sets[38]: 417
Assign rand_sets[39]: 472  LLC: 2048
rand_sets[39]: 472
Assign rand_sets[40]: 1340  LLC: 2048
rand_sets[40]: 1340
Assign rand_sets[41]: 852  LLC: 2048
rand_sets[41]: 852
Assign rand_sets[42]: 1365  LLC: 2048
rand_sets[42]: 1365
Assign rand_sets[43]: 47  LLC: 2048
rand_sets[43]: 47
Assign rand_sets[44]: 823  LLC: 2048
rand_sets[44]: 823
Assign rand_sets[45]: 686  LLC: 2048
rand_sets[45]: 686
Assign rand_sets[46]: 1637  LLC: 2048
rand_sets[46]: 1637
Assign rand_sets[47]: 1115  LLC: 2048
rand_sets[47]: 1115
Assign rand_sets[48]: 986  LLC: 2048
rand_sets[48]: 986
Assign rand_sets[49]: 258  LLC: 2048
rand_sets[49]: 258
Assign rand_sets[50]: 633  LLC: 2048
rand_sets[50]: 633
Assign rand_sets[51]: 920  LLC: 2048
rand_sets[51]: 920
Assign rand_sets[52]: 204  LLC: 2048
rand_sets[52]: 204
Assign rand_sets[53]: 227  LLC: 2048
rand_sets[53]: 227
Assign rand_sets[54]: 1818  LLC: 2048
rand_sets[54]: 1818
Assign rand_sets[55]: 886  LLC: 2048
rand_sets[55]: 886
Assign rand_sets[56]: 1422  LLC: 2048
rand_sets[56]: 1422
Assign rand_sets[57]: 607  LLC: 2048
rand_sets[57]: 607
Assign rand_sets[58]: 217  LLC: 2048
rand_sets[58]: 217
Assign rand_sets[59]: 1945  LLC: 2048
rand_sets[59]: 1945
Assign rand_sets[60]: 143  LLC: 2048
rand_sets[60]: 143
Assign rand_sets[61]: 1311  LLC: 2048
rand_sets[61]: 1311
Assign rand_sets[62]: 319  LLC: 2048
rand_sets[62]: 319
Assign rand_sets[63]: 1846  LLC: 2048
rand_sets[63]: 1846
 CLEAN-RRIP-POLICY-1: 1-2-1-3-1-3-0-1- CLEAN-RRIP-POLICY-2: 1-2-1-3-1-3-0-1-
 DIRTY-RRIP-POLICY-1: 2-2-0-3-1-3-0-1- DIRTY-RRIP-POLICY-2: 2-2-0-3-1-3-0-1-
 PSEL width: 10
Heartbeat CPU 0 instructions: 10000002 cycles: 6559549 heartbeat IPC: 1.5245 cumulative IPC: 1.5245 (Simulation time: 0 hr 0 min 31 sec) 
Heartbeat CPU 0 instructions: 20000000 cycles: 12222120 heartbeat IPC: 1.76598 cumulative IPC: 1.63638 (Simulation time: 0 hr 0 min 54 sec) 
Heartbeat CPU 0 instructions: 30000003 cycles: 18203896 heartbeat IPC: 1.67174 cumulative IPC: 1.648 (Simulation time: 0 hr 1 min 20 sec) 
Heartbeat CPU 0 instructions: 40000000 cycles: 24059235 heartbeat IPC: 1.70784 cumulative IPC: 1.66256 (Simulation time: 0 hr 1 min 44 sec) 
Heartbeat CPU 0 instructions: 50000000 cycles: 29527572 heartbeat IPC: 1.82871 cumulative IPC: 1.69333 (Simulation time: 0 hr 2 min 4 sec) 
Heartbeat CPU 0 instructions: 60000000 cycles: 35640366 heartbeat IPC: 1.63591 cumulative IPC: 1.68348 (Simulation time: 0 hr 2 min 26 sec) 
Heartbeat CPU 0 instructions: 70000000 cycles: 41360065 heartbeat IPC: 1.74834 cumulative IPC: 1.69245 (Simulation time: 0 hr 2 min 46 sec) 
Heartbeat CPU 0 instructions: 80000000 cycles: 47230991 heartbeat IPC: 1.70331 cumulative IPC: 1.6938 (Simulation time: 0 hr 3 min 7 sec) 
Heartbeat CPU 0 instructions: 90000000 cycles: 52984503 heartbeat IPC: 1.73807 cumulative IPC: 1.69861 (Simulation time: 0 hr 3 min 28 sec) 
Heartbeat CPU 0 instructions: 100000000 cycles: 58537369 heartbeat IPC: 1.80087 cumulative IPC: 1.70831 (Simulation time: 0 hr 3 min 48 sec) 

Warmup complete CPU 0 instructions: 100000004 cycles: 58537371 (Simulation time: 0 hr 3 min 48 sec) 

Heartbeat CPU 0 instructions: 110000001 cycles: 72383672 heartbeat IPC: 0.722215 cumulative IPC: 0.722214 (Simulation time: 0 hr 4 min 13 sec) 
Heartbeat CPU 0 instructions: 120000000 cycles: 83035946 heartbeat IPC: 0.938767 cumulative IPC: 0.816374 (Simulation time: 0 hr 4 min 37 sec) 
Heartbeat CPU 0 instructions: 130000000 cycles: 92733252 heartbeat IPC: 1.03121 cumulative IPC: 0.877299 (Simulation time: 0 hr 5 min 2 sec) 
Heartbeat CPU 0 instructions: 140000000 cycles: 103230700 heartbeat IPC: 0.952612 cumulative IPC: 0.894988 (Simulation time: 0 hr 5 min 26 sec) 
Heartbeat CPU 0 instructions: 150000002 cycles: 114047480 heartbeat IPC: 0.92449 cumulative IPC: 0.900737 (Simulation time: 0 hr 5 min 53 sec) 
Heartbeat CPU 0 instructions: 160000000 cycles: 122928749 heartbeat IPC: 1.12596 cumulative IPC: 0.931802 (Simulation time: 0 hr 6 min 16 sec) 
Heartbeat CPU 0 instructions: 170000003 cycles: 133218339 heartbeat IPC: 0.971856 cumulative IPC: 0.93732 (Simulation time: 0 hr 6 min 38 sec) 
Heartbeat CPU 0 instructions: 180000000 cycles: 145735383 heartbeat IPC: 0.79891 cumulative IPC: 0.917452 (Simulation time: 0 hr 7 min 3 sec) 
Heartbeat CPU 0 instructions: 190000000 cycles: 160807997 heartbeat IPC: 0.663455 cumulative IPC: 0.880018 (Simulation time: 0 hr 7 min 27 sec) 
Heartbeat CPU 0 instructions: 200000000 cycles: 175847456 heartbeat IPC: 0.664918 cumulative IPC: 0.852442 (Simulation time: 0 hr 7 min 53 sec) 
Heartbeat CPU 0 instructions: 210000000 cycles: 190879796 heartbeat IPC: 0.665232 cumulative IPC: 0.831177 (Simulation time: 0 hr 8 min 17 sec) 
Heartbeat CPU 0 instructions: 220000000 cycles: 206810486 heartbeat IPC: 0.627719 cumulative IPC: 0.809317 (Simulation time: 0 hr 8 min 43 sec) 
Heartbeat CPU 0 instructions: 230000003 cycles: 225234114 heartbeat IPC: 0.542781 cumulative IPC: 0.779859 (Simulation time: 0 hr 9 min 11 sec) 
Heartbeat CPU 0 instructions: 240000000 cycles: 234413378 heartbeat IPC: 1.08941 cumulative IPC: 0.796015 (Simulation time: 0 hr 9 min 33 sec) 
Heartbeat CPU 0 instructions: 250000000 cycles: 243116843 heartbeat IPC: 1.14897 cumulative IPC: 0.812658 (Simulation time: 0 hr 9 min 56 sec) 
Heartbeat CPU 0 instructions: 260000000 cycles: 252166382 heartbeat IPC: 1.10503 cumulative IPC: 0.826322 (Simulation time: 0 hr 10 min 20 sec) 
Heartbeat CPU 0 instructions: 270000000 cycles: 261746867 heartbeat IPC: 1.04379 cumulative IPC: 0.836575 (Simulation time: 0 hr 10 min 42 sec) 
Heartbeat CPU 0 instructions: 280000000 cycles: 271534404 heartbeat IPC: 1.02171 cumulative IPC: 0.845082 (Simulation time: 0 hr 11 min 6 sec) 
Heartbeat CPU 0 instructions: 290000000 cycles: 281614664 heartbeat IPC: 0.992038 cumulative IPC: 0.851723 (Simulation time: 0 hr 11 min 33 sec) 
Heartbeat CPU 0 instructions: 300000000 cycles: 290437600 heartbeat IPC: 1.13341 cumulative IPC: 0.86244 (Simulation time: 0 hr 12 min 1 sec) 
Heartbeat CPU 0 instructions: 310000002 cycles: 304899529 heartbeat IPC: 0.691471 cumulative IPC: 0.852404 (Simulation time: 0 hr 12 min 36 sec) 
Heartbeat CPU 0 instructions: 320000000 cycles: 321022984 heartbeat IPC: 0.620214 cumulative IPC: 0.838141 (Simulation time: 0 hr 13 min 8 sec) 
Heartbeat CPU 0 instructions: 330000002 cycles: 331688204 heartbeat IPC: 0.937627 cumulative IPC: 0.842026 (Simulation time: 0 hr 13 min 32 sec) 
Heartbeat CPU 0 instructions: 340000000 cycles: 342125820 heartbeat IPC: 0.958073 cumulative IPC: 0.846297 (Simulation time: 0 hr 14 min 5 sec) 
Heartbeat CPU 0 instructions: 350000002 cycles: 355263911 heartbeat IPC: 0.761146 cumulative IPC: 0.842527 (Simulation time: 0 hr 14 min 36 sec) 
Heartbeat CPU 0 instructions: 360000000 cycles: 366448910 heartbeat IPC: 0.894054 cumulative IPC: 0.844398 (Simulation time: 0 hr 15 min 0 sec) 
Heartbeat CPU 0 instructions: 370000000 cycles: 377179333 heartbeat IPC: 0.93193 cumulative IPC: 0.847346 (Simulation time: 0 hr 15 min 24 sec) 
Heartbeat CPU 0 instructions: 380000000 cycles: 387689467 heartbeat IPC: 0.951463 cumulative IPC: 0.850671 (Simulation time: 0 hr 15 min 48 sec) 
Heartbeat CPU 0 instructions: 390000003 cycles: 405069891 heartbeat IPC: 0.57536 cumulative IPC: 0.836862 (Simulation time: 0 hr 16 min 25 sec) 
Heartbeat CPU 0 instructions: 400000000 cycles: 415706349 heartbeat IPC: 0.940162 cumulative IPC: 0.839939 (Simulation time: 0 hr 16 min 55 sec) 
Heartbeat CPU 0 instructions: 410000002 cycles: 425689420 heartbeat IPC: 1.0017 cumulative IPC: 0.844337 (Simulation time: 0 hr 17 min 17 sec) 
Heartbeat CPU 0 instructions: 420000000 cycles: 435391960 heartbeat IPC: 1.03066 cumulative IPC: 0.849134 (Simulation time: 0 hr 17 min 43 sec) 
Heartbeat CPU 0 instructions: 430000001 cycles: 445186480 heartbeat IPC: 1.02098 cumulative IPC: 0.853487 (Simulation time: 0 hr 18 min 9 sec) 
Heartbeat CPU 0 instructions: 440000000 cycles: 456659137 heartbeat IPC: 0.871638 cumulative IPC: 0.85401 (Simulation time: 0 hr 18 min 36 sec) 
Heartbeat CPU 0 instructions: 450000002 cycles: 471747270 heartbeat IPC: 0.662773 cumulative IPC: 0.847027 (Simulation time: 0 hr 19 min 4 sec) 
Heartbeat CPU 0 instructions: 460000000 cycles: 486801959 heartbeat IPC: 0.664245 cumulative IPC: 0.840602 (Simulation time: 0 hr 19 min 36 sec) 
Heartbeat CPU 0 instructions: 470000003 cycles: 501849830 heartbeat IPC: 0.664546 cumulative IPC: 0.834626 (Simulation time: 0 hr 19 min 59 sec) 
Heartbeat CPU 0 instructions: 480000000 cycles: 517808083 heartbeat IPC: 0.626635 cumulative IPC: 0.827399 (Simulation time: 0 hr 20 min 38 sec) 
Heartbeat CPU 0 instructions: 490000002 cycles: 536365096 heartbeat IPC: 0.53888 cumulative IPC: 0.816194 (Simulation time: 0 hr 21 min 13 sec) 
Heartbeat CPU 0 instructions: 500000000 cycles: 545509508 heartbeat IPC: 1.09356 cumulative IPC: 0.821402 (Simulation time: 0 hr 21 min 37 sec) 
Heartbeat CPU 0 instructions: 510000002 cycles: 554268564 heartbeat IPC: 1.14168 cumulative IPC: 0.827061 (Simulation time: 0 hr 21 min 58 sec) 
Heartbeat CPU 0 instructions: 520000000 cycles: 563300355 heartbeat IPC: 1.1072 cumulative IPC: 0.832074 (Simulation time: 0 hr 22 min 22 sec) 
Heartbeat CPU 0 instructions: 530000002 cycles: 572882225 heartbeat IPC: 1.04364 cumulative IPC: 0.836015 (Simulation time: 0 hr 22 min 45 sec) 
Heartbeat CPU 0 instructions: 540000000 cycles: 582614835 heartbeat IPC: 1.02747 cumulative IPC: 0.839571 (Simulation time: 0 hr 23 min 8 sec) 
Heartbeat CPU 0 instructions: 550000002 cycles: 592726310 heartbeat IPC: 0.988976 cumulative IPC: 0.842399 (Simulation time: 0 hr 23 min 32 sec) 
Heartbeat CPU 0 instructions: 560000000 cycles: 601549859 heartbeat IPC: 1.13333 cumulative IPC: 0.847126 (Simulation time: 0 hr 23 min 54 sec) 
Heartbeat CPU 0 instructions: 570000001 cycles: 615865310 heartbeat IPC: 0.698546 cumulative IPC: 0.84331 (Simulation time: 0 hr 24 min 19 sec) 
Heartbeat CPU 0 instructions: 580000000 cycles: 632119790 heartbeat IPC: 0.615215 cumulative IPC: 0.836846 (Simulation time: 0 hr 24 min 47 sec) 
Heartbeat CPU 0 instructions: 590000002 cycles: 642378575 heartbeat IPC: 0.974774 cumulative IPC: 0.839269 (Simulation time: 0 hr 25 min 10 sec) 
Heartbeat CPU 0 instructions: 600000000 cycles: 653231253 heartbeat IPC: 0.921431 cumulative IPC: 0.840769 (Simulation time: 0 hr 25 min 33 sec) 
Finished CPU 0 instructions: 500000000 cycles: 594693901 cumulative IPC: 0.840769 (Simulation time: 0 hr 25 min 33 sec) 

CPU 0 Branch Prediction Accuracy: 99.5219% MPKI: 0.251582
Number of Branches: 26312578 Number of Mispredictions: 125791
Number of LOAD Instructions: 235643083
Number of LOAD Instructions (ROI): 235643083
Number of STORE Instructions: 37593550
Number of STORE Instructions (ROI): 37593550
Total Destination Memory Operands: 40480968
Total Destination Memory Operands (ROI): 40480968
Total Source Memory Operands: 235643083
Total Source Memory Operands (ROI): 235643083
Number of DEPENDED LOADS: 6699200
Number of DEPENDED LOADS (ROI): 6699200
Number of SQ_ADDED: 40480950
Number of SQ_ADDED (ROI): 40480950
Number of LQ_ADDED: 389003166
Number of LQ_ADDED (ROI): 389003166
Number of Instructions read from trace: 600000259

ChampSim completed all CPUs

Region of Interest Statistics

CPU 0 cumulative IPC: 0.840769 instructions: 500000000 cycles: 594693901
ITLB TOTAL     ACCESS:  109324683  HIT:  109324170  MISS:        513
ITLB LOAD      ACCESS:  109324683  HIT:  109324170  MISS:        513
ITLB RFO       ACCESS:          0  HIT:          0  MISS:          0
ITLB PREFETCH  ACCESS:          0  HIT:          0  MISS:          0
ITLB WRITEBACK ACCESS:          0  HIT:          0  MISS:          0
ITLB PREFETCH  REQUESTED:          0  ISSUED:          0  USEFUL:          0  USELESS:          0
ITLB TOTAL MSHR MERGED:        965
ITLB LOAD MSHR MERGED:        965
ITLB RFO MSHR MERGED:          0
ITLB PREFETCH MSHR MERGED:          0
ITLB WRITEBACK MSHR MERGED:          0
ITLB TOTAL ACCESSES:  109325648 HITS:  109324170 MISSES:       1478
ITLB LOAD ACCESSES:  109325648 HITS:  109324170 MISSES:       1478
ITLB RFO ACCESSES:          0 HITS:          0 MISSES:          0
ITLB PREFETCH ACCESSES:          0 HITS:          0 MISSES:          0
ITLB WRITEBACK ACCESSES:          0 HITS:          0 MISSES:          0
ITLB RQ ACCESS:  500000003
ITLB RQ TO_CACHE:  109325648
ITLB RQ MERGED:  390674355
ITLB RQ FORWARD:          0
ITLB WQ ACCESS:          0
ITLB WQ TO_CACHE:          0
ITLB WQ MERGED:          0
ITLB WQ FORWARD:          0
DTLB TOTAL     ACCESS:  130443365  HIT:  130185667  MISS:     257698
DTLB LOAD      ACCESS:  109039214  HIT:  108818384  MISS:     220830
DTLB RFO       ACCESS:   21404151  HIT:   21367283  MISS:      36868
DTLB PREFETCH  ACCESS:          0  HIT:          0  MISS:          0
DTLB WRITEBACK ACCESS:          0  HIT:          0  MISS:          0
DTLB PREFETCH  REQUESTED:          0  ISSUED:          0  USEFUL:          0  USELESS:          0
DTLB TOTAL MSHR MERGED:     122047
DTLB LOAD MSHR MERGED:      83919
DTLB RFO MSHR MERGED:      38128
DTLB PREFETCH MSHR MERGED:          0
DTLB WRITEBACK MSHR MERGED:          0
DTLB TOTAL ACCESSES:  130565412 HITS:  130185667 MISSES:     379745
DTLB LOAD ACCESSES:  109123133 HITS:  108818384 MISSES:     304749
DTLB RFO ACCESSES:   21442279 HITS:   21367283 MISSES:      74996
DTLB PREFETCH ACCESSES:          0 HITS:          0 MISSES:          0
DTLB WRITEBACK ACCESSES:          0 HITS:          0 MISSES:          0
DTLB RQ ACCESS:  218635236
DTLB RQ TO_CACHE:  130565413
DTLB RQ MERGED:   88069823
DTLB RQ FORWARD:          0
DTLB WQ ACCESS:          0
DTLB WQ TO_CACHE:          0
DTLB WQ MERGED:          0
DTLB WQ FORWARD:          0
L1D TOTAL     ACCESS:  204713428  HIT:  193641494  MISS:   11071934
L1D LOAD      ACCESS:  106321558  HIT:  103169172  MISS:    3152386
L1D RFO       ACCESS:   26960262  HIT:   25210035  MISS:    1750227
L1D PREFETCH  ACCESS:   71431608  HIT:   65262287  MISS:    6169321
L1D WRITEBACK ACCESS:          0  HIT:          0  MISS:          0
L1D PREFETCH  REQUESTED:  108925749  ISSUED:  107263483  USEFUL:    5714727  USELESS:     454588
L1D TOTAL MSHR MERGED:   18228557
L1D LOAD MSHR MERGED:    4592193
L1D RFO MSHR MERGED:    6481272
L1D PREFETCH MSHR MERGED:    7155092
L1D WRITEBACK MSHR MERGED:          0
L1D TOTAL ACCESSES:  223001275 HITS:  193700784 MISSES:   29300491
L1D LOAD ACCESSES:  108949488 HITS:  103192911 MISSES:    5756577
L1D RFO ACCESSES:   33439550 HITS:   25210035 MISSES:    8229515
L1D PREFETCH ACCESSES:   80612237 HITS:   65297838 MISSES:   15314399
L1D WRITEBACK ACCESSES:          0 HITS:          0 MISSES:          0
L1D RQ ACCESS:  184991798
L1D RQ TO_CACHE:  108925749
L1D RQ MERGED:   76042310
L1D RQ FORWARD:          0
L1D WQ ACCESS:   33643426
L1D WQ TO_CACHE:   33439549
L1D WQ MERGED:     203877
L1D WQ FORWARD:      59290
L1I TOTAL     ACCESS:  134012241  HIT:  133987664  MISS:      24577
L1I LOAD      ACCESS:  134012241  HIT:  133987664  MISS:      24577
L1I RFO       ACCESS:          0  HIT:          0  MISS:          0
L1I PREFETCH  ACCESS:          0  HIT:          0  MISS:          0
L1I WRITEBACK ACCESS:          0  HIT:          0  MISS:          0
L1I PREFETCH  REQUESTED:          0  ISSUED:          0  USEFUL:          0  USELESS:          0
L1I TOTAL MSHR MERGED:      30718
L1I LOAD MSHR MERGED:      30718
L1I RFO MSHR MERGED:          0
L1I PREFETCH MSHR MERGED:          0
L1I WRITEBACK MSHR MERGED:          0
L1I TOTAL ACCESSES:  134042959 HITS:  133987664 MISSES:      55295
L1I LOAD ACCESSES:  134042959 HITS:  133987664 MISSES:      55295
L1I RFO ACCESSES:          0 HITS:          0 MISSES:          0
L1I PREFETCH ACCESSES:          0 HITS:          0 MISSES:          0
L1I WRITEBACK ACCESSES:          0 HITS:          0 MISSES:          0
L1I RQ ACCESS:  500000005
L1I RQ TO_CACHE:  134042959
L1I RQ MERGED:  365957046
L1I RQ FORWARD:          0
L1I WQ ACCESS:          0
L1I WQ TO_CACHE:          0
L1I WQ MERGED:          0
L1I WQ FORWARD:          0
L2C TOTAL     ACCESS:   14942494  HIT:    6946544  MISS:    7995950
L2C LOAD      ACCESS:    1188761  HIT:     299627  MISS:     889134
L2C RFO       ACCESS:    1748026  HIT:     369571  MISS:    1378455
L2C PREFETCH  ACCESS:    8323831  HIT:    2604162  MISS:    5719669
L2C WRITEBACK ACCESS:    3681876  HIT:    3673184  MISS:       8692
L2C PREFETCH  REQUESTED:     390385  ISSUED:     390372  USEFUL:     114719  USELESS:    5605783
L2C TOTAL MSHR MERGED:      41857
L2C LOAD MSHR MERGED:       2371
L2C RFO MSHR MERGED:       1325
L2C PREFETCH MSHR MERGED:      38161
L2C WRITEBACK MSHR MERGED:          0
L2C TOTAL ACCESSES:   15104569 HITS:    6947269 MISSES:    8157300
L2C LOAD ACCESSES:    1188961 HITS:     299827 MISSES:     889134
L2C RFO ACCESSES:    1748243 HITS:     369788 MISSES:    1378455
L2C PREFETCH ACCESSES:    8485489 HITS:    2604470 MISSES:    5881019
L2C WRITEBACK ACCESSES:    3681876 HITS:    3673184 MISSES:       8692
L2C RQ ACCESS:    2937204
L2C RQ TO_CACHE:    2936787
L2C RQ MERGED:          0
L2C RQ FORWARD:          0
L2C WQ ACCESS:    3681876
L2C WQ TO_CACHE:    3681876
L2C WQ MERGED:          0
L2C WQ FORWARD:        725
LLC TOTAL     ACCESS:   11181912  HIT:    3054040  MISS:    8127872
LLC LOAD      ACCESS:     886760  HIT:     315879  MISS:     570881
LLC RFO       ACCESS:    1377126  HIT:     241557  MISS:    1135569
LLC PREFETCH  ACCESS:    5813609  HIT:    1183443  MISS:    4630166
LLC WRITEBACK ACCESS:    3104417  HIT:    1313161  MISS:    1791256
LLC PREFETCH  REQUESTED:          0  ISSUED:          0  USEFUL:      32933  USELESS:    4596601
LLC TOTAL MSHR MERGED:      22008
LLC LOAD MSHR MERGED:       6706
LLC RFO MSHR MERGED:        562
LLC PREFETCH MSHR MERGED:      14740
LLC WRITEBACK MSHR MERGED:          0
LLC TOTAL ACCESSES:   11203937 HITS:    3054057 MISSES:    8149880
LLC LOAD ACCESSES:     886763 HITS:     315882 MISSES:     570881
LLC RFO ACCESSES:    1377130 HITS:     241561 MISSES:    1135569
LLC PREFETCH ACCESSES:    5835627 HITS:    1183453 MISSES:    4652174
LLC WRITEBACK ACCESSES:    3104417 HITS:    1313161 MISSES:    1791256
LLC 0 RQ ACCESS:    2263893
LLC 0 RQ TO_CACHE:    2263886
LLC 0 RQ MERGED:          0
LLC 0 RQ FORWARD:          0
LLC WQ ACCESS:    3104417
LLC WQ TO_CACHE:    3104417
LLC WQ MERGED:          0
LLC WQ FORWARD:         17
Major fault: 0 Minor fault: 11519
CPU 0 L1D next line prefetcher final stats
CPU 0 L2C PC-based stride prefetcher final stats
All Misses: 10244835
All Hits: 3548185
SD Algo Stats - Switches: 0 SRR-Repls: 642469 BRR-Repls: 0

DRAM Statistics
 CHANNEL 0
 RQ ROW_BUFFER_HIT:    3864739  ROW_BUFFER_MISS:    2470961
 DBUS_CONGESTED:    4355159
 WQ ROW_BUFFER_HIT:     376338  ROW_BUFFER_MISS:    1769754  FULL:        232

 AVG_CONGESTED_CYCLE: 13
LOADS RETIRED: 190375692
INSTR RETIRED: 500000000
