
*** ChampSim Multicore Out-of-Order Simulator ***

Warmup Instructions: 100000000
Simulation Instructions: 500000000
Number of CPUs: 1
LLC sets: 2048
LLC ways: 16
Clean RRIP Policies: 2213230222132302 Dirty RRIP Policies: 2223130222231302 PSEL Width: 10 Track Set: 4294967295 PSEL Mask: 1 Demote Mask: 4040101040401010DS Algo: 0Window size: 0
Off-chip DRAM Size: 4096 MB Channels: 1 Width: 64-bit Data Rate: 1600 MT/s

CPU 0 runs /mnt/beegfs/iconst01/spec2017/Mcf.trace.gz
NOT SORTED
TRACE STRING: /mnt/beegfs/iconst01/spec2017/Mcf.trace.gz
SORTED
TRACE STRING: /mnt/beegfs/iconst01/spec2017/Mcf.trace.gz
INITIAL
TRACE STRING: /mnt/beegfs/iconst01/spec2017/Mcf.trace.gz

champsim_seed used: 278

CPU 0 L1D next line prefetcher
CPU 0 L2C IP-based stride prefetcher
Initialize DRRIP state
Assign rand_sets[0]: 454  LLC: 2048
rand_sets[0]: 454
Assign rand_sets[1]: 1662  LLC: 2048
rand_sets[1]: 1662
Assign rand_sets[2]: 1921  LLC: 2048
rand_sets[2]: 1921
Assign rand_sets[3]: 1131  LLC: 2048
rand_sets[3]: 1131
Assign rand_sets[4]: 331  LLC: 2048
rand_sets[4]: 331
Assign rand_sets[5]: 1531  LLC: 2048
rand_sets[5]: 1531
Assign rand_sets[6]: 482  LLC: 2048
rand_sets[6]: 482
Assign rand_sets[7]: 1275  LLC: 2048
rand_sets[7]: 1275
Assign rand_sets[8]: 1876  LLC: 2048
rand_sets[8]: 1876
Assign rand_sets[9]: 2038  LLC: 2048
rand_sets[9]: 2038
Assign rand_sets[10]: 701  LLC: 2048
rand_sets[10]: 701
Assign rand_sets[11]: 479  LLC: 2048
rand_sets[11]: 479
Assign rand_sets[12]: 892  LLC: 2048
rand_sets[12]: 892
Assign rand_sets[13]: 1820  LLC: 2048
rand_sets[13]: 1820
Assign rand_sets[14]: 1505  LLC: 2048
rand_sets[14]: 1505
Assign rand_sets[15]: 1159  LLC: 2048
rand_sets[15]: 1159
Assign rand_sets[16]: 513  LLC: 2048
rand_sets[16]: 513
Assign rand_sets[17]: 703  LLC: 2048
rand_sets[17]: 703
Assign rand_sets[18]: 561  LLC: 2048
rand_sets[18]: 561
Assign rand_sets[19]: 990  LLC: 2048
rand_sets[19]: 990
Assign rand_sets[20]: 342  LLC: 2048
rand_sets[20]: 342
Assign rand_sets[21]: 882  LLC: 2048
rand_sets[21]: 882
Assign rand_sets[22]: 15  LLC: 2048
rand_sets[22]: 15
Assign rand_sets[23]: 71  LLC: 2048
rand_sets[23]: 71
Assign rand_sets[24]: 1127  LLC: 2048
rand_sets[24]: 1127
Assign rand_sets[25]: 1382  LLC: 2048
rand_sets[25]: 1382
Assign rand_sets[26]: 647  LLC: 2048
rand_sets[26]: 647
Assign rand_sets[27]: 857  LLC: 2048
rand_sets[27]: 857
Assign rand_sets[28]: 1450  LLC: 2048
rand_sets[28]: 1450
Assign rand_sets[29]: 1160  LLC: 2048
rand_sets[29]: 1160
Assign rand_sets[30]: 1852  LLC: 2048
rand_sets[30]: 1852
Assign rand_sets[31]: 1881  LLC: 2048
rand_sets[31]: 1881
Assign rand_sets[32]: 1770  LLC: 2048
rand_sets[32]: 1770
Assign rand_sets[33]: 1622  LLC: 2048
rand_sets[33]: 1622
Assign rand_sets[34]: 275  LLC: 2048
rand_sets[34]: 275
Assign rand_sets[35]: 635  LLC: 2048
rand_sets[35]: 635
Assign rand_sets[36]: 466  LLC: 2048
rand_sets[36]: 466
Assign rand_sets[37]: 1413  LLC: 2048
rand_sets[37]: 1413
Assign rand_sets[38]: 417  LLC: 2048
rand_sets[38]: 417
Assign rand_sets[39]: 472  LLC: 2048
rand_sets[39]: 472
Assign rand_sets[40]: 1340  LLC: 2048
rand_sets[40]: 1340
Assign rand_sets[41]: 852  LLC: 2048
rand_sets[41]: 852
Assign rand_sets[42]: 1365  LLC: 2048
rand_sets[42]: 1365
Assign rand_sets[43]: 47  LLC: 2048
rand_sets[43]: 47
Assign rand_sets[44]: 823  LLC: 2048
rand_sets[44]: 823
Assign rand_sets[45]: 686  LLC: 2048
rand_sets[45]: 686
Assign rand_sets[46]: 1637  LLC: 2048
rand_sets[46]: 1637
Assign rand_sets[47]: 1115  LLC: 2048
rand_sets[47]: 1115
Assign rand_sets[48]: 986  LLC: 2048
rand_sets[48]: 986
Assign rand_sets[49]: 258  LLC: 2048
rand_sets[49]: 258
Assign rand_sets[50]: 633  LLC: 2048
rand_sets[50]: 633
Assign rand_sets[51]: 920  LLC: 2048
rand_sets[51]: 920
Assign rand_sets[52]: 204  LLC: 2048
rand_sets[52]: 204
Assign rand_sets[53]: 227  LLC: 2048
rand_sets[53]: 227
Assign rand_sets[54]: 1818  LLC: 2048
rand_sets[54]: 1818
Assign rand_sets[55]: 886  LLC: 2048
rand_sets[55]: 886
Assign rand_sets[56]: 1422  LLC: 2048
rand_sets[56]: 1422
Assign rand_sets[57]: 607  LLC: 2048
rand_sets[57]: 607
Assign rand_sets[58]: 217  LLC: 2048
rand_sets[58]: 217
Assign rand_sets[59]: 1945  LLC: 2048
rand_sets[59]: 1945
Assign rand_sets[60]: 143  LLC: 2048
rand_sets[60]: 143
Assign rand_sets[61]: 1311  LLC: 2048
rand_sets[61]: 1311
Assign rand_sets[62]: 319  LLC: 2048
rand_sets[62]: 319
Assign rand_sets[63]: 1846  LLC: 2048
rand_sets[63]: 1846
 CLEAN-RRIP-POLICY-1: 2-2-1-3-2-3-0-2- CLEAN-RRIP-POLICY-2: 2-2-1-3-2-3-0-2-
 DIRTY-RRIP-POLICY-1: 2-2-2-3-1-3-0-2- DIRTY-RRIP-POLICY-2: 2-2-2-3-1-3-0-2-
 PSEL width: 10
Heartbeat CPU 0 instructions: 10000002 cycles: 6248337 heartbeat IPC: 1.60043 cumulative IPC: 1.60043 (Simulation time: 0 hr 0 min 12 sec) 
Heartbeat CPU 0 instructions: 20000000 cycles: 12468793 heartbeat IPC: 1.6076 cumulative IPC: 1.604 (Simulation time: 0 hr 0 min 25 sec) 
Heartbeat CPU 0 instructions: 30000000 cycles: 18678780 heartbeat IPC: 1.61031 cumulative IPC: 1.6061 (Simulation time: 0 hr 0 min 37 sec) 
Heartbeat CPU 0 instructions: 40000000 cycles: 24889109 heartbeat IPC: 1.61022 cumulative IPC: 1.60713 (Simulation time: 0 hr 0 min 50 sec) 
Heartbeat CPU 0 instructions: 50000003 cycles: 31101281 heartbeat IPC: 1.60974 cumulative IPC: 1.60765 (Simulation time: 0 hr 1 min 2 sec) 
Heartbeat CPU 0 instructions: 60000000 cycles: 37297230 heartbeat IPC: 1.61396 cumulative IPC: 1.6087 (Simulation time: 0 hr 1 min 15 sec) 
Heartbeat CPU 0 instructions: 70000003 cycles: 43515392 heartbeat IPC: 1.60819 cumulative IPC: 1.60863 (Simulation time: 0 hr 1 min 27 sec) 
Heartbeat CPU 0 instructions: 80000000 cycles: 49745662 heartbeat IPC: 1.60507 cumulative IPC: 1.60818 (Simulation time: 0 hr 1 min 40 sec) 
Heartbeat CPU 0 instructions: 90000000 cycles: 55974424 heartbeat IPC: 1.60546 cumulative IPC: 1.60788 (Simulation time: 0 hr 1 min 52 sec) 
Heartbeat CPU 0 instructions: 100000000 cycles: 62193237 heartbeat IPC: 1.60802 cumulative IPC: 1.60789 (Simulation time: 0 hr 2 min 4 sec) 

Warmup complete CPU 0 instructions: 100000001 cycles: 62193238 (Simulation time: 0 hr 2 min 4 sec) 

Heartbeat CPU 0 instructions: 110000000 cycles: 86674401 heartbeat IPC: 0.408477 cumulative IPC: 0.408477 (Simulation time: 0 hr 2 min 28 sec) 
Heartbeat CPU 0 instructions: 120000000 cycles: 111288921 heartbeat IPC: 0.406264 cumulative IPC: 0.407368 (Simulation time: 0 hr 2 min 51 sec) 
Heartbeat CPU 0 instructions: 130000000 cycles: 135981481 heartbeat IPC: 0.40498 cumulative IPC: 0.406569 (Simulation time: 0 hr 3 min 14 sec) 
Heartbeat CPU 0 instructions: 140000000 cycles: 160635337 heartbeat IPC: 0.405616 cumulative IPC: 0.40633 (Simulation time: 0 hr 3 min 38 sec) 
Heartbeat CPU 0 instructions: 150000003 cycles: 185171756 heartbeat IPC: 0.407558 cumulative IPC: 0.406575 (Simulation time: 0 hr 4 min 1 sec) 
Heartbeat CPU 0 instructions: 160000000 cycles: 209963111 heartbeat IPC: 0.403366 cumulative IPC: 0.406037 (Simulation time: 0 hr 4 min 24 sec) 
Heartbeat CPU 0 instructions: 170000001 cycles: 234623808 heartbeat IPC: 0.405504 cumulative IPC: 0.405961 (Simulation time: 0 hr 4 min 48 sec) 
Heartbeat CPU 0 instructions: 180000000 cycles: 259286976 heartbeat IPC: 0.405463 cumulative IPC: 0.405898 (Simulation time: 0 hr 5 min 11 sec) 
Heartbeat CPU 0 instructions: 190000003 cycles: 283912924 heartbeat IPC: 0.406076 cumulative IPC: 0.405918 (Simulation time: 0 hr 5 min 35 sec) 
Heartbeat CPU 0 instructions: 200000000 cycles: 308581093 heartbeat IPC: 0.405381 cumulative IPC: 0.405864 (Simulation time: 0 hr 5 min 58 sec) 
Heartbeat CPU 0 instructions: 210000003 cycles: 333297911 heartbeat IPC: 0.404583 cumulative IPC: 0.405747 (Simulation time: 0 hr 6 min 21 sec) 
Heartbeat CPU 0 instructions: 220000000 cycles: 358202695 heartbeat IPC: 0.401529 cumulative IPC: 0.405392 (Simulation time: 0 hr 6 min 45 sec) 
Heartbeat CPU 0 instructions: 230000002 cycles: 382779289 heartbeat IPC: 0.406891 cumulative IPC: 0.405507 (Simulation time: 0 hr 7 min 8 sec) 
Heartbeat CPU 0 instructions: 240000000 cycles: 407651921 heartbeat IPC: 0.402048 cumulative IPC: 0.405258 (Simulation time: 0 hr 7 min 32 sec) 
Heartbeat CPU 0 instructions: 250000000 cycles: 432337288 heartbeat IPC: 0.405098 cumulative IPC: 0.405248 (Simulation time: 0 hr 7 min 55 sec) 
Heartbeat CPU 0 instructions: 260000000 cycles: 456982783 heartbeat IPC: 0.405754 cumulative IPC: 0.405279 (Simulation time: 0 hr 8 min 19 sec) 
Heartbeat CPU 0 instructions: 270000001 cycles: 481716799 heartbeat IPC: 0.404302 cumulative IPC: 0.405222 (Simulation time: 0 hr 8 min 42 sec) 
Heartbeat CPU 0 instructions: 280000000 cycles: 506387357 heartbeat IPC: 0.405341 cumulative IPC: 0.405228 (Simulation time: 0 hr 9 min 6 sec) 
Heartbeat CPU 0 instructions: 290000001 cycles: 531130873 heartbeat IPC: 0.404146 cumulative IPC: 0.405171 (Simulation time: 0 hr 9 min 29 sec) 
Heartbeat CPU 0 instructions: 300000000 cycles: 556044980 heartbeat IPC: 0.401379 cumulative IPC: 0.40498 (Simulation time: 0 hr 9 min 53 sec) 
Heartbeat CPU 0 instructions: 310000003 cycles: 580604379 heartbeat IPC: 0.407176 cumulative IPC: 0.405084 (Simulation time: 0 hr 10 min 17 sec) 
Heartbeat CPU 0 instructions: 320000000 cycles: 605514481 heartbeat IPC: 0.401443 cumulative IPC: 0.404917 (Simulation time: 0 hr 10 min 40 sec) 
Heartbeat CPU 0 instructions: 330000003 cycles: 630184984 heartbeat IPC: 0.405342 cumulative IPC: 0.404935 (Simulation time: 0 hr 11 min 4 sec) 
Heartbeat CPU 0 instructions: 340000000 cycles: 655134125 heartbeat IPC: 0.400815 cumulative IPC: 0.404762 (Simulation time: 0 hr 11 min 27 sec) 
Heartbeat CPU 0 instructions: 350000002 cycles: 680054268 heartbeat IPC: 0.401282 cumulative IPC: 0.404622 (Simulation time: 0 hr 11 min 51 sec) 
Heartbeat CPU 0 instructions: 360000000 cycles: 705109862 heartbeat IPC: 0.399112 cumulative IPC: 0.404407 (Simulation time: 0 hr 12 min 15 sec) 
Heartbeat CPU 0 instructions: 370000000 cycles: 729945787 heartbeat IPC: 0.402643 cumulative IPC: 0.404341 (Simulation time: 0 hr 12 min 38 sec) 
Heartbeat CPU 0 instructions: 380000000 cycles: 754592382 heartbeat IPC: 0.405736 cumulative IPC: 0.404391 (Simulation time: 0 hr 13 min 1 sec) 
Heartbeat CPU 0 instructions: 390000002 cycles: 779260793 heartbeat IPC: 0.405377 cumulative IPC: 0.404425 (Simulation time: 0 hr 13 min 25 sec) 
Heartbeat CPU 0 instructions: 400000000 cycles: 804104953 heartbeat IPC: 0.402509 cumulative IPC: 0.404361 (Simulation time: 0 hr 13 min 48 sec) 
Heartbeat CPU 0 instructions: 410000002 cycles: 828853143 heartbeat IPC: 0.40407 cumulative IPC: 0.404351 (Simulation time: 0 hr 14 min 11 sec) 
Heartbeat CPU 0 instructions: 420000000 cycles: 853405344 heartbeat IPC: 0.407295 cumulative IPC: 0.404443 (Simulation time: 0 hr 14 min 35 sec) 
Heartbeat CPU 0 instructions: 430000000 cycles: 878157592 heartbeat IPC: 0.404004 cumulative IPC: 0.404429 (Simulation time: 0 hr 14 min 58 sec) 
Heartbeat CPU 0 instructions: 440000000 cycles: 902628527 heartbeat IPC: 0.408648 cumulative IPC: 0.404552 (Simulation time: 0 hr 15 min 22 sec) 
Heartbeat CPU 0 instructions: 450000000 cycles: 927508405 heartbeat IPC: 0.401931 cumulative IPC: 0.404477 (Simulation time: 0 hr 15 min 46 sec) 
Heartbeat CPU 0 instructions: 460000000 cycles: 952277163 heartbeat IPC: 0.403734 cumulative IPC: 0.404456 (Simulation time: 0 hr 16 min 10 sec) 
Heartbeat CPU 0 instructions: 470000001 cycles: 976852282 heartbeat IPC: 0.406916 cumulative IPC: 0.404522 (Simulation time: 0 hr 16 min 35 sec) 
Heartbeat CPU 0 instructions: 480000000 cycles: 1001590465 heartbeat IPC: 0.404233 cumulative IPC: 0.404515 (Simulation time: 0 hr 16 min 59 sec) 
Heartbeat CPU 0 instructions: 490000000 cycles: 1026431467 heartbeat IPC: 0.40256 cumulative IPC: 0.404464 (Simulation time: 0 hr 17 min 23 sec) 
Heartbeat CPU 0 instructions: 500000000 cycles: 1051578693 heartbeat IPC: 0.397658 cumulative IPC: 0.404291 (Simulation time: 0 hr 17 min 48 sec) 
Heartbeat CPU 0 instructions: 510000003 cycles: 1076608614 heartbeat IPC: 0.399522 cumulative IPC: 0.404174 (Simulation time: 0 hr 18 min 12 sec) 
Heartbeat CPU 0 instructions: 520000000 cycles: 1101800089 heartbeat IPC: 0.39696 cumulative IPC: 0.403999 (Simulation time: 0 hr 18 min 36 sec) 
Heartbeat CPU 0 instructions: 530000003 cycles: 1127005538 heartbeat IPC: 0.39674 cumulative IPC: 0.403827 (Simulation time: 0 hr 19 min 0 sec) 
Heartbeat CPU 0 instructions: 540000000 cycles: 1152129440 heartbeat IPC: 0.398027 cumulative IPC: 0.403693 (Simulation time: 0 hr 19 min 25 sec) 
Heartbeat CPU 0 instructions: 550000000 cycles: 1177261207 heartbeat IPC: 0.397903 cumulative IPC: 0.403563 (Simulation time: 0 hr 19 min 49 sec) 
Heartbeat CPU 0 instructions: 560000000 cycles: 1202683027 heartbeat IPC: 0.393363 cumulative IPC: 0.403335 (Simulation time: 0 hr 20 min 14 sec) 
Heartbeat CPU 0 instructions: 570000001 cycles: 1228045873 heartbeat IPC: 0.394278 cumulative IPC: 0.403138 (Simulation time: 0 hr 20 min 38 sec) 
Heartbeat CPU 0 instructions: 580000000 cycles: 1253412103 heartbeat IPC: 0.394225 cumulative IPC: 0.402949 (Simulation time: 0 hr 21 min 2 sec) 
Heartbeat CPU 0 instructions: 590000000 cycles: 1278909716 heartbeat IPC: 0.392194 cumulative IPC: 0.402723 (Simulation time: 0 hr 21 min 27 sec) 
Heartbeat CPU 0 instructions: 600000000 cycles: 1304485028 heartbeat IPC: 0.391002 cumulative IPC: 0.402482 (Simulation time: 0 hr 21 min 51 sec) 
Finished CPU 0 instructions: 500000003 cycles: 1242291803 cumulative IPC: 0.402482 (Simulation time: 0 hr 21 min 51 sec) 

CPU 0 Branch Prediction Accuracy: 91.1342% MPKI: 18.7968
Number of Branches: 106006945 Number of Mispredictions: 9398408
Number of LOAD Instructions: 207894007
Number of LOAD Instructions (ROI): 207894007
Number of STORE Instructions: 54285997
Number of STORE Instructions (ROI): 54285997
Total Destination Memory Operands: 57463404
Total Destination Memory Operands (ROI): 57463404
Total Source Memory Operands: 207894007
Total Source Memory Operands (ROI): 207894007
Number of DEPENDED LOADS: 18103408
Number of DEPENDED LOADS (ROI): 18103408
Number of SQ_ADDED: 57463404
Number of SQ_ADDED (ROI): 57463404
Number of LQ_ADDED: 209237911
Number of LQ_ADDED (ROI): 209237911
Number of Instructions read from trace: 600000039

ChampSim completed all CPUs

Region of Interest Statistics

CPU 0 cumulative IPC: 0.402482 instructions: 500000003 cycles: 1242291803
ITLB TOTAL     ACCESS:   96422717  HIT:   96422717  MISS:          0
ITLB LOAD      ACCESS:   96422717  HIT:   96422717  MISS:          0
ITLB RFO       ACCESS:          0  HIT:          0  MISS:          0
ITLB PREFETCH  ACCESS:          0  HIT:          0  MISS:          0
ITLB WRITEBACK ACCESS:          0  HIT:          0  MISS:          0
ITLB PREFETCH  REQUESTED:          0  ISSUED:          0  USEFUL:          0  USELESS:          0
ITLB TOTAL MSHR MERGED:          0
ITLB LOAD MSHR MERGED:          0
ITLB RFO MSHR MERGED:          0
ITLB PREFETCH MSHR MERGED:          0
ITLB WRITEBACK MSHR MERGED:          0
ITLB TOTAL ACCESSES:   96422717 HITS:   96422717 MISSES:          0
ITLB LOAD ACCESSES:   96422717 HITS:   96422717 MISSES:          0
ITLB RFO ACCESSES:          0 HITS:          0 MISSES:          0
ITLB PREFETCH ACCESSES:          0 HITS:          0 MISSES:          0
ITLB WRITEBACK ACCESSES:          0 HITS:          0 MISSES:          0
ITLB RQ ACCESS:  499999980
ITLB RQ TO_CACHE:   96422717
ITLB RQ MERGED:  403577263
ITLB RQ FORWARD:          0
ITLB WQ ACCESS:          0
ITLB WQ TO_CACHE:          0
ITLB WQ MERGED:          0
ITLB WQ FORWARD:          0
DTLB TOTAL     ACCESS:  155174846  HIT:  150262617  MISS:    4912229
DTLB LOAD      ACCESS:  117724320  HIT:  113333793  MISS:    4390527
DTLB RFO       ACCESS:   37450526  HIT:   36928824  MISS:     521702
DTLB PREFETCH  ACCESS:          0  HIT:          0  MISS:          0
DTLB WRITEBACK ACCESS:          0  HIT:          0  MISS:          0
DTLB PREFETCH  REQUESTED:          0  ISSUED:          0  USEFUL:          0  USELESS:          0
DTLB TOTAL MSHR MERGED:     453649
DTLB LOAD MSHR MERGED:     162180
DTLB RFO MSHR MERGED:     291469
DTLB PREFETCH MSHR MERGED:          0
DTLB WRITEBACK MSHR MERGED:          0
DTLB TOTAL ACCESSES:  155628495 HITS:  150262617 MISSES:    5365878
DTLB LOAD ACCESSES:  117886500 HITS:  113333793 MISSES:    4552707
DTLB RFO ACCESSES:   37741995 HITS:   36928824 MISSES:     813171
DTLB PREFETCH ACCESSES:          0 HITS:          0 MISSES:          0
DTLB WRITEBACK ACCESSES:          0 HITS:          0 MISSES:          0
DTLB RQ ACCESS:  205979451
DTLB RQ TO_CACHE:  155628495
DTLB RQ MERGED:   50350956
DTLB RQ FORWARD:          0
DTLB WQ ACCESS:          0
DTLB WQ TO_CACHE:          0
DTLB WQ MERGED:          0
DTLB WQ FORWARD:          0
L1D TOTAL     ACCESS:  277171435  HIT:  242348892  MISS:   34822543
L1D LOAD      ACCESS:  125412607  HIT:  107774619  MISS:   17637988
L1D RFO       ACCESS:   41137020  HIT:   38825176  MISS:    2311844
L1D PREFETCH  ACCESS:  110621808  HIT:   95749097  MISS:   14872711
L1D WRITEBACK ACCESS:          0  HIT:          0  MISS:          0
L1D PREFETCH  REQUESTED:  126274802  ISSUED:  124755540  USEFUL:    2706695  USELESS:   12166041
L1D TOTAL MSHR MERGED:    8507828
L1D LOAD MSHR MERGED:    1558405
L1D RFO MSHR MERGED:    3767992
L1D PREFETCH MSHR MERGED:    3181431
L1D WRITEBACK MSHR MERGED:          0
L1D TOTAL ACCESSES:  285766589 HITS:  242436217 MISSES:   43330372
L1D LOAD ACCESSES:  126274827 HITS:  107774644 MISSES:   18500183
L1D RFO ACCESSES:   44904516 HITS:   38825176 MISSES:    6079340
L1D PREFETCH ACCESSES:  114587246 HITS:   95836397 MISSES:   18750849
L1D WRITEBACK ACCESSES:          0 HITS:          0 MISSES:          0
L1D RQ ACCESS:  158432570
L1D RQ TO_CACHE:  126274802
L1D RQ MERGED:   32157743
L1D RQ FORWARD:          0
L1D WQ ACCESS:   47546882
L1D WQ TO_CACHE:   44904516
L1D WQ MERGED:    2642366
L1D WQ FORWARD:      87325
L1I TOTAL     ACCESS:  132832664  HIT:  132832664  MISS:          0
L1I LOAD      ACCESS:  132832664  HIT:  132832664  MISS:          0
L1I RFO       ACCESS:          0  HIT:          0  MISS:          0
L1I PREFETCH  ACCESS:          0  HIT:          0  MISS:          0
L1I WRITEBACK ACCESS:          0  HIT:          0  MISS:          0
L1I PREFETCH  REQUESTED:          0  ISSUED:          0  USEFUL:          0  USELESS:          0
L1I TOTAL MSHR MERGED:          0
L1I LOAD MSHR MERGED:          0
L1I RFO MSHR MERGED:          0
L1I PREFETCH MSHR MERGED:          0
L1I WRITEBACK MSHR MERGED:          0
L1I TOTAL ACCESSES:  132832664 HITS:  132832664 MISSES:          0
L1I LOAD ACCESSES:  132832664 HITS:  132832664 MISSES:          0
L1I RFO ACCESSES:          0 HITS:          0 MISSES:          0
L1I PREFETCH ACCESSES:          0 HITS:          0 MISSES:          0
L1I WRITEBACK ACCESSES:          0 HITS:          0 MISSES:          0
L1I RQ ACCESS:  499999980
L1I RQ TO_CACHE:  132832664
L1I RQ MERGED:  367167316
L1I RQ FORWARD:          0
L1I WQ ACCESS:          0
L1I WQ TO_CACHE:          0
L1I WQ MERGED:          0
L1I WQ FORWARD:          0
L2C TOTAL     ACCESS:   39594687  HIT:   20625254  MISS:   18969433
L2C LOAD      ACCESS:   16941716  HIT:    8567646  MISS:    8374070
L2C RFO       ACCESS:    2311295  HIT:     630834  MISS:    1680461
L2C PREFETCH  ACCESS:   17119226  HIT:    8208073  MISS:    8911153
L2C WRITEBACK ACCESS:    3222450  HIT:    3218701  MISS:       3749
L2C PREFETCH  REQUESTED:    2863613  ISSUED:    2863613  USEFUL:    1306958  USELESS:    7603927
L2C TOTAL MSHR MERGED:     526293
L2C LOAD MSHR MERGED:      85529
L2C RFO MSHR MERGED:          0
L2C PREFETCH MSHR MERGED:     440764
L2C WRITEBACK MSHR MERGED:          0
L2C TOTAL ACCESSES:   40223746 HITS:   20625419 MISSES:   19598327
L2C LOAD ACCESSES:   16941778 HITS:    8567708 MISSES:    8374070
L2C RFO ACCESSES:    2311348 HITS:     630887 MISSES:    1680461
L2C PREFETCH ACCESSES:   17748170 HITS:    8208123 MISSES:    9540047
L2C WRITEBACK ACCESSES:    3222450 HITS:    3218701 MISSES:       3749
L2C RQ ACCESS:   19253126
L2C RQ TO_CACHE:   19253011
L2C RQ MERGED:          0
L2C RQ FORWARD:          0
L2C WQ ACCESS:    3222450
L2C WQ TO_CACHE:    3222450
L2C WQ MERGED:          0
L2C WQ FORWARD:        165
LLC TOTAL     ACCESS:   21192995  HIT:   14386750  MISS:    6806245
LLC LOAD      ACCESS:    8288513  HIT:    5802453  MISS:    2486060
LLC RFO       ACCESS:    1680377  HIT:    1672342  MISS:       8035
LLC PREFETCH  ACCESS:    9048442  HIT:    4742171  MISS:    4306271
LLC WRITEBACK ACCESS:    2175663  HIT:    2169784  MISS:       5879
LLC PREFETCH  REQUESTED:          0  ISSUED:          0  USEFUL:     206437  USELESS:    4102204
LLC TOTAL MSHR MERGED:      42814
LLC LOAD MSHR MERGED:      13140
LLC RFO MSHR MERGED:          0
LLC PREFETCH MSHR MERGED:      29674
LLC WRITEBACK MSHR MERGED:          0
LLC TOTAL ACCESSES:   21235949 HITS:   14386889 MISSES:    6849060
LLC LOAD ACCESSES:    8288541 HITS:    5802481 MISSES:    2486060
LLC RFO ACCESSES:    1680461 HITS:    1672426 MISSES:       8035
LLC PREFETCH ACCESSES:    9091284 HITS:    4742198 MISSES:    4349086
LLC WRITEBACK ACCESSES:    2175663 HITS:    2169784 MISSES:       5879
LLC 0 RQ ACCESS:    9969002
LLC 0 RQ TO_CACHE:    9968890
LLC 0 RQ MERGED:          0
LLC 0 RQ FORWARD:          0
LLC WQ ACCESS:    2175664
LLC WQ TO_CACHE:    2175664
LLC WQ MERGED:          0
LLC WQ FORWARD:        139
Major fault: 0 Minor fault: 56391
CPU 0 L1D next line prefetcher final stats
CPU 0 L2C PC-based stride prefetcher final stats
All Misses: 8030313
All Hits: 16539525
SD Algo Stats - Switches: 0 SRR-Repls: 2606605 BRR-Repls: 0

DRAM Statistics
 CHANNEL 0
 RQ ROW_BUFFER_HIT:    4580240  ROW_BUFFER_MISS:    2209712
 DBUS_CONGESTED:    3183456
 WQ ROW_BUFFER_HIT:        691  ROW_BUFFER_MISS:      20837  FULL:          0

 AVG_CONGESTED_CYCLE: 12
LOADS RETIRED: 173631671
INSTR RETIRED: 500000000
