
*** ChampSim Multicore Out-of-Order Simulator ***

Warmup Instructions: 100000000
Simulation Instructions: 500000000
Number of CPUs: 1
LLC sets: 2048
LLC ways: 16
Clean RRIP Policies: 1213030112130301 Dirty RRIP Policies: 2203130122031301 PSEL Width: 10 Track Set: 4294967295 PSEL Mask: 1 Demote Mask: 3040201130402011DS Algo: 0Window size: 0
Off-chip DRAM Size: 4096 MB Channels: 1 Width: 64-bit Data Rate: 1600 MT/s

CPU 0 runs /mnt/beegfs/iconst01/spec2017/Wrf.trace.gz
NOT SORTED
TRACE STRING: /mnt/beegfs/iconst01/spec2017/Wrf.trace.gz
SORTED
TRACE STRING: /mnt/beegfs/iconst01/spec2017/Wrf.trace.gz
INITIAL
TRACE STRING: /mnt/beegfs/iconst01/spec2017/Wrf.trace.gz

champsim_seed used: 303

CPU 0 L1D next line prefetcher
CPU 0 L2C IP-based stride prefetcher
Initialize DRRIP state
Assign rand_sets[0]: 454  LLC: 2048
rand_sets[0]: 454
Assign rand_sets[1]: 1662  LLC: 2048
rand_sets[1]: 1662
Assign rand_sets[2]: 1921  LLC: 2048
rand_sets[2]: 1921
Assign rand_sets[3]: 1131  LLC: 2048
rand_sets[3]: 1131
Assign rand_sets[4]: 331  LLC: 2048
rand_sets[4]: 331
Assign rand_sets[5]: 1531  LLC: 2048
rand_sets[5]: 1531
Assign rand_sets[6]: 482  LLC: 2048
rand_sets[6]: 482
Assign rand_sets[7]: 1275  LLC: 2048
rand_sets[7]: 1275
Assign rand_sets[8]: 1876  LLC: 2048
rand_sets[8]: 1876
Assign rand_sets[9]: 2038  LLC: 2048
rand_sets[9]: 2038
Assign rand_sets[10]: 701  LLC: 2048
rand_sets[10]: 701
Assign rand_sets[11]: 479  LLC: 2048
rand_sets[11]: 479
Assign rand_sets[12]: 892  LLC: 2048
rand_sets[12]: 892
Assign rand_sets[13]: 1820  LLC: 2048
rand_sets[13]: 1820
Assign rand_sets[14]: 1505  LLC: 2048
rand_sets[14]: 1505
Assign rand_sets[15]: 1159  LLC: 2048
rand_sets[15]: 1159
Assign rand_sets[16]: 513  LLC: 2048
rand_sets[16]: 513
Assign rand_sets[17]: 703  LLC: 2048
rand_sets[17]: 703
Assign rand_sets[18]: 561  LLC: 2048
rand_sets[18]: 561
Assign rand_sets[19]: 990  LLC: 2048
rand_sets[19]: 990
Assign rand_sets[20]: 342  LLC: 2048
rand_sets[20]: 342
Assign rand_sets[21]: 882  LLC: 2048
rand_sets[21]: 882
Assign rand_sets[22]: 15  LLC: 2048
rand_sets[22]: 15
Assign rand_sets[23]: 71  LLC: 2048
rand_sets[23]: 71
Assign rand_sets[24]: 1127  LLC: 2048
rand_sets[24]: 1127
Assign rand_sets[25]: 1382  LLC: 2048
rand_sets[25]: 1382
Assign rand_sets[26]: 647  LLC: 2048
rand_sets[26]: 647
Assign rand_sets[27]: 857  LLC: 2048
rand_sets[27]: 857
Assign rand_sets[28]: 1450  LLC: 2048
rand_sets[28]: 1450
Assign rand_sets[29]: 1160  LLC: 2048
rand_sets[29]: 1160
Assign rand_sets[30]: 1852  LLC: 2048
rand_sets[30]: 1852
Assign rand_sets[31]: 1881  LLC: 2048
rand_sets[31]: 1881
Assign rand_sets[32]: 1770  LLC: 2048
rand_sets[32]: 1770
Assign rand_sets[33]: 1622  LLC: 2048
rand_sets[33]: 1622
Assign rand_sets[34]: 275  LLC: 2048
rand_sets[34]: 275
Assign rand_sets[35]: 635  LLC: 2048
rand_sets[35]: 635
Assign rand_sets[36]: 466  LLC: 2048
rand_sets[36]: 466
Assign rand_sets[37]: 1413  LLC: 2048
rand_sets[37]: 1413
Assign rand_sets[38]: 417  LLC: 2048
rand_sets[38]: 417
Assign rand_sets[39]: 472  LLC: 2048
rand_sets[39]: 472
Assign rand_sets[40]: 1340  LLC: 2048
rand_sets[40]: 1340
Assign rand_sets[41]: 852  LLC: 2048
rand_sets[41]: 852
Assign rand_sets[42]: 1365  LLC: 2048
rand_sets[42]: 1365
Assign rand_sets[43]: 47  LLC: 2048
rand_sets[43]: 47
Assign rand_sets[44]: 823  LLC: 2048
rand_sets[44]: 823
Assign rand_sets[45]: 686  LLC: 2048
rand_sets[45]: 686
Assign rand_sets[46]: 1637  LLC: 2048
rand_sets[46]: 1637
Assign rand_sets[47]: 1115  LLC: 2048
rand_sets[47]: 1115
Assign rand_sets[48]: 986  LLC: 2048
rand_sets[48]: 986
Assign rand_sets[49]: 258  LLC: 2048
rand_sets[49]: 258
Assign rand_sets[50]: 633  LLC: 2048
rand_sets[50]: 633
Assign rand_sets[51]: 920  LLC: 2048
rand_sets[51]: 920
Assign rand_sets[52]: 204  LLC: 2048
rand_sets[52]: 204
Assign rand_sets[53]: 227  LLC: 2048
rand_sets[53]: 227
Assign rand_sets[54]: 1818  LLC: 2048
rand_sets[54]: 1818
Assign rand_sets[55]: 886  LLC: 2048
rand_sets[55]: 886
Assign rand_sets[56]: 1422  LLC: 2048
rand_sets[56]: 1422
Assign rand_sets[57]: 607  LLC: 2048
rand_sets[57]: 607
Assign rand_sets[58]: 217  LLC: 2048
rand_sets[58]: 217
Assign rand_sets[59]: 1945  LLC: 2048
rand_sets[59]: 1945
Assign rand_sets[60]: 143  LLC: 2048
rand_sets[60]: 143
Assign rand_sets[61]: 1311  LLC: 2048
rand_sets[61]: 1311
Assign rand_sets[62]: 319  LLC: 2048
rand_sets[62]: 319
Assign rand_sets[63]: 1846  LLC: 2048
rand_sets[63]: 1846
 CLEAN-RRIP-POLICY-1: 1-2-1-3-0-3-0-1- CLEAN-RRIP-POLICY-2: 1-2-1-3-0-3-0-1-
 DIRTY-RRIP-POLICY-1: 2-2-0-3-1-3-0-1- DIRTY-RRIP-POLICY-2: 2-2-0-3-1-3-0-1-
 PSEL width: 10
Heartbeat CPU 0 instructions: 10000002 cycles: 6559549 heartbeat IPC: 1.5245 cumulative IPC: 1.5245 (Simulation time: 0 hr 0 min 22 sec) 
Heartbeat CPU 0 instructions: 20000000 cycles: 12222159 heartbeat IPC: 1.76597 cumulative IPC: 1.63637 (Simulation time: 0 hr 0 min 41 sec) 
Heartbeat CPU 0 instructions: 30000003 cycles: 18203939 heartbeat IPC: 1.67174 cumulative IPC: 1.648 (Simulation time: 0 hr 1 min 1 sec) 
Heartbeat CPU 0 instructions: 40000000 cycles: 24059280 heartbeat IPC: 1.70784 cumulative IPC: 1.66256 (Simulation time: 0 hr 1 min 21 sec) 
Heartbeat CPU 0 instructions: 50000000 cycles: 29527676 heartbeat IPC: 1.82869 cumulative IPC: 1.69333 (Simulation time: 0 hr 1 min 41 sec) 
Heartbeat CPU 0 instructions: 60000000 cycles: 35640512 heartbeat IPC: 1.6359 cumulative IPC: 1.68348 (Simulation time: 0 hr 2 min 2 sec) 
Heartbeat CPU 0 instructions: 70000000 cycles: 41360199 heartbeat IPC: 1.74835 cumulative IPC: 1.69245 (Simulation time: 0 hr 2 min 22 sec) 
Heartbeat CPU 0 instructions: 80000000 cycles: 47231146 heartbeat IPC: 1.7033 cumulative IPC: 1.6938 (Simulation time: 0 hr 2 min 43 sec) 
Heartbeat CPU 0 instructions: 90000000 cycles: 52984681 heartbeat IPC: 1.73806 cumulative IPC: 1.6986 (Simulation time: 0 hr 3 min 3 sec) 
Heartbeat CPU 0 instructions: 100000000 cycles: 58537440 heartbeat IPC: 1.80091 cumulative IPC: 1.70831 (Simulation time: 0 hr 3 min 23 sec) 

Warmup complete CPU 0 instructions: 100000004 cycles: 58537442 (Simulation time: 0 hr 3 min 23 sec) 

Heartbeat CPU 0 instructions: 110000001 cycles: 72449339 heartbeat IPC: 0.718809 cumulative IPC: 0.718809 (Simulation time: 0 hr 3 min 48 sec) 
Heartbeat CPU 0 instructions: 120000000 cycles: 83253901 heartbeat IPC: 0.925535 cumulative IPC: 0.809177 (Simulation time: 0 hr 4 min 12 sec) 
Heartbeat CPU 0 instructions: 130000000 cycles: 92981938 heartbeat IPC: 1.02796 cumulative IPC: 0.870966 (Simulation time: 0 hr 4 min 33 sec) 
Heartbeat CPU 0 instructions: 140000000 cycles: 103571912 heartbeat IPC: 0.944289 cumulative IPC: 0.888208 (Simulation time: 0 hr 4 min 56 sec) 
Heartbeat CPU 0 instructions: 150000002 cycles: 114509180 heartbeat IPC: 0.914305 cumulative IPC: 0.893308 (Simulation time: 0 hr 5 min 19 sec) 
Heartbeat CPU 0 instructions: 160000000 cycles: 123418429 heartbeat IPC: 1.12243 cumulative IPC: 0.92477 (Simulation time: 0 hr 5 min 41 sec) 
Heartbeat CPU 0 instructions: 170000003 cycles: 133838090 heartbeat IPC: 0.959724 cumulative IPC: 0.929607 (Simulation time: 0 hr 6 min 3 sec) 
Heartbeat CPU 0 instructions: 180000000 cycles: 146405323 heartbeat IPC: 0.79572 cumulative IPC: 0.910458 (Simulation time: 0 hr 6 min 27 sec) 
Heartbeat CPU 0 instructions: 190000000 cycles: 161477609 heartbeat IPC: 0.663469 cumulative IPC: 0.874294 (Simulation time: 0 hr 6 min 50 sec) 
Heartbeat CPU 0 instructions: 200000000 cycles: 176514612 heartbeat IPC: 0.665026 cumulative IPC: 0.847622 (Simulation time: 0 hr 7 min 14 sec) 
Heartbeat CPU 0 instructions: 210000000 cycles: 191549020 heartbeat IPC: 0.665141 cumulative IPC: 0.826996 (Simulation time: 0 hr 7 min 37 sec) 
Heartbeat CPU 0 instructions: 220000000 cycles: 207513105 heartbeat IPC: 0.626406 cumulative IPC: 0.805501 (Simulation time: 0 hr 8 min 2 sec) 
Heartbeat CPU 0 instructions: 230000003 cycles: 225940126 heartbeat IPC: 0.542681 cumulative IPC: 0.776571 (Simulation time: 0 hr 8 min 30 sec) 
Heartbeat CPU 0 instructions: 240000000 cycles: 235130608 heartbeat IPC: 1.08808 cumulative IPC: 0.792783 (Simulation time: 0 hr 8 min 51 sec) 
Heartbeat CPU 0 instructions: 250000000 cycles: 243832258 heartbeat IPC: 1.14921 cumulative IPC: 0.809521 (Simulation time: 0 hr 9 min 12 sec) 
Heartbeat CPU 0 instructions: 260000000 cycles: 252911318 heartbeat IPC: 1.10144 cumulative IPC: 0.823156 (Simulation time: 0 hr 9 min 33 sec) 
Heartbeat CPU 0 instructions: 270000000 cycles: 262526419 heartbeat IPC: 1.04003 cumulative IPC: 0.833378 (Simulation time: 0 hr 9 min 55 sec) 
Heartbeat CPU 0 instructions: 280000000 cycles: 272315180 heartbeat IPC: 1.02158 cumulative IPC: 0.841996 (Simulation time: 0 hr 10 min 18 sec) 
Heartbeat CPU 0 instructions: 290000000 cycles: 282402938 heartbeat IPC: 0.991301 cumulative IPC: 0.848724 (Simulation time: 0 hr 10 min 42 sec) 
Heartbeat CPU 0 instructions: 300000000 cycles: 291215094 heartbeat IPC: 1.1348 cumulative IPC: 0.859558 (Simulation time: 0 hr 11 min 3 sec) 
Heartbeat CPU 0 instructions: 310000002 cycles: 305718383 heartbeat IPC: 0.689499 cumulative IPC: 0.84958 (Simulation time: 0 hr 11 min 29 sec) 
Heartbeat CPU 0 instructions: 320000000 cycles: 321831841 heartbeat IPC: 0.620599 cumulative IPC: 0.835567 (Simulation time: 0 hr 11 min 57 sec) 
Heartbeat CPU 0 instructions: 330000002 cycles: 332478767 heartbeat IPC: 0.939238 cumulative IPC: 0.839596 (Simulation time: 0 hr 12 min 19 sec) 
Heartbeat CPU 0 instructions: 340000000 cycles: 342942486 heartbeat IPC: 0.955683 cumulative IPC: 0.843867 (Simulation time: 0 hr 12 min 43 sec) 
Heartbeat CPU 0 instructions: 350000002 cycles: 356064391 heartbeat IPC: 0.762085 cumulative IPC: 0.84026 (Simulation time: 0 hr 13 min 8 sec) 
Heartbeat CPU 0 instructions: 360000000 cycles: 367252555 heartbeat IPC: 0.893802 cumulative IPC: 0.8422 (Simulation time: 0 hr 13 min 31 sec) 
Heartbeat CPU 0 instructions: 370000000 cycles: 378023447 heartbeat IPC: 0.928428 cumulative IPC: 0.845107 (Simulation time: 0 hr 13 min 54 sec) 
Heartbeat CPU 0 instructions: 380000000 cycles: 388531130 heartbeat IPC: 0.951685 cumulative IPC: 0.848501 (Simulation time: 0 hr 14 min 18 sec) 
Heartbeat CPU 0 instructions: 390000003 cycles: 405931218 heartbeat IPC: 0.57471 cumulative IPC: 0.834788 (Simulation time: 0 hr 14 min 46 sec) 
Heartbeat CPU 0 instructions: 400000000 cycles: 416715183 heartbeat IPC: 0.927302 cumulative IPC: 0.837573 (Simulation time: 0 hr 15 min 8 sec) 
Heartbeat CPU 0 instructions: 410000002 cycles: 426866136 heartbeat IPC: 0.985129 cumulative IPC: 0.84164 (Simulation time: 0 hr 15 min 29 sec) 
Heartbeat CPU 0 instructions: 420000000 cycles: 436667731 heartbeat IPC: 1.02024 cumulative IPC: 0.846269 (Simulation time: 0 hr 15 min 51 sec) 
Heartbeat CPU 0 instructions: 430000001 cycles: 446541795 heartbeat IPC: 1.01275 cumulative IPC: 0.850506 (Simulation time: 0 hr 16 min 12 sec) 
Heartbeat CPU 0 instructions: 440000000 cycles: 457962278 heartbeat IPC: 0.87562 cumulative IPC: 0.851224 (Simulation time: 0 hr 16 min 34 sec) 
Heartbeat CPU 0 instructions: 450000002 cycles: 473053722 heartbeat IPC: 0.662627 cumulative IPC: 0.844358 (Simulation time: 0 hr 16 min 57 sec) 
Heartbeat CPU 0 instructions: 460000000 cycles: 488106017 heartbeat IPC: 0.66435 cumulative IPC: 0.83805 (Simulation time: 0 hr 17 min 21 sec) 
Heartbeat CPU 0 instructions: 470000003 cycles: 503154419 heartbeat IPC: 0.664523 cumulative IPC: 0.832177 (Simulation time: 0 hr 17 min 44 sec) 
Heartbeat CPU 0 instructions: 480000000 cycles: 519117231 heartbeat IPC: 0.626456 cumulative IPC: 0.825047 (Simulation time: 0 hr 18 min 9 sec) 
Heartbeat CPU 0 instructions: 490000002 cycles: 537655979 heartbeat IPC: 0.539411 cumulative IPC: 0.813995 (Simulation time: 0 hr 18 min 37 sec) 
Heartbeat CPU 0 instructions: 500000000 cycles: 546791250 heartbeat IPC: 1.09466 cumulative IPC: 0.819246 (Simulation time: 0 hr 18 min 58 sec) 
Heartbeat CPU 0 instructions: 510000002 cycles: 555557545 heartbeat IPC: 1.14073 cumulative IPC: 0.824916 (Simulation time: 0 hr 19 min 19 sec) 
Heartbeat CPU 0 instructions: 520000000 cycles: 564619979 heartbeat IPC: 1.10346 cumulative IPC: 0.829904 (Simulation time: 0 hr 19 min 40 sec) 
Heartbeat CPU 0 instructions: 530000002 cycles: 574236745 heartbeat IPC: 1.03985 cumulative IPC: 0.833819 (Simulation time: 0 hr 20 min 2 sec) 
Heartbeat CPU 0 instructions: 540000000 cycles: 583973099 heartbeat IPC: 1.02708 cumulative IPC: 0.8374 (Simulation time: 0 hr 20 min 25 sec) 
Heartbeat CPU 0 instructions: 550000002 cycles: 594079961 heartbeat IPC: 0.989427 cumulative IPC: 0.840269 (Simulation time: 0 hr 20 min 49 sec) 
Heartbeat CPU 0 instructions: 560000000 cycles: 602892477 heartbeat IPC: 1.13475 cumulative IPC: 0.845037 (Simulation time: 0 hr 21 min 10 sec) 
Heartbeat CPU 0 instructions: 570000003 cycles: 617226666 heartbeat IPC: 0.697633 cumulative IPC: 0.841255 (Simulation time: 0 hr 21 min 36 sec) 
Heartbeat CPU 0 instructions: 580000000 cycles: 633474733 heartbeat IPC: 0.615458 cumulative IPC: 0.834874 (Simulation time: 0 hr 22 min 3 sec) 
Heartbeat CPU 0 instructions: 590000002 cycles: 643717194 heartbeat IPC: 0.976328 cumulative IPC: 0.83735 (Simulation time: 0 hr 22 min 26 sec) 
Heartbeat CPU 0 instructions: 600000000 cycles: 654597827 heartbeat IPC: 0.919064 cumulative IPC: 0.838841 (Simulation time: 0 hr 22 min 49 sec) 
Finished CPU 0 instructions: 500000000 cycles: 596060404 cumulative IPC: 0.838841 (Simulation time: 0 hr 22 min 49 sec) 

CPU 0 Branch Prediction Accuracy: 99.5219% MPKI: 0.251582
Number of Branches: 26312578 Number of Mispredictions: 125791
Number of LOAD Instructions: 235643083
Number of LOAD Instructions (ROI): 235643083
Number of STORE Instructions: 37593550
Number of STORE Instructions (ROI): 37593550
Total Destination Memory Operands: 40480968
Total Destination Memory Operands (ROI): 40480968
Total Source Memory Operands: 235643083
Total Source Memory Operands (ROI): 235643083
Number of DEPENDED LOADS: 6699215
Number of DEPENDED LOADS (ROI): 6699215
Number of SQ_ADDED: 40480950
Number of SQ_ADDED (ROI): 40480950
Number of LQ_ADDED: 389176818
Number of LQ_ADDED (ROI): 389176818
Number of Instructions read from trace: 600000259

ChampSim completed all CPUs

Region of Interest Statistics

CPU 0 cumulative IPC: 0.838841 instructions: 500000000 cycles: 596060404
ITLB TOTAL     ACCESS:  109328123  HIT:  109327610  MISS:        513
ITLB LOAD      ACCESS:  109328123  HIT:  109327610  MISS:        513
ITLB RFO       ACCESS:          0  HIT:          0  MISS:          0
ITLB PREFETCH  ACCESS:          0  HIT:          0  MISS:          0
ITLB WRITEBACK ACCESS:          0  HIT:          0  MISS:          0
ITLB PREFETCH  REQUESTED:          0  ISSUED:          0  USEFUL:          0  USELESS:          0
ITLB TOTAL MSHR MERGED:        966
ITLB LOAD MSHR MERGED:        966
ITLB RFO MSHR MERGED:          0
ITLB PREFETCH MSHR MERGED:          0
ITLB WRITEBACK MSHR MERGED:          0
ITLB TOTAL ACCESSES:  109329089 HITS:  109327610 MISSES:       1479
ITLB LOAD ACCESSES:  109329089 HITS:  109327610 MISSES:       1479
ITLB RFO ACCESSES:          0 HITS:          0 MISSES:          0
ITLB PREFETCH ACCESSES:          0 HITS:          0 MISSES:          0
ITLB WRITEBACK ACCESSES:          0 HITS:          0 MISSES:          0
ITLB RQ ACCESS:  500000003
ITLB RQ TO_CACHE:  109329089
ITLB RQ MERGED:  390670914
ITLB RQ FORWARD:          0
ITLB WQ ACCESS:          0
ITLB WQ TO_CACHE:          0
ITLB WQ MERGED:          0
ITLB WQ FORWARD:          0
DTLB TOTAL     ACCESS:  130444878  HIT:  130187172  MISS:     257706
DTLB LOAD      ACCESS:  109042261  HIT:  108821438  MISS:     220823
DTLB RFO       ACCESS:   21402617  HIT:   21365734  MISS:      36883
DTLB PREFETCH  ACCESS:          0  HIT:          0  MISS:          0
DTLB WRITEBACK ACCESS:          0  HIT:          0  MISS:          0
DTLB PREFETCH  REQUESTED:          0  ISSUED:          0  USEFUL:          0  USELESS:          0
DTLB TOTAL MSHR MERGED:     121849
DTLB LOAD MSHR MERGED:      83899
DTLB RFO MSHR MERGED:      37950
DTLB PREFETCH MSHR MERGED:          0
DTLB WRITEBACK MSHR MERGED:          0
DTLB TOTAL ACCESSES:  130566727 HITS:  130187172 MISSES:     379555
DTLB LOAD ACCESSES:  109126160 HITS:  108821438 MISSES:     304722
DTLB RFO ACCESSES:   21440567 HITS:   21365734 MISSES:      74833
DTLB PREFETCH ACCESSES:          0 HITS:          0 MISSES:          0
DTLB WRITEBACK ACCESSES:          0 HITS:          0 MISSES:          0
DTLB RQ ACCESS:  218635189
DTLB RQ TO_CACHE:  130566728
DTLB RQ MERGED:   88068461
DTLB RQ FORWARD:          0
DTLB WQ ACCESS:          0
DTLB WQ TO_CACHE:          0
DTLB WQ MERGED:          0
DTLB WQ FORWARD:          0
L1D TOTAL     ACCESS:  204698803  HIT:  193625533  MISS:   11073270
L1D LOAD      ACCESS:  106315097  HIT:  103158294  MISS:    3156803
L1D RFO       ACCESS:   26955520  HIT:   25205476  MISS:    1750044
L1D PREFETCH  ACCESS:   71428186  HIT:   65261763  MISS:    6166423
L1D WRITEBACK ACCESS:          0  HIT:          0  MISS:          0
L1D PREFETCH  REQUESTED:  108925642  ISSUED:  107264965  USEFUL:    5710353  USELESS:     456064
L1D TOTAL MSHR MERGED:   18243922
L1D LOAD MSHR MERGED:    4602998
L1D RFO MSHR MERGED:    6485071
L1D PREFETCH MSHR MERGED:    7155853
L1D WRITEBACK MSHR MERGED:          0
L1D TOTAL ACCESSES:  223002633 HITS:  193685441 MISSES:   29317192
L1D LOAD ACCESSES:  108949965 HITS:  103182617 MISSES:    5767348
L1D RFO ACCESSES:   33438506 HITS:   25205476 MISSES:    8233030
L1D PREFETCH ACCESSES:   80614162 HITS:   65297348 MISSES:   15316814
L1D WRITEBACK ACCESSES:          0 HITS:          0 MISSES:          0
L1D RQ ACCESS:  184991751
L1D RQ TO_CACHE:  108925642
L1D RQ MERGED:   76041786
L1D RQ FORWARD:          0
L1D WQ ACCESS:   33643426
L1D WQ TO_CACHE:   33438505
L1D WQ MERGED:     204921
L1D WQ FORWARD:      59908
L1I TOTAL     ACCESS:  134014882  HIT:  133990305  MISS:      24577
L1I LOAD      ACCESS:  134014882  HIT:  133990305  MISS:      24577
L1I RFO       ACCESS:          0  HIT:          0  MISS:          0
L1I PREFETCH  ACCESS:          0  HIT:          0  MISS:          0
L1I WRITEBACK ACCESS:          0  HIT:          0  MISS:          0
L1I PREFETCH  REQUESTED:          0  ISSUED:          0  USEFUL:          0  USELESS:          0
L1I TOTAL MSHR MERGED:      30409
L1I LOAD MSHR MERGED:      30409
L1I RFO MSHR MERGED:          0
L1I PREFETCH MSHR MERGED:          0
L1I WRITEBACK MSHR MERGED:          0
L1I TOTAL ACCESSES:  134045291 HITS:  133990305 MISSES:      54986
L1I LOAD ACCESSES:  134045291 HITS:  133990305 MISSES:      54986
L1I RFO ACCESSES:          0 HITS:          0 MISSES:          0
L1I PREFETCH ACCESSES:          0 HITS:          0 MISSES:          0
L1I WRITEBACK ACCESSES:          0 HITS:          0 MISSES:          0
L1I RQ ACCESS:  500000005
L1I RQ TO_CACHE:  134045291
L1I RQ MERGED:  365954714
L1I RQ FORWARD:          0
L1I WQ ACCESS:          0
L1I WQ TO_CACHE:          0
L1I WQ MERGED:          0
L1I WQ FORWARD:          0
L2C TOTAL     ACCESS:   14943685  HIT:    6946216  MISS:    7997469
L2C LOAD      ACCESS:    1188737  HIT:     299392  MISS:     889345
L2C RFO       ACCESS:    1747754  HIT:     369250  MISS:    1378504
L2C PREFETCH  ACCESS:    8325307  HIT:    2604385  MISS:    5720922
L2C WRITEBACK ACCESS:    3681887  HIT:    3673189  MISS:       8698
L2C PREFETCH  REQUESTED:     390390  ISSUED:     390385  USEFUL:     114616  USELESS:    5607141
L2C TOTAL MSHR MERGED:      41795
L2C LOAD MSHR MERGED:       2351
L2C RFO MSHR MERGED:       1366
L2C PREFETCH MSHR MERGED:      38078
L2C WRITEBACK MSHR MERGED:          0
L2C TOTAL ACCESSES:   15106091 HITS:    6946907 MISSES:    8159184
L2C LOAD ACCESSES:    1188927 HITS:     299582 MISSES:     889345
L2C RFO ACCESSES:    1747959 HITS:     369455 MISSES:    1378504
L2C PREFETCH ACCESSES:    8487318 HITS:    2604681 MISSES:    5882637
L2C WRITEBACK ACCESSES:    3681887 HITS:    3673189 MISSES:       8698
L2C RQ ACCESS:    2936886
L2C RQ TO_CACHE:    2936491
L2C RQ MERGED:          0
L2C RQ FORWARD:          0
L2C WQ ACCESS:    3681887
L2C WQ TO_CACHE:    3681887
L2C WQ MERGED:          0
L2C WQ FORWARD:        691
LLC TOTAL     ACCESS:   11183711  HIT:    3024008  MISS:    8159703
LLC LOAD      ACCESS:     886986  HIT:     317238  MISS:     569748
LLC RFO       ACCESS:    1377132  HIT:     231772  MISS:    1145360
LLC PREFETCH  ACCESS:    5814934  HIT:    1175359  MISS:    4639575
LLC WRITEBACK ACCESS:    3104659  HIT:    1299639  MISS:    1805020
LLC PREFETCH  REQUESTED:          0  ISSUED:          0  USEFUL:      33497  USELESS:    4605419
LLC TOTAL MSHR MERGED:      22575
LLC LOAD MSHR MERGED:       6944
LLC RFO MSHR MERGED:        610
LLC PREFETCH MSHR MERGED:      15021
LLC WRITEBACK MSHR MERGED:          0
LLC TOTAL ACCESSES:   11206310 HITS:    3024032 MISSES:    8182278
LLC LOAD ACCESSES:     886994 HITS:     317246 MISSES:     569748
LLC RFO ACCESSES:    1377138 HITS:     231778 MISSES:    1145360
LLC PREFETCH ACCESSES:    5837519 HITS:    1175369 MISSES:    4662150
LLC WRITEBACK ACCESSES:    3104659 HITS:    1299639 MISSES:    1805020
LLC 0 RQ ACCESS:    2264132
LLC 0 RQ TO_CACHE:    2264118
LLC 0 RQ MERGED:          0
LLC 0 RQ FORWARD:          0
LLC WQ ACCESS:    3104659
LLC WQ TO_CACHE:    3104659
LLC WQ MERGED:          0
LLC WQ FORWARD:         24
Major fault: 0 Minor fault: 11519
CPU 0 L1D next line prefetcher final stats
CPU 0 L2C PC-based stride prefetcher final stats
All Misses: 10274573
All Hits: 3520252
SD Algo Stats - Switches: 0 SRR-Repls: 641391 BRR-Repls: 0

DRAM Statistics
 CHANNEL 0
 RQ ROW_BUFFER_HIT:    3870340  ROW_BUFFER_MISS:    2483535
 DBUS_CONGESTED:    4390095
 WQ ROW_BUFFER_HIT:     399620  ROW_BUFFER_MISS:    1774010  FULL:        482

 AVG_CONGESTED_CYCLE: 13
LOADS RETIRED: 190375692
INSTR RETIRED: 500000000
