
*** ChampSim Multicore Out-of-Order Simulator ***

Warmup Instructions: 100000000
Simulation Instructions: 500000000
Number of CPUs: 1
LLC sets: 2048
LLC ways: 16
Clean RRIP Policies: 1213030112130301 Dirty RRIP Policies: 2203130122031301 PSEL Width: 10 Track Set: 4294967295 PSEL Mask: 1 Demote Mask: 3040201130402011DS Algo: 0Window size: 0
Off-chip DRAM Size: 4096 MB Channels: 1 Width: 64-bit Data Rate: 1600 MT/s

CPU 0 runs /mnt/beegfs/iconst01/spec2017/x264.trace.gz
NOT SORTED
TRACE STRING: /mnt/beegfs/iconst01/spec2017/x264.trace.gz
SORTED
TRACE STRING: /mnt/beegfs/iconst01/spec2017/x264.trace.gz
INITIAL
TRACE STRING: /mnt/beegfs/iconst01/spec2017/x264.trace.gz

champsim_seed used: 276

CPU 0 L1D next line prefetcher
CPU 0 L2C IP-based stride prefetcher
Initialize DRRIP state
Assign rand_sets[0]: 454  LLC: 2048
rand_sets[0]: 454
Assign rand_sets[1]: 1662  LLC: 2048
rand_sets[1]: 1662
Assign rand_sets[2]: 1921  LLC: 2048
rand_sets[2]: 1921
Assign rand_sets[3]: 1131  LLC: 2048
rand_sets[3]: 1131
Assign rand_sets[4]: 331  LLC: 2048
rand_sets[4]: 331
Assign rand_sets[5]: 1531  LLC: 2048
rand_sets[5]: 1531
Assign rand_sets[6]: 482  LLC: 2048
rand_sets[6]: 482
Assign rand_sets[7]: 1275  LLC: 2048
rand_sets[7]: 1275
Assign rand_sets[8]: 1876  LLC: 2048
rand_sets[8]: 1876
Assign rand_sets[9]: 2038  LLC: 2048
rand_sets[9]: 2038
Assign rand_sets[10]: 701  LLC: 2048
rand_sets[10]: 701
Assign rand_sets[11]: 479  LLC: 2048
rand_sets[11]: 479
Assign rand_sets[12]: 892  LLC: 2048
rand_sets[12]: 892
Assign rand_sets[13]: 1820  LLC: 2048
rand_sets[13]: 1820
Assign rand_sets[14]: 1505  LLC: 2048
rand_sets[14]: 1505
Assign rand_sets[15]: 1159  LLC: 2048
rand_sets[15]: 1159
Assign rand_sets[16]: 513  LLC: 2048
rand_sets[16]: 513
Assign rand_sets[17]: 703  LLC: 2048
rand_sets[17]: 703
Assign rand_sets[18]: 561  LLC: 2048
rand_sets[18]: 561
Assign rand_sets[19]: 990  LLC: 2048
rand_sets[19]: 990
Assign rand_sets[20]: 342  LLC: 2048
rand_sets[20]: 342
Assign rand_sets[21]: 882  LLC: 2048
rand_sets[21]: 882
Assign rand_sets[22]: 15  LLC: 2048
rand_sets[22]: 15
Assign rand_sets[23]: 71  LLC: 2048
rand_sets[23]: 71
Assign rand_sets[24]: 1127  LLC: 2048
rand_sets[24]: 1127
Assign rand_sets[25]: 1382  LLC: 2048
rand_sets[25]: 1382
Assign rand_sets[26]: 647  LLC: 2048
rand_sets[26]: 647
Assign rand_sets[27]: 857  LLC: 2048
rand_sets[27]: 857
Assign rand_sets[28]: 1450  LLC: 2048
rand_sets[28]: 1450
Assign rand_sets[29]: 1160  LLC: 2048
rand_sets[29]: 1160
Assign rand_sets[30]: 1852  LLC: 2048
rand_sets[30]: 1852
Assign rand_sets[31]: 1881  LLC: 2048
rand_sets[31]: 1881
Assign rand_sets[32]: 1770  LLC: 2048
rand_sets[32]: 1770
Assign rand_sets[33]: 1622  LLC: 2048
rand_sets[33]: 1622
Assign rand_sets[34]: 275  LLC: 2048
rand_sets[34]: 275
Assign rand_sets[35]: 635  LLC: 2048
rand_sets[35]: 635
Assign rand_sets[36]: 466  LLC: 2048
rand_sets[36]: 466
Assign rand_sets[37]: 1413  LLC: 2048
rand_sets[37]: 1413
Assign rand_sets[38]: 417  LLC: 2048
rand_sets[38]: 417
Assign rand_sets[39]: 472  LLC: 2048
rand_sets[39]: 472
Assign rand_sets[40]: 1340  LLC: 2048
rand_sets[40]: 1340
Assign rand_sets[41]: 852  LLC: 2048
rand_sets[41]: 852
Assign rand_sets[42]: 1365  LLC: 2048
rand_sets[42]: 1365
Assign rand_sets[43]: 47  LLC: 2048
rand_sets[43]: 47
Assign rand_sets[44]: 823  LLC: 2048
rand_sets[44]: 823
Assign rand_sets[45]: 686  LLC: 2048
rand_sets[45]: 686
Assign rand_sets[46]: 1637  LLC: 2048
rand_sets[46]: 1637
Assign rand_sets[47]: 1115  LLC: 2048
rand_sets[47]: 1115
Assign rand_sets[48]: 986  LLC: 2048
rand_sets[48]: 986
Assign rand_sets[49]: 258  LLC: 2048
rand_sets[49]: 258
Assign rand_sets[50]: 633  LLC: 2048
rand_sets[50]: 633
Assign rand_sets[51]: 920  LLC: 2048
rand_sets[51]: 920
Assign rand_sets[52]: 204  LLC: 2048
rand_sets[52]: 204
Assign rand_sets[53]: 227  LLC: 2048
rand_sets[53]: 227
Assign rand_sets[54]: 1818  LLC: 2048
rand_sets[54]: 1818
Assign rand_sets[55]: 886  LLC: 2048
rand_sets[55]: 886
Assign rand_sets[56]: 1422  LLC: 2048
rand_sets[56]: 1422
Assign rand_sets[57]: 607  LLC: 2048
rand_sets[57]: 607
Assign rand_sets[58]: 217  LLC: 2048
rand_sets[58]: 217
Assign rand_sets[59]: 1945  LLC: 2048
rand_sets[59]: 1945
Assign rand_sets[60]: 143  LLC: 2048
rand_sets[60]: 143
Assign rand_sets[61]: 1311  LLC: 2048
rand_sets[61]: 1311
Assign rand_sets[62]: 319  LLC: 2048
rand_sets[62]: 319
Assign rand_sets[63]: 1846  LLC: 2048
rand_sets[63]: 1846
 CLEAN-RRIP-POLICY-1: 1-2-1-3-0-3-0-1- CLEAN-RRIP-POLICY-2: 1-2-1-3-0-3-0-1-
 DIRTY-RRIP-POLICY-1: 2-2-0-3-1-3-0-1- DIRTY-RRIP-POLICY-2: 2-2-0-3-1-3-0-1-
 PSEL width: 10
Heartbeat CPU 0 instructions: 10000000 cycles: 4124759 heartbeat IPC: 2.42438 cumulative IPC: 2.42438 (Simulation time: 0 hr 0 min 13 sec) 
Heartbeat CPU 0 instructions: 20000000 cycles: 8233863 heartbeat IPC: 2.43362 cumulative IPC: 2.42899 (Simulation time: 0 hr 0 min 26 sec) 
Heartbeat CPU 0 instructions: 30000003 cycles: 12464696 heartbeat IPC: 2.3636 cumulative IPC: 2.4068 (Simulation time: 0 hr 0 min 39 sec) 
Heartbeat CPU 0 instructions: 40000000 cycles: 16636669 heartbeat IPC: 2.39695 cumulative IPC: 2.40433 (Simulation time: 0 hr 0 min 52 sec) 
Heartbeat CPU 0 instructions: 50000000 cycles: 20699138 heartbeat IPC: 2.46156 cumulative IPC: 2.41556 (Simulation time: 0 hr 1 min 5 sec) 
Heartbeat CPU 0 instructions: 60000000 cycles: 25022626 heartbeat IPC: 2.31295 cumulative IPC: 2.39783 (Simulation time: 0 hr 1 min 18 sec) 
Heartbeat CPU 0 instructions: 70000000 cycles: 29370985 heartbeat IPC: 2.29972 cumulative IPC: 2.3833 (Simulation time: 0 hr 1 min 31 sec) 
Heartbeat CPU 0 instructions: 80000000 cycles: 33721143 heartbeat IPC: 2.29877 cumulative IPC: 2.3724 (Simulation time: 0 hr 1 min 43 sec) 
Heartbeat CPU 0 instructions: 90000002 cycles: 38032141 heartbeat IPC: 2.31965 cumulative IPC: 2.36642 (Simulation time: 0 hr 1 min 56 sec) 
Heartbeat CPU 0 instructions: 100000000 cycles: 42329065 heartbeat IPC: 2.32725 cumulative IPC: 2.36244 (Simulation time: 0 hr 2 min 9 sec) 

Warmup complete CPU 0 instructions: 100000001 cycles: 42329066 (Simulation time: 0 hr 2 min 9 sec) 

Heartbeat CPU 0 instructions: 110000001 cycles: 49382631 heartbeat IPC: 1.41772 cumulative IPC: 1.41772 (Simulation time: 0 hr 2 min 25 sec) 
Heartbeat CPU 0 instructions: 120000000 cycles: 58886467 heartbeat IPC: 1.05221 cumulative IPC: 1.20792 (Simulation time: 0 hr 2 min 44 sec) 
Heartbeat CPU 0 instructions: 130000000 cycles: 63704035 heartbeat IPC: 2.07574 cumulative IPC: 1.40351 (Simulation time: 0 hr 3 min 0 sec) 
Heartbeat CPU 0 instructions: 140000000 cycles: 68623058 heartbeat IPC: 2.03292 cumulative IPC: 1.52126 (Simulation time: 0 hr 3 min 16 sec) 
Heartbeat CPU 0 instructions: 150000002 cycles: 75438414 heartbeat IPC: 1.46728 cumulative IPC: 1.51015 (Simulation time: 0 hr 3 min 33 sec) 
Heartbeat CPU 0 instructions: 160000000 cycles: 83267091 heartbeat IPC: 1.27735 cumulative IPC: 1.46563 (Simulation time: 0 hr 3 min 50 sec) 
Heartbeat CPU 0 instructions: 170000000 cycles: 90670205 heartbeat IPC: 1.35078 cumulative IPC: 1.44804 (Simulation time: 0 hr 4 min 7 sec) 
Heartbeat CPU 0 instructions: 180000000 cycles: 97967533 heartbeat IPC: 1.37036 cumulative IPC: 1.43785 (Simulation time: 0 hr 4 min 23 sec) 
Heartbeat CPU 0 instructions: 190000002 cycles: 105136561 heartbeat IPC: 1.39489 cumulative IPC: 1.43295 (Simulation time: 0 hr 4 min 40 sec) 
Heartbeat CPU 0 instructions: 200000000 cycles: 112371383 heartbeat IPC: 1.3822 cumulative IPC: 1.42771 (Simulation time: 0 hr 4 min 56 sec) 
Heartbeat CPU 0 instructions: 210000000 cycles: 119234408 heartbeat IPC: 1.45708 cumulative IPC: 1.43033 (Simulation time: 0 hr 5 min 12 sec) 
Heartbeat CPU 0 instructions: 220000000 cycles: 126006362 heartbeat IPC: 1.47668 cumulative IPC: 1.43408 (Simulation time: 0 hr 5 min 28 sec) 
Heartbeat CPU 0 instructions: 230000003 cycles: 132737740 heartbeat IPC: 1.48558 cumulative IPC: 1.43792 (Simulation time: 0 hr 5 min 44 sec) 
Heartbeat CPU 0 instructions: 240000000 cycles: 139485599 heartbeat IPC: 1.48195 cumulative IPC: 1.44097 (Simulation time: 0 hr 5 min 59 sec) 
Heartbeat CPU 0 instructions: 250000001 cycles: 146211050 heartbeat IPC: 1.48689 cumulative IPC: 1.44395 (Simulation time: 0 hr 6 min 15 sec) 
Heartbeat CPU 0 instructions: 260000000 cycles: 152917131 heartbeat IPC: 1.49118 cumulative IPC: 1.44681 (Simulation time: 0 hr 6 min 31 sec) 
Heartbeat CPU 0 instructions: 270000001 cycles: 159893276 heartbeat IPC: 1.43346 cumulative IPC: 1.44602 (Simulation time: 0 hr 6 min 47 sec) 
Heartbeat CPU 0 instructions: 280000000 cycles: 167427541 heartbeat IPC: 1.32727 cumulative IPC: 1.43887 (Simulation time: 0 hr 7 min 3 sec) 
Heartbeat CPU 0 instructions: 290000000 cycles: 175351723 heartbeat IPC: 1.26196 cumulative IPC: 1.42833 (Simulation time: 0 hr 7 min 20 sec) 
Heartbeat CPU 0 instructions: 300000000 cycles: 183528123 heartbeat IPC: 1.22303 cumulative IPC: 1.41644 (Simulation time: 0 hr 7 min 37 sec) 
Heartbeat CPU 0 instructions: 310000002 cycles: 191833893 heartbeat IPC: 1.20398 cumulative IPC: 1.40464 (Simulation time: 0 hr 7 min 54 sec) 
Heartbeat CPU 0 instructions: 320000000 cycles: 201838099 heartbeat IPC: 0.999579 cumulative IPC: 1.37923 (Simulation time: 0 hr 8 min 13 sec) 
Heartbeat CPU 0 instructions: 330000002 cycles: 206479257 heartbeat IPC: 2.15464 cumulative IPC: 1.40116 (Simulation time: 0 hr 8 min 28 sec) 
Heartbeat CPU 0 instructions: 340000000 cycles: 211721418 heartbeat IPC: 1.90761 cumulative IPC: 1.41683 (Simulation time: 0 hr 8 min 45 sec) 
Heartbeat CPU 0 instructions: 350000000 cycles: 218914916 heartbeat IPC: 1.39014 cumulative IPC: 1.41574 (Simulation time: 0 hr 9 min 2 sec) 
Heartbeat CPU 0 instructions: 360000000 cycles: 226560562 heartbeat IPC: 1.30793 cumulative IPC: 1.41127 (Simulation time: 0 hr 9 min 18 sec) 
Heartbeat CPU 0 instructions: 370000000 cycles: 233959856 heartbeat IPC: 1.35148 cumulative IPC: 1.40896 (Simulation time: 0 hr 9 min 34 sec) 
Heartbeat CPU 0 instructions: 380000000 cycles: 241227450 heartbeat IPC: 1.37597 cumulative IPC: 1.40775 (Simulation time: 0 hr 9 min 51 sec) 
Heartbeat CPU 0 instructions: 390000000 cycles: 249339269 heartbeat IPC: 1.23277 cumulative IPC: 1.4009 (Simulation time: 0 hr 10 min 8 sec) 
Heartbeat CPU 0 instructions: 400000000 cycles: 257546521 heartbeat IPC: 1.21843 cumulative IPC: 1.39394 (Simulation time: 0 hr 10 min 25 sec) 
Heartbeat CPU 0 instructions: 410000001 cycles: 265360257 heartbeat IPC: 1.2798 cumulative IPC: 1.38994 (Simulation time: 0 hr 10 min 41 sec) 
Heartbeat CPU 0 instructions: 420000000 cycles: 273414866 heartbeat IPC: 1.24153 cumulative IPC: 1.38477 (Simulation time: 0 hr 10 min 58 sec) 
Heartbeat CPU 0 instructions: 430000001 cycles: 281674719 heartbeat IPC: 1.21068 cumulative IPC: 1.37876 (Simulation time: 0 hr 11 min 15 sec) 
Heartbeat CPU 0 instructions: 440000000 cycles: 289719027 heartbeat IPC: 1.24311 cumulative IPC: 1.37435 (Simulation time: 0 hr 11 min 32 sec) 
Heartbeat CPU 0 instructions: 450000001 cycles: 297593824 heartbeat IPC: 1.26987 cumulative IPC: 1.37113 (Simulation time: 0 hr 11 min 49 sec) 
Heartbeat CPU 0 instructions: 460000000 cycles: 307555766 heartbeat IPC: 1.00382 cumulative IPC: 1.35733 (Simulation time: 0 hr 12 min 8 sec) 
Heartbeat CPU 0 instructions: 470000002 cycles: 312189316 heartbeat IPC: 2.15817 cumulative IPC: 1.37108 (Simulation time: 0 hr 12 min 24 sec) 
Heartbeat CPU 0 instructions: 480000000 cycles: 317456985 heartbeat IPC: 1.89837 cumulative IPC: 1.38118 (Simulation time: 0 hr 12 min 40 sec) 
Heartbeat CPU 0 instructions: 490000001 cycles: 324769746 heartbeat IPC: 1.36747 cumulative IPC: 1.38082 (Simulation time: 0 hr 12 min 58 sec) 
Heartbeat CPU 0 instructions: 500000000 cycles: 333497975 heartbeat IPC: 1.14571 cumulative IPC: 1.37377 (Simulation time: 0 hr 13 min 17 sec) 
Heartbeat CPU 0 instructions: 510000002 cycles: 342228126 heartbeat IPC: 1.14546 cumulative IPC: 1.36713 (Simulation time: 0 hr 13 min 36 sec) 
Heartbeat CPU 0 instructions: 520000000 cycles: 350956430 heartbeat IPC: 1.1457 cumulative IPC: 1.36086 (Simulation time: 0 hr 13 min 55 sec) 
Heartbeat CPU 0 instructions: 530000000 cycles: 359661955 heartbeat IPC: 1.1487 cumulative IPC: 1.35504 (Simulation time: 0 hr 14 min 15 sec) 
Heartbeat CPU 0 instructions: 540000000 cycles: 367917632 heartbeat IPC: 1.21129 cumulative IPC: 1.3514 (Simulation time: 0 hr 14 min 33 sec) 
Heartbeat CPU 0 instructions: 550000000 cycles: 374954529 heartbeat IPC: 1.42108 cumulative IPC: 1.35287 (Simulation time: 0 hr 14 min 50 sec) 
Heartbeat CPU 0 instructions: 560000000 cycles: 381563093 heartbeat IPC: 1.51319 cumulative IPC: 1.356 (Simulation time: 0 hr 15 min 6 sec) 
Heartbeat CPU 0 instructions: 570000002 cycles: 388147199 heartbeat IPC: 1.51881 cumulative IPC: 1.3591 (Simulation time: 0 hr 15 min 23 sec) 
Heartbeat CPU 0 instructions: 580000000 cycles: 394790906 heartbeat IPC: 1.50518 cumulative IPC: 1.36185 (Simulation time: 0 hr 15 min 39 sec) 
Heartbeat CPU 0 instructions: 590000002 cycles: 401477921 heartbeat IPC: 1.49544 cumulative IPC: 1.36434 (Simulation time: 0 hr 15 min 55 sec) 
Heartbeat CPU 0 instructions: 600000000 cycles: 408288932 heartbeat IPC: 1.46821 cumulative IPC: 1.36627 (Simulation time: 0 hr 16 min 12 sec) 
Finished CPU 0 instructions: 500000000 cycles: 365959874 cumulative IPC: 1.36627 (Simulation time: 0 hr 16 min 12 sec) 

CPU 0 Branch Prediction Accuracy: 93.4682% MPKI: 2.44079
Number of Branches: 18683822 Number of Mispredictions: 1220394
Number of LOAD Instructions: 142551610
Number of LOAD Instructions (ROI): 142551610
Number of STORE Instructions: 44807454
Number of STORE Instructions (ROI): 44807454
Total Destination Memory Operands: 48357071
Total Destination Memory Operands (ROI): 48357071
Total Source Memory Operands: 142551610
Total Source Memory Operands (ROI): 142551610
Number of DEPENDED LOADS: 7395165
Number of DEPENDED LOADS (ROI): 7395165
Number of SQ_ADDED: 48357051
Number of SQ_ADDED (ROI): 48357051
Number of LQ_ADDED: 157218617
Number of LQ_ADDED (ROI): 157218617
Number of Instructions read from trace: 600000256

ChampSim completed all CPUs

Region of Interest Statistics

CPU 0 cumulative IPC: 1.36627 instructions: 500000000 cycles: 365959874
ITLB TOTAL     ACCESS:   88176458  HIT:   88176389  MISS:         69
ITLB LOAD      ACCESS:   88176458  HIT:   88176389  MISS:         69
ITLB RFO       ACCESS:          0  HIT:          0  MISS:          0
ITLB PREFETCH  ACCESS:          0  HIT:          0  MISS:          0
ITLB WRITEBACK ACCESS:          0  HIT:          0  MISS:          0
ITLB PREFETCH  REQUESTED:          0  ISSUED:          0  USEFUL:          0  USELESS:          0
ITLB TOTAL MSHR MERGED:         85
ITLB LOAD MSHR MERGED:         85
ITLB RFO MSHR MERGED:          0
ITLB PREFETCH MSHR MERGED:          0
ITLB WRITEBACK MSHR MERGED:          0
ITLB TOTAL ACCESSES:   88176543 HITS:   88176389 MISSES:        154
ITLB LOAD ACCESSES:   88176543 HITS:   88176389 MISSES:        154
ITLB RFO ACCESSES:          0 HITS:          0 MISSES:          0
ITLB PREFETCH ACCESSES:          0 HITS:          0 MISSES:          0
ITLB WRITEBACK ACCESSES:          0 HITS:          0 MISSES:          0
ITLB RQ ACCESS:  500000000
ITLB RQ TO_CACHE:   88176543
ITLB RQ MERGED:  411823457
ITLB RQ FORWARD:          0
ITLB WQ ACCESS:          0
ITLB WQ TO_CACHE:          0
ITLB WQ MERGED:          0
ITLB WQ FORWARD:          0
DTLB TOTAL     ACCESS:   88203622  HIT:   88076205  MISS:     127417
DTLB LOAD      ACCESS:   59485596  HIT:   59393132  MISS:      92464
DTLB RFO       ACCESS:   28718026  HIT:   28683073  MISS:      34953
DTLB PREFETCH  ACCESS:          0  HIT:          0  MISS:          0
DTLB WRITEBACK ACCESS:          0  HIT:          0  MISS:          0
DTLB PREFETCH  REQUESTED:          0  ISSUED:          0  USEFUL:          0  USELESS:          0
DTLB TOTAL MSHR MERGED:     141039
DTLB LOAD MSHR MERGED:     107662
DTLB RFO MSHR MERGED:      33377
DTLB PREFETCH MSHR MERGED:          0
DTLB WRITEBACK MSHR MERGED:          0
DTLB TOTAL ACCESSES:   88344661 HITS:   88076205 MISSES:     268456
DTLB LOAD ACCESSES:   59593258 HITS:   59393132 MISSES:     200126
DTLB RFO ACCESSES:   28751403 HITS:   28683073 MISSES:      68330
DTLB PREFETCH ACCESSES:          0 HITS:          0 MISSES:          0
DTLB WRITEBACK ACCESSES:          0 HITS:          0 MISSES:          0
DTLB RQ ACCESS:  154558725
DTLB RQ TO_CACHE:   88344661
DTLB RQ MERGED:   66214064
DTLB RQ FORWARD:          0
DTLB WQ ACCESS:          0
DTLB WQ TO_CACHE:          0
DTLB WQ MERGED:          0
DTLB WQ FORWARD:          0
L1D TOTAL     ACCESS:  128062996  HIT:  124837497  MISS:    3225499
L1D LOAD      ACCESS:   53172198  HIT:   51976958  MISS:    1195240
L1D RFO       ACCESS:   37364763  HIT:   36750568  MISS:     614195
L1D PREFETCH  ACCESS:   37526035  HIT:   36109971  MISS:    1416064
L1D WRITEBACK ACCESS:          0  HIT:          0  MISS:          0
L1D PREFETCH  REQUESTED:   53657347  ISSUED:   52457149  USEFUL:     352155  USELESS:    1063874
L1D TOTAL MSHR MERGED:    2834572
L1D LOAD MSHR MERGED:     523906
L1D RFO MSHR MERGED:    1589711
L1D PREFETCH MSHR MERGED:     720955
L1D WRITEBACK MSHR MERGED:          0
L1D TOTAL ACCESSES:  130932455 HITS:  124872384 MISSES:    6060071
L1D LOAD ACCESSES:   53660239 HITS:   51979850 MISSES:    1680389
L1D RFO ACCESSES:   38952812 HITS:   36750568 MISSES:    2202244
L1D PREFETCH ACCESSES:   38319404 HITS:   36141966 MISSES:    2177438
L1D WRITEBACK ACCESSES:          0 HITS:          0 MISSES:          0
L1D RQ ACCESS:  113713833
L1D RQ TO_CACHE:   53657347
L1D RQ MERGED:   60053594
L1D RQ FORWARD:          0
L1D WQ ACCESS:   40844891
L1D WQ TO_CACHE:   38952812
L1D WQ MERGED:    1892079
L1D WQ FORWARD:      34887
L1I TOTAL     ACCESS:  108368362  HIT:  107809227  MISS:     559135
L1I LOAD      ACCESS:  108368362  HIT:  107809227  MISS:     559135
L1I RFO       ACCESS:          0  HIT:          0  MISS:          0
L1I PREFETCH  ACCESS:          0  HIT:          0  MISS:          0
L1I WRITEBACK ACCESS:          0  HIT:          0  MISS:          0
L1I PREFETCH  REQUESTED:          0  ISSUED:          0  USEFUL:          0  USELESS:          0
L1I TOTAL MSHR MERGED:     525490
L1I LOAD MSHR MERGED:     525490
L1I RFO MSHR MERGED:          0
L1I PREFETCH MSHR MERGED:          0
L1I WRITEBACK MSHR MERGED:          0
L1I TOTAL ACCESSES:  108893852 HITS:  107809227 MISSES:    1084625
L1I LOAD ACCESSES:  108893852 HITS:  107809227 MISSES:    1084625
L1I RFO ACCESSES:          0 HITS:          0 MISSES:          0
L1I PREFETCH ACCESSES:          0 HITS:          0 MISSES:          0
L1I WRITEBACK ACCESSES:          0 HITS:          0 MISSES:          0
L1I RQ ACCESS:  500000002
L1I RQ TO_CACHE:  108893852
L1I RQ MERGED:  391106150
L1I RQ FORWARD:          0
L1I WQ ACCESS:          0
L1I WQ TO_CACHE:          0
L1I WQ MERGED:          0
L1I WQ FORWARD:          0
L2C TOTAL     ACCESS:    4691684  HIT:    3865663  MISS:     826021
L2C LOAD      ACCESS:    1715511  HIT:    1562456  MISS:     153055
L2C RFO       ACCESS:     611099  HIT:     421177  MISS:     189922
L2C PREFETCH  ACCESS:    1662146  HIT:    1181290  MISS:     480856
L2C WRITEBACK ACCESS:     702928  HIT:     700740  MISS:       2188
L2C PREFETCH  REQUESTED:     256316  ISSUED:     256316  USEFUL:     172917  USELESS:     308605
L2C TOTAL MSHR MERGED:      13440
L2C LOAD MSHR MERGED:       4114
L2C RFO MSHR MERGED:          0
L2C PREFETCH MSHR MERGED:       9326
L2C WRITEBACK MSHR MERGED:          0
L2C TOTAL ACCESSES:    4712166 HITS:    3867271 MISSES:     844895
L2C LOAD ACCESSES:    1715618 HITS:    1562563 MISSES:     153055
L2C RFO ACCESSES:     612533 HITS:     422611 MISSES:     189922
L2C PREFETCH ACCESSES:    1681087 HITS:    1181357 MISSES:     499730
L2C WRITEBACK ACCESSES:     702928 HITS:     700740 MISSES:       2188
L2C RQ ACCESS:    2328151
L2C RQ TO_CACHE:    2326610
L2C RQ MERGED:          0
L2C RQ FORWARD:          0
L2C WQ ACCESS:     702928
L2C WQ TO_CACHE:     702928
L2C WQ MERGED:          0
L2C WQ FORWARD:       1608
LLC TOTAL     ACCESS:    1047495  HIT:     282764  MISS:     764731
LLC LOAD      ACCESS:     148938  HIT:      89774  MISS:      59164
LLC RFO       ACCESS:     189914  HIT:       7182  MISS:     182732
LLC PREFETCH  ACCESS:     487766  HIT:     146650  MISS:     341116
LLC WRITEBACK ACCESS:     220877  HIT:      39158  MISS:     181719
LLC PREFETCH  REQUESTED:          0  ISSUED:          0  USEFUL:       2280  USELESS:     339497
LLC TOTAL MSHR MERGED:       1864
LLC LOAD MSHR MERGED:        681
LLC RFO MSHR MERGED:          0
LLC PREFETCH MSHR MERGED:       1183
LLC WRITEBACK MSHR MERGED:          0
LLC TOTAL ACCESSES:    1049370 HITS:     282775 MISSES:     766595
LLC LOAD ACCESSES:     148941 HITS:      89777 MISSES:      59164
LLC RFO ACCESSES:     189922 HITS:       7190 MISSES:     182732
LLC PREFETCH ACCESSES:     489630 HITS:     146650 MISSES:     342980
LLC WRITEBACK ACCESSES:     220877 HITS:      39158 MISSES:     181719
LLC 0 RQ ACCESS:     338863
LLC 0 RQ TO_CACHE:     338852
LLC 0 RQ MERGED:          0
LLC 0 RQ FORWARD:          0
LLC WQ ACCESS:     220877
LLC WQ TO_CACHE:     220877
LLC WQ MERGED:          0
LLC WQ FORWARD:         11
Major fault: 0 Minor fault: 6811
CPU 0 L1D next line prefetcher final stats
CPU 0 L2C PC-based stride prefetcher final stats
All Misses: 904224
All Hits: 350254
SD Algo Stats - Switches: 0 SRR-Repls: 66638 BRR-Repls: 0

DRAM Statistics
 CHANNEL 0
 RQ ROW_BUFFER_HIT:     294663  ROW_BUFFER_MISS:     288273
 DBUS_CONGESTED:     403984
 WQ ROW_BUFFER_HIT:      25174  ROW_BUFFER_MISS:     191663  FULL:          0

 AVG_CONGESTED_CYCLE: 13
LOADS RETIRED: 119922929
INSTR RETIRED: 500000000
