
*** ChampSim Multicore Out-of-Order Simulator ***

Warmup Instructions: 100000000
Simulation Instructions: 500000000
Number of CPUs: 1
LLC sets: 2048
LLC ways: 16
Clean RRIP Policies: 12210000122100 Dirty RRIP Policies: 2010000020100 PSEL Width: 10 Track Set: 4294967295 PSEL Mask: 1 Demote Mask: 1241142012411420DS Algo: 0Window size: 0
Off-chip DRAM Size: 4096 MB Channels: 1 Width: 64-bit Data Rate: 1600 MT/s

CPU 0 runs /mnt/beegfs/iconst01/spec2017/cactuBSSN.trace.gz
NOT SORTED
TRACE STRING: /mnt/beegfs/iconst01/spec2017/cactuBSSN.trace.gz
SORTED
TRACE STRING: /mnt/beegfs/iconst01/spec2017/cactuBSSN.trace.gz
INITIAL
TRACE STRING: /mnt/beegfs/iconst01/spec2017/cactuBSSN.trace.gz

champsim_seed used: 838

CPU 0 L1D next line prefetcher
CPU 0 L2C IP-based stride prefetcher
Initialize DRRIP state
Assign rand_sets[0]: 454  LLC: 2048
rand_sets[0]: 454
Assign rand_sets[1]: 1662  LLC: 2048
rand_sets[1]: 1662
Assign rand_sets[2]: 1921  LLC: 2048
rand_sets[2]: 1921
Assign rand_sets[3]: 1131  LLC: 2048
rand_sets[3]: 1131
Assign rand_sets[4]: 331  LLC: 2048
rand_sets[4]: 331
Assign rand_sets[5]: 1531  LLC: 2048
rand_sets[5]: 1531
Assign rand_sets[6]: 482  LLC: 2048
rand_sets[6]: 482
Assign rand_sets[7]: 1275  LLC: 2048
rand_sets[7]: 1275
Assign rand_sets[8]: 1876  LLC: 2048
rand_sets[8]: 1876
Assign rand_sets[9]: 2038  LLC: 2048
rand_sets[9]: 2038
Assign rand_sets[10]: 701  LLC: 2048
rand_sets[10]: 701
Assign rand_sets[11]: 479  LLC: 2048
rand_sets[11]: 479
Assign rand_sets[12]: 892  LLC: 2048
rand_sets[12]: 892
Assign rand_sets[13]: 1820  LLC: 2048
rand_sets[13]: 1820
Assign rand_sets[14]: 1505  LLC: 2048
rand_sets[14]: 1505
Assign rand_sets[15]: 1159  LLC: 2048
rand_sets[15]: 1159
Assign rand_sets[16]: 513  LLC: 2048
rand_sets[16]: 513
Assign rand_sets[17]: 703  LLC: 2048
rand_sets[17]: 703
Assign rand_sets[18]: 561  LLC: 2048
rand_sets[18]: 561
Assign rand_sets[19]: 990  LLC: 2048
rand_sets[19]: 990
Assign rand_sets[20]: 342  LLC: 2048
rand_sets[20]: 342
Assign rand_sets[21]: 882  LLC: 2048
rand_sets[21]: 882
Assign rand_sets[22]: 15  LLC: 2048
rand_sets[22]: 15
Assign rand_sets[23]: 71  LLC: 2048
rand_sets[23]: 71
Assign rand_sets[24]: 1127  LLC: 2048
rand_sets[24]: 1127
Assign rand_sets[25]: 1382  LLC: 2048
rand_sets[25]: 1382
Assign rand_sets[26]: 647  LLC: 2048
rand_sets[26]: 647
Assign rand_sets[27]: 857  LLC: 2048
rand_sets[27]: 857
Assign rand_sets[28]: 1450  LLC: 2048
rand_sets[28]: 1450
Assign rand_sets[29]: 1160  LLC: 2048
rand_sets[29]: 1160
Assign rand_sets[30]: 1852  LLC: 2048
rand_sets[30]: 1852
Assign rand_sets[31]: 1881  LLC: 2048
rand_sets[31]: 1881
Assign rand_sets[32]: 1770  LLC: 2048
rand_sets[32]: 1770
Assign rand_sets[33]: 1622  LLC: 2048
rand_sets[33]: 1622
Assign rand_sets[34]: 275  LLC: 2048
rand_sets[34]: 275
Assign rand_sets[35]: 635  LLC: 2048
rand_sets[35]: 635
Assign rand_sets[36]: 466  LLC: 2048
rand_sets[36]: 466
Assign rand_sets[37]: 1413  LLC: 2048
rand_sets[37]: 1413
Assign rand_sets[38]: 417  LLC: 2048
rand_sets[38]: 417
Assign rand_sets[39]: 472  LLC: 2048
rand_sets[39]: 472
Assign rand_sets[40]: 1340  LLC: 2048
rand_sets[40]: 1340
Assign rand_sets[41]: 852  LLC: 2048
rand_sets[41]: 852
Assign rand_sets[42]: 1365  LLC: 2048
rand_sets[42]: 1365
Assign rand_sets[43]: 47  LLC: 2048
rand_sets[43]: 47
Assign rand_sets[44]: 823  LLC: 2048
rand_sets[44]: 823
Assign rand_sets[45]: 686  LLC: 2048
rand_sets[45]: 686
Assign rand_sets[46]: 1637  LLC: 2048
rand_sets[46]: 1637
Assign rand_sets[47]: 1115  LLC: 2048
rand_sets[47]: 1115
Assign rand_sets[48]: 986  LLC: 2048
rand_sets[48]: 986
Assign rand_sets[49]: 258  LLC: 2048
rand_sets[49]: 258
Assign rand_sets[50]: 633  LLC: 2048
rand_sets[50]: 633
Assign rand_sets[51]: 920  LLC: 2048
rand_sets[51]: 920
Assign rand_sets[52]: 204  LLC: 2048
rand_sets[52]: 204
Assign rand_sets[53]: 227  LLC: 2048
rand_sets[53]: 227
Assign rand_sets[54]: 1818  LLC: 2048
rand_sets[54]: 1818
Assign rand_sets[55]: 886  LLC: 2048
rand_sets[55]: 886
Assign rand_sets[56]: 1422  LLC: 2048
rand_sets[56]: 1422
Assign rand_sets[57]: 607  LLC: 2048
rand_sets[57]: 607
Assign rand_sets[58]: 217  LLC: 2048
rand_sets[58]: 217
Assign rand_sets[59]: 1945  LLC: 2048
rand_sets[59]: 1945
Assign rand_sets[60]: 143  LLC: 2048
rand_sets[60]: 143
Assign rand_sets[61]: 1311  LLC: 2048
rand_sets[61]: 1311
Assign rand_sets[62]: 319  LLC: 2048
rand_sets[62]: 319
Assign rand_sets[63]: 1846  LLC: 2048
rand_sets[63]: 1846
 CLEAN-RRIP-POLICY-1: 0-0-1-2-2-1-0-0- CLEAN-RRIP-POLICY-2: 0-0-1-2-2-1-0-0-
 DIRTY-RRIP-POLICY-1: 0-0-0-2-0-1-0-0- DIRTY-RRIP-POLICY-2: 0-0-0-2-0-1-0-0-
 PSEL width: 10
Heartbeat CPU 0 instructions: 10000000 cycles: 6587903 heartbeat IPC: 1.51793 cumulative IPC: 1.51793 (Simulation time: 0 hr 0 min 24 sec) 
Heartbeat CPU 0 instructions: 20000000 cycles: 13179406 heartbeat IPC: 1.5171 cumulative IPC: 1.51752 (Simulation time: 0 hr 0 min 49 sec) 
Heartbeat CPU 0 instructions: 30000003 cycles: 19772661 heartbeat IPC: 1.5167 cumulative IPC: 1.51725 (Simulation time: 0 hr 1 min 14 sec) 
Heartbeat CPU 0 instructions: 40000000 cycles: 26364321 heartbeat IPC: 1.51707 cumulative IPC: 1.5172 (Simulation time: 0 hr 1 min 39 sec) 
Heartbeat CPU 0 instructions: 50000001 cycles: 32956956 heartbeat IPC: 1.51684 cumulative IPC: 1.51713 (Simulation time: 0 hr 2 min 4 sec) 
Heartbeat CPU 0 instructions: 60000000 cycles: 39555712 heartbeat IPC: 1.51544 cumulative IPC: 1.51685 (Simulation time: 0 hr 2 min 29 sec) 
Heartbeat CPU 0 instructions: 70000003 cycles: 46154043 heartbeat IPC: 1.51554 cumulative IPC: 1.51666 (Simulation time: 0 hr 2 min 54 sec) 
Heartbeat CPU 0 instructions: 80000000 cycles: 52752030 heartbeat IPC: 1.51561 cumulative IPC: 1.51653 (Simulation time: 0 hr 3 min 20 sec) 
Heartbeat CPU 0 instructions: 90000002 cycles: 59347598 heartbeat IPC: 1.51617 cumulative IPC: 1.51649 (Simulation time: 0 hr 3 min 45 sec) 
Heartbeat CPU 0 instructions: 100000000 cycles: 65942645 heartbeat IPC: 1.51629 cumulative IPC: 1.51647 (Simulation time: 0 hr 4 min 10 sec) 

Warmup complete CPU 0 instructions: 100000002 cycles: 65942646 (Simulation time: 0 hr 4 min 10 sec) 

Heartbeat CPU 0 instructions: 110000000 cycles: 79160010 heartbeat IPC: 0.75658 cumulative IPC: 0.75658 (Simulation time: 0 hr 4 min 41 sec) 
Heartbeat CPU 0 instructions: 120000000 cycles: 92340078 heartbeat IPC: 0.758721 cumulative IPC: 0.757649 (Simulation time: 0 hr 5 min 11 sec) 
Heartbeat CPU 0 instructions: 130000001 cycles: 105592411 heartbeat IPC: 0.754584 cumulative IPC: 0.756625 (Simulation time: 0 hr 5 min 42 sec) 
Heartbeat CPU 0 instructions: 140000000 cycles: 118752130 heartbeat IPC: 0.759895 cumulative IPC: 0.75744 (Simulation time: 0 hr 6 min 13 sec) 
Heartbeat CPU 0 instructions: 150000001 cycles: 131926893 heartbeat IPC: 0.759027 cumulative IPC: 0.757757 (Simulation time: 0 hr 6 min 44 sec) 
Heartbeat CPU 0 instructions: 160000000 cycles: 145154440 heartbeat IPC: 0.755998 cumulative IPC: 0.757463 (Simulation time: 0 hr 7 min 15 sec) 
Heartbeat CPU 0 instructions: 170000000 cycles: 158343307 heartbeat IPC: 0.758215 cumulative IPC: 0.75757 (Simulation time: 0 hr 7 min 45 sec) 
Heartbeat CPU 0 instructions: 180000000 cycles: 171532478 heartbeat IPC: 0.758198 cumulative IPC: 0.757649 (Simulation time: 0 hr 8 min 16 sec) 
Heartbeat CPU 0 instructions: 190000000 cycles: 184689381 heartbeat IPC: 0.760057 cumulative IPC: 0.757916 (Simulation time: 0 hr 8 min 47 sec) 
Heartbeat CPU 0 instructions: 200000000 cycles: 197945145 heartbeat IPC: 0.754389 cumulative IPC: 0.757561 (Simulation time: 0 hr 9 min 18 sec) 
Heartbeat CPU 0 instructions: 210000002 cycles: 211132736 heartbeat IPC: 0.758289 cumulative IPC: 0.757627 (Simulation time: 0 hr 9 min 49 sec) 
Heartbeat CPU 0 instructions: 220000000 cycles: 224317419 heartbeat IPC: 0.758456 cumulative IPC: 0.757696 (Simulation time: 0 hr 10 min 19 sec) 
Heartbeat CPU 0 instructions: 230000003 cycles: 237563703 heartbeat IPC: 0.754929 cumulative IPC: 0.757483 (Simulation time: 0 hr 10 min 50 sec) 
Heartbeat CPU 0 instructions: 240000000 cycles: 250740901 heartbeat IPC: 0.758886 cumulative IPC: 0.757583 (Simulation time: 0 hr 11 min 21 sec) 
Heartbeat CPU 0 instructions: 250000001 cycles: 263952924 heartbeat IPC: 0.756886 cumulative IPC: 0.757536 (Simulation time: 0 hr 11 min 52 sec) 
Heartbeat CPU 0 instructions: 260000000 cycles: 277162811 heartbeat IPC: 0.757009 cumulative IPC: 0.757503 (Simulation time: 0 hr 12 min 22 sec) 
Heartbeat CPU 0 instructions: 270000003 cycles: 290398448 heartbeat IPC: 0.755536 cumulative IPC: 0.757387 (Simulation time: 0 hr 12 min 53 sec) 
Heartbeat CPU 0 instructions: 280000000 cycles: 303589166 heartbeat IPC: 0.758109 cumulative IPC: 0.757427 (Simulation time: 0 hr 13 min 23 sec) 
Heartbeat CPU 0 instructions: 290000000 cycles: 316746042 heartbeat IPC: 0.760059 cumulative IPC: 0.757565 (Simulation time: 0 hr 13 min 53 sec) 
Heartbeat CPU 0 instructions: 300000000 cycles: 329990788 heartbeat IPC: 0.755016 cumulative IPC: 0.757438 (Simulation time: 0 hr 14 min 23 sec) 
Heartbeat CPU 0 instructions: 310000001 cycles: 343177496 heartbeat IPC: 0.758339 cumulative IPC: 0.757481 (Simulation time: 0 hr 14 min 54 sec) 
Heartbeat CPU 0 instructions: 320000000 cycles: 356361337 heartbeat IPC: 0.758504 cumulative IPC: 0.757527 (Simulation time: 0 hr 15 min 24 sec) 
Heartbeat CPU 0 instructions: 330000002 cycles: 369557391 heartbeat IPC: 0.757802 cumulative IPC: 0.757539 (Simulation time: 0 hr 15 min 54 sec) 
Heartbeat CPU 0 instructions: 340000000 cycles: 382790153 heartbeat IPC: 0.7557 cumulative IPC: 0.757462 (Simulation time: 0 hr 16 min 24 sec) 
Heartbeat CPU 0 instructions: 350000000 cycles: 396041346 heartbeat IPC: 0.754649 cumulative IPC: 0.757349 (Simulation time: 0 hr 16 min 54 sec) 
Heartbeat CPU 0 instructions: 360000000 cycles: 409264587 heartbeat IPC: 0.756244 cumulative IPC: 0.757307 (Simulation time: 0 hr 17 min 24 sec) 
Heartbeat CPU 0 instructions: 370000002 cycles: 422517882 heartbeat IPC: 0.754529 cumulative IPC: 0.757203 (Simulation time: 0 hr 17 min 54 sec) 
Heartbeat CPU 0 instructions: 380000000 cycles: 435707488 heartbeat IPC: 0.758173 cumulative IPC: 0.757238 (Simulation time: 0 hr 18 min 24 sec) 
Heartbeat CPU 0 instructions: 390000000 cycles: 448886102 heartbeat IPC: 0.758805 cumulative IPC: 0.757292 (Simulation time: 0 hr 18 min 53 sec) 
Heartbeat CPU 0 instructions: 400000000 cycles: 462083384 heartbeat IPC: 0.757732 cumulative IPC: 0.757307 (Simulation time: 0 hr 19 min 23 sec) 
Heartbeat CPU 0 instructions: 410000001 cycles: 475338036 heartbeat IPC: 0.754452 cumulative IPC: 0.757214 (Simulation time: 0 hr 19 min 53 sec) 
Heartbeat CPU 0 instructions: 420000000 cycles: 488511899 heartbeat IPC: 0.759079 cumulative IPC: 0.757272 (Simulation time: 0 hr 20 min 23 sec) 
Heartbeat CPU 0 instructions: 430000001 cycles: 501690910 heartbeat IPC: 0.758782 cumulative IPC: 0.757318 (Simulation time: 0 hr 20 min 53 sec) 
Heartbeat CPU 0 instructions: 440000000 cycles: 514856875 heartbeat IPC: 0.759534 cumulative IPC: 0.757383 (Simulation time: 0 hr 21 min 23 sec) 
Heartbeat CPU 0 instructions: 450000002 cycles: 528166510 heartbeat IPC: 0.751336 cumulative IPC: 0.757209 (Simulation time: 0 hr 21 min 52 sec) 
Heartbeat CPU 0 instructions: 460000000 cycles: 541366591 heartbeat IPC: 0.757571 cumulative IPC: 0.757219 (Simulation time: 0 hr 22 min 22 sec) 
Heartbeat CPU 0 instructions: 470000003 cycles: 554548972 heartbeat IPC: 0.758589 cumulative IPC: 0.757256 (Simulation time: 0 hr 22 min 52 sec) 
Heartbeat CPU 0 instructions: 480000000 cycles: 567783247 heartbeat IPC: 0.755614 cumulative IPC: 0.757213 (Simulation time: 0 hr 23 min 22 sec) 
Heartbeat CPU 0 instructions: 490000000 cycles: 580991043 heartbeat IPC: 0.757129 cumulative IPC: 0.75721 (Simulation time: 0 hr 23 min 52 sec) 
Heartbeat CPU 0 instructions: 500000000 cycles: 594189354 heartbeat IPC: 0.757673 cumulative IPC: 0.757222 (Simulation time: 0 hr 24 min 21 sec) 
Heartbeat CPU 0 instructions: 510000001 cycles: 607348657 heartbeat IPC: 0.759919 cumulative IPC: 0.757288 (Simulation time: 0 hr 24 min 51 sec) 
Heartbeat CPU 0 instructions: 520000000 cycles: 620622786 heartbeat IPC: 0.753345 cumulative IPC: 0.757193 (Simulation time: 0 hr 25 min 21 sec) 
Heartbeat CPU 0 instructions: 530000000 cycles: 633855246 heartbeat IPC: 0.755717 cumulative IPC: 0.757159 (Simulation time: 0 hr 25 min 51 sec) 
Heartbeat CPU 0 instructions: 540000000 cycles: 647075672 heartbeat IPC: 0.756405 cumulative IPC: 0.757142 (Simulation time: 0 hr 26 min 21 sec) 
Heartbeat CPU 0 instructions: 550000002 cycles: 660333054 heartbeat IPC: 0.754297 cumulative IPC: 0.757078 (Simulation time: 0 hr 26 min 51 sec) 
Heartbeat CPU 0 instructions: 560000000 cycles: 673523833 heartbeat IPC: 0.758105 cumulative IPC: 0.7571 (Simulation time: 0 hr 27 min 20 sec) 
Heartbeat CPU 0 instructions: 570000001 cycles: 686736475 heartbeat IPC: 0.756851 cumulative IPC: 0.757095 (Simulation time: 0 hr 27 min 50 sec) 
Heartbeat CPU 0 instructions: 580000000 cycles: 699926267 heartbeat IPC: 0.758162 cumulative IPC: 0.757117 (Simulation time: 0 hr 28 min 20 sec) 
Heartbeat CPU 0 instructions: 590000003 cycles: 713142950 heartbeat IPC: 0.75662 cumulative IPC: 0.757107 (Simulation time: 0 hr 28 min 50 sec) 
Heartbeat CPU 0 instructions: 600000000 cycles: 726388583 heartbeat IPC: 0.754966 cumulative IPC: 0.757064 (Simulation time: 0 hr 29 min 19 sec) 
Finished CPU 0 instructions: 500000000 cycles: 660445947 cumulative IPC: 0.757064 (Simulation time: 0 hr 29 min 19 sec) 

CPU 0 Branch Prediction Accuracy: 99.968% MPKI: 0.002246
Number of Branches: 3513331 Number of Mispredictions: 1123
Number of LOAD Instructions: 287251172
Number of LOAD Instructions (ROI): 287251172
Number of STORE Instructions: 51060820
Number of STORE Instructions (ROI): 51060820
Total Destination Memory Operands: 51166221
Total Destination Memory Operands (ROI): 51166221
Total Source Memory Operands: 287251172
Total Source Memory Operands (ROI): 287251172
Number of DEPENDED LOADS: 9555195
Number of DEPENDED LOADS (ROI): 9555195
Number of SQ_ADDED: 51166208
Number of SQ_ADDED (ROI): 51166208
Number of LQ_ADDED: 290420246
Number of LQ_ADDED (ROI): 290420246
Number of Instructions read from trace: 600000257

ChampSim completed all CPUs

Region of Interest Statistics

CPU 0 cumulative IPC: 0.757064 instructions: 500000000 cycles: 660445947
ITLB TOTAL     ACCESS:  108949959  HIT:  108949959  MISS:          0
ITLB LOAD      ACCESS:  108949959  HIT:  108949959  MISS:          0
ITLB RFO       ACCESS:          0  HIT:          0  MISS:          0
ITLB PREFETCH  ACCESS:          0  HIT:          0  MISS:          0
ITLB WRITEBACK ACCESS:          0  HIT:          0  MISS:          0
ITLB PREFETCH  REQUESTED:          0  ISSUED:          0  USEFUL:          0  USELESS:          0
ITLB TOTAL MSHR MERGED:          0
ITLB LOAD MSHR MERGED:          0
ITLB RFO MSHR MERGED:          0
ITLB PREFETCH MSHR MERGED:          0
ITLB WRITEBACK MSHR MERGED:          0
ITLB TOTAL ACCESSES:  108949959 HITS:  108949959 MISSES:          0
ITLB LOAD ACCESSES:  108949959 HITS:  108949959 MISSES:          0
ITLB RFO ACCESSES:          0 HITS:          0 MISSES:          0
ITLB PREFETCH ACCESSES:          0 HITS:          0 MISSES:          0
ITLB WRITEBACK ACCESSES:          0 HITS:          0 MISSES:          0
ITLB RQ ACCESS:  500000001
ITLB RQ TO_CACHE:  108949959
ITLB RQ MERGED:  391050042
ITLB RQ FORWARD:          0
ITLB WQ ACCESS:          0
ITLB WQ TO_CACHE:          0
ITLB WQ MERGED:          0
ITLB WQ FORWARD:          0
DTLB TOTAL     ACCESS:  171130107  HIT:  161113804  MISS:   10016303
DTLB LOAD      ACCESS:  143471338  HIT:  135595285  MISS:    7876053
DTLB RFO       ACCESS:   27658769  HIT:   25518519  MISS:    2140250
DTLB PREFETCH  ACCESS:          0  HIT:          0  MISS:          0
DTLB WRITEBACK ACCESS:          0  HIT:          0  MISS:          0
DTLB PREFETCH  REQUESTED:          0  ISSUED:          0  USEFUL:          0  USELESS:          0
DTLB TOTAL MSHR MERGED:     360429
DTLB LOAD MSHR MERGED:     360429
DTLB RFO MSHR MERGED:          0
DTLB PREFETCH MSHR MERGED:          0
DTLB WRITEBACK MSHR MERGED:          0
DTLB TOTAL ACCESSES:  171490536 HITS:  161113804 MISSES:   10376732
DTLB LOAD ACCESSES:  143831767 HITS:  135595285 MISSES:    8236482
DTLB RFO ACCESSES:   27658769 HITS:   25518519 MISSES:    2140250
DTLB PREFETCH ACCESSES:          0 HITS:          0 MISSES:          0
DTLB WRITEBACK ACCESSES:          0 HITS:          0 MISSES:          0
DTLB RQ ACCESS:  274072622
DTLB RQ TO_CACHE:  171490536
DTLB RQ MERGED:  102582086
DTLB RQ FORWARD:          0
DTLB WQ ACCESS:          0
DTLB WQ TO_CACHE:          0
DTLB WQ MERGED:          0
DTLB WQ FORWARD:          0
L1D TOTAL     ACCESS:  350930311  HIT:  283734118  MISS:   67196193
L1D LOAD      ACCESS:  175625949  HIT:  142588501  MISS:   33037448
L1D RFO       ACCESS:   42019709  HIT:   39214071  MISS:    2805638
L1D PREFETCH  ACCESS:  133284653  HIT:  101931546  MISS:   31353107
L1D WRITEBACK ACCESS:          0  HIT:          0  MISS:          0
L1D PREFETCH  REQUESTED:  176229620  ISSUED:  175291080  USEFUL:    2180399  USELESS:   29172710
L1D TOTAL MSHR MERGED:    1483133
L1D LOAD MSHR MERGED:     703683
L1D RFO MSHR MERGED:     349453
L1D PREFETCH MSHR MERGED:     429997
L1D WRITEBACK MSHR MERGED:          0
L1D TOTAL ACCESSES:  352525952 HITS:  283846626 MISSES:   68679326
L1D LOAD ACCESSES:  176236161 HITS:  142595042 MISSES:   33641119
L1D RFO ACCESSES:   42368468 HITS:   39214071 MISSES:    3154397
L1D PREFETCH ACCESSES:  133921323 HITS:  102037513 MISSES:   31883810
L1D WRITEBACK ACCESSES:          0 HITS:          0 MISSES:          0
L1D RQ ACCESS:  231434149
L1D RQ TO_CACHE:  176229620
L1D RQ MERGED:   55197988
L1D RQ FORWARD:          0
L1D WQ ACCESS:   42638475
L1D WQ TO_CACHE:   42368468
L1D WQ MERGED:     270007
L1D WQ FORWARD:     112508
L1I TOTAL     ACCESS:  109342291  HIT:   77826587  MISS:   31515704
L1I LOAD      ACCESS:  109342291  HIT:   77826587  MISS:   31515704
L1I RFO       ACCESS:          0  HIT:          0  MISS:          0
L1I PREFETCH  ACCESS:          0  HIT:          0  MISS:          0
L1I WRITEBACK ACCESS:          0  HIT:          0  MISS:          0
L1I PREFETCH  REQUESTED:          0  ISSUED:          0  USEFUL:          0  USELESS:          0
L1I TOTAL MSHR MERGED:   30752575
L1I LOAD MSHR MERGED:   30752575
L1I RFO MSHR MERGED:          0
L1I PREFETCH MSHR MERGED:          0
L1I WRITEBACK MSHR MERGED:          0
L1I TOTAL ACCESSES:  140094868 HITS:   77826587 MISSES:   62268281
L1I LOAD ACCESSES:  140094868 HITS:   77826587 MISSES:   62268281
L1I RFO ACCESSES:          0 HITS:          0 MISSES:          0
L1I PREFETCH ACCESSES:          0 HITS:          0 MISSES:          0
L1I WRITEBACK ACCESSES:          0 HITS:          0 MISSES:          0
L1I RQ ACCESS:  500000003
L1I RQ TO_CACHE:  140094868
L1I RQ MERGED:  359905135
L1I RQ FORWARD:          0
L1I WQ ACCESS:          0
L1I WQ TO_CACHE:          0
L1I WQ MERGED:          0
L1I WQ FORWARD:          0
L2C TOTAL     ACCESS:  113698734  HIT:  110695044  MISS:    3003690
L2C LOAD      ACCESS:   64451269  HIT:   63888895  MISS:     562374
L2C RFO       ACCESS:    2803040  HIT:    2193645  MISS:     609395
L2C PREFETCH  ACCESS:   43283428  HIT:   41457784  MISS:    1825644
L2C WRITEBACK ACCESS:    3160997  HIT:    3154720  MISS:       6277
L2C PREFETCH  REQUESTED:   15134324  ISSUED:   14619948  USEFUL:    1700638  USELESS:     125018
L2C TOTAL MSHR MERGED:      12000
L2C LOAD MSHR MERGED:          0
L2C RFO MSHR MERGED:          0
L2C PREFETCH MSHR MERGED:      12000
L2C WRITEBACK MSHR MERGED:          0
L2C TOTAL ACCESSES:  113902450 HITS:  110700925 MISSES:    3201525
L2C LOAD ACCESSES:   64453141 HITS:   63890766 MISSES:     562375
L2C RFO ACCESSES:    2804944 HITS:    2195549 MISSES:     609395
L2C PREFETCH ACCESSES:   43483368 HITS:   41459890 MISSES:    2023478
L2C WRITEBACK ACCESSES:    3160997 HITS:    3154720 MISSES:       6277
L2C RQ ACCESS:   67258086
L2C RQ TO_CACHE:   67254311
L2C RQ MERGED:          0
L2C RQ FORWARD:          0
L2C WQ ACCESS:    3160997
L2C WQ TO_CACHE:    3160997
L2C WQ MERGED:          0
L2C WQ FORWARD:       5881
LLC TOTAL     ACCESS:    3714637  HIT:    2067788  MISS:    1646849
LLC LOAD      ACCESS:     562346  HIT:     502656  MISS:      59690
LLC RFO       ACCESS:     527335  HIT:     239235  MISS:     288100
LLC PREFETCH  ACCESS:    2006531  HIT:     711307  MISS:    1295224
LLC WRITEBACK ACCESS:     618425  HIT:     614590  MISS:       3835
LLC PREFETCH  REQUESTED:          0  ISSUED:          0  USEFUL:      52176  USELESS:    1248267
LLC TOTAL MSHR MERGED:       4281
LLC LOAD MSHR MERGED:          0
LLC RFO MSHR MERGED:          0
LLC PREFETCH MSHR MERGED:       4281
LLC WRITEBACK MSHR MERGED:          0
LLC TOTAL ACCESSES:    3801092 HITS:    2149962 MISSES:    1651130
LLC LOAD ACCESSES:     562374 HITS:     502684 MISSES:      59690
LLC RFO ACCESSES:     609395 HITS:     321295 MISSES:     288100
LLC PREFETCH ACCESSES:    2010898 HITS:     711393 MISSES:    1299505
LLC WRITEBACK ACCESSES:     618425 HITS:     614590 MISSES:       3835
LLC 0 RQ ACCESS:    1171770
LLC 0 RQ TO_CACHE:    1089682
LLC 0 RQ MERGED:          0
LLC 0 RQ FORWARD:          0
LLC WQ ACCESS:     618425
LLC WQ TO_CACHE:     618425
LLC WQ MERGED:          0
LLC WQ FORWARD:      82174
Major fault: 0 Minor fault: 12800
CPU 0 L1D next line prefetcher final stats
CPU 0 L2C PC-based stride prefetcher final stats
All Misses: 1956765
All Hits: 2608847
SD Algo Stats - Switches: 0 SRR-Repls: 72285 BRR-Repls: 0

DRAM Statistics
 CHANNEL 0
 RQ ROW_BUFFER_HIT:     824756  ROW_BUFFER_MISS:     818257
 DBUS_CONGESTED:     880889
 WQ ROW_BUFFER_HIT:      41779  ROW_BUFFER_MISS:     240933  FULL:          0

 AVG_CONGESTED_CYCLE: 13
LOADS RETIRED: 239375970
INSTR RETIRED: 500000000
