
*** ChampSim Multicore Out-of-Order Simulator ***

Warmup Instructions: 100000000
Simulation Instructions: 500000000
Number of CPUs: 1
LLC sets: 2048
LLC ways: 16
Clean RRIP Policies: 1223220112232201 Dirty RRIP Policies: 2213021122130211 PSEL Width: 10 Track Set: 4294967295 PSEL Mask: 1 Demote Mask: 3340011033400110DS Algo: 0Window size: 0
Off-chip DRAM Size: 4096 MB Channels: 1 Width: 64-bit Data Rate: 1600 MT/s

CPU 0 runs /mnt/beegfs/iconst01/spec2017/cactuBSSN.trace.gz
NOT SORTED
TRACE STRING: /mnt/beegfs/iconst01/spec2017/cactuBSSN.trace.gz
SORTED
TRACE STRING: /mnt/beegfs/iconst01/spec2017/cactuBSSN.trace.gz
INITIAL
TRACE STRING: /mnt/beegfs/iconst01/spec2017/cactuBSSN.trace.gz

champsim_seed used: 838

CPU 0 L1D next line prefetcher
CPU 0 L2C IP-based stride prefetcher
Initialize DRRIP state
Assign rand_sets[0]: 454  LLC: 2048
rand_sets[0]: 454
Assign rand_sets[1]: 1662  LLC: 2048
rand_sets[1]: 1662
Assign rand_sets[2]: 1921  LLC: 2048
rand_sets[2]: 1921
Assign rand_sets[3]: 1131  LLC: 2048
rand_sets[3]: 1131
Assign rand_sets[4]: 331  LLC: 2048
rand_sets[4]: 331
Assign rand_sets[5]: 1531  LLC: 2048
rand_sets[5]: 1531
Assign rand_sets[6]: 482  LLC: 2048
rand_sets[6]: 482
Assign rand_sets[7]: 1275  LLC: 2048
rand_sets[7]: 1275
Assign rand_sets[8]: 1876  LLC: 2048
rand_sets[8]: 1876
Assign rand_sets[9]: 2038  LLC: 2048
rand_sets[9]: 2038
Assign rand_sets[10]: 701  LLC: 2048
rand_sets[10]: 701
Assign rand_sets[11]: 479  LLC: 2048
rand_sets[11]: 479
Assign rand_sets[12]: 892  LLC: 2048
rand_sets[12]: 892
Assign rand_sets[13]: 1820  LLC: 2048
rand_sets[13]: 1820
Assign rand_sets[14]: 1505  LLC: 2048
rand_sets[14]: 1505
Assign rand_sets[15]: 1159  LLC: 2048
rand_sets[15]: 1159
Assign rand_sets[16]: 513  LLC: 2048
rand_sets[16]: 513
Assign rand_sets[17]: 703  LLC: 2048
rand_sets[17]: 703
Assign rand_sets[18]: 561  LLC: 2048
rand_sets[18]: 561
Assign rand_sets[19]: 990  LLC: 2048
rand_sets[19]: 990
Assign rand_sets[20]: 342  LLC: 2048
rand_sets[20]: 342
Assign rand_sets[21]: 882  LLC: 2048
rand_sets[21]: 882
Assign rand_sets[22]: 15  LLC: 2048
rand_sets[22]: 15
Assign rand_sets[23]: 71  LLC: 2048
rand_sets[23]: 71
Assign rand_sets[24]: 1127  LLC: 2048
rand_sets[24]: 1127
Assign rand_sets[25]: 1382  LLC: 2048
rand_sets[25]: 1382
Assign rand_sets[26]: 647  LLC: 2048
rand_sets[26]: 647
Assign rand_sets[27]: 857  LLC: 2048
rand_sets[27]: 857
Assign rand_sets[28]: 1450  LLC: 2048
rand_sets[28]: 1450
Assign rand_sets[29]: 1160  LLC: 2048
rand_sets[29]: 1160
Assign rand_sets[30]: 1852  LLC: 2048
rand_sets[30]: 1852
Assign rand_sets[31]: 1881  LLC: 2048
rand_sets[31]: 1881
Assign rand_sets[32]: 1770  LLC: 2048
rand_sets[32]: 1770
Assign rand_sets[33]: 1622  LLC: 2048
rand_sets[33]: 1622
Assign rand_sets[34]: 275  LLC: 2048
rand_sets[34]: 275
Assign rand_sets[35]: 635  LLC: 2048
rand_sets[35]: 635
Assign rand_sets[36]: 466  LLC: 2048
rand_sets[36]: 466
Assign rand_sets[37]: 1413  LLC: 2048
rand_sets[37]: 1413
Assign rand_sets[38]: 417  LLC: 2048
rand_sets[38]: 417
Assign rand_sets[39]: 472  LLC: 2048
rand_sets[39]: 472
Assign rand_sets[40]: 1340  LLC: 2048
rand_sets[40]: 1340
Assign rand_sets[41]: 852  LLC: 2048
rand_sets[41]: 852
Assign rand_sets[42]: 1365  LLC: 2048
rand_sets[42]: 1365
Assign rand_sets[43]: 47  LLC: 2048
rand_sets[43]: 47
Assign rand_sets[44]: 823  LLC: 2048
rand_sets[44]: 823
Assign rand_sets[45]: 686  LLC: 2048
rand_sets[45]: 686
Assign rand_sets[46]: 1637  LLC: 2048
rand_sets[46]: 1637
Assign rand_sets[47]: 1115  LLC: 2048
rand_sets[47]: 1115
Assign rand_sets[48]: 986  LLC: 2048
rand_sets[48]: 986
Assign rand_sets[49]: 258  LLC: 2048
rand_sets[49]: 258
Assign rand_sets[50]: 633  LLC: 2048
rand_sets[50]: 633
Assign rand_sets[51]: 920  LLC: 2048
rand_sets[51]: 920
Assign rand_sets[52]: 204  LLC: 2048
rand_sets[52]: 204
Assign rand_sets[53]: 227  LLC: 2048
rand_sets[53]: 227
Assign rand_sets[54]: 1818  LLC: 2048
rand_sets[54]: 1818
Assign rand_sets[55]: 886  LLC: 2048
rand_sets[55]: 886
Assign rand_sets[56]: 1422  LLC: 2048
rand_sets[56]: 1422
Assign rand_sets[57]: 607  LLC: 2048
rand_sets[57]: 607
Assign rand_sets[58]: 217  LLC: 2048
rand_sets[58]: 217
Assign rand_sets[59]: 1945  LLC: 2048
rand_sets[59]: 1945
Assign rand_sets[60]: 143  LLC: 2048
rand_sets[60]: 143
Assign rand_sets[61]: 1311  LLC: 2048
rand_sets[61]: 1311
Assign rand_sets[62]: 319  LLC: 2048
rand_sets[62]: 319
Assign rand_sets[63]: 1846  LLC: 2048
rand_sets[63]: 1846
 CLEAN-RRIP-POLICY-1: 1-2-2-3-2-2-0-1- CLEAN-RRIP-POLICY-2: 1-2-2-3-2-2-0-1-
 DIRTY-RRIP-POLICY-1: 2-2-1-3-0-2-1-1- DIRTY-RRIP-POLICY-2: 2-2-1-3-0-2-1-1-
 PSEL width: 10
Heartbeat CPU 0 instructions: 10000000 cycles: 6588007 heartbeat IPC: 1.51791 cumulative IPC: 1.51791 (Simulation time: 0 hr 0 min 25 sec) 
Heartbeat CPU 0 instructions: 20000000 cycles: 13179604 heartbeat IPC: 1.51708 cumulative IPC: 1.5175 (Simulation time: 0 hr 0 min 51 sec) 
Heartbeat CPU 0 instructions: 30000003 cycles: 19772952 heartbeat IPC: 1.51668 cumulative IPC: 1.51722 (Simulation time: 0 hr 1 min 16 sec) 
Heartbeat CPU 0 instructions: 40000000 cycles: 26364724 heartbeat IPC: 1.51704 cumulative IPC: 1.51718 (Simulation time: 0 hr 1 min 41 sec) 
Heartbeat CPU 0 instructions: 50000001 cycles: 32957402 heartbeat IPC: 1.51683 cumulative IPC: 1.51711 (Simulation time: 0 hr 2 min 7 sec) 
Heartbeat CPU 0 instructions: 60000000 cycles: 39556237 heartbeat IPC: 1.51542 cumulative IPC: 1.51683 (Simulation time: 0 hr 2 min 32 sec) 
Heartbeat CPU 0 instructions: 70000003 cycles: 46154641 heartbeat IPC: 1.51552 cumulative IPC: 1.51664 (Simulation time: 0 hr 2 min 58 sec) 
Heartbeat CPU 0 instructions: 80000000 cycles: 52752691 heartbeat IPC: 1.5156 cumulative IPC: 1.51651 (Simulation time: 0 hr 3 min 24 sec) 
Heartbeat CPU 0 instructions: 90000002 cycles: 59348389 heartbeat IPC: 1.51614 cumulative IPC: 1.51647 (Simulation time: 0 hr 3 min 49 sec) 
Heartbeat CPU 0 instructions: 100000000 cycles: 65943504 heartbeat IPC: 1.51627 cumulative IPC: 1.51645 (Simulation time: 0 hr 4 min 15 sec) 

Warmup complete CPU 0 instructions: 100000002 cycles: 65943505 (Simulation time: 0 hr 4 min 15 sec) 

Heartbeat CPU 0 instructions: 110000000 cycles: 79200955 heartbeat IPC: 0.754293 cumulative IPC: 0.754293 (Simulation time: 0 hr 4 min 47 sec) 
Heartbeat CPU 0 instructions: 120000000 cycles: 92419682 heartbeat IPC: 0.756503 cumulative IPC: 0.755396 (Simulation time: 0 hr 5 min 18 sec) 
Heartbeat CPU 0 instructions: 130000001 cycles: 105706071 heartbeat IPC: 0.75265 cumulative IPC: 0.754478 (Simulation time: 0 hr 5 min 50 sec) 
Heartbeat CPU 0 instructions: 140000000 cycles: 118902682 heartbeat IPC: 0.75777 cumulative IPC: 0.755299 (Simulation time: 0 hr 6 min 22 sec) 
Heartbeat CPU 0 instructions: 150000001 cycles: 132101386 heartbeat IPC: 0.75765 cumulative IPC: 0.755768 (Simulation time: 0 hr 6 min 53 sec) 
Heartbeat CPU 0 instructions: 160000000 cycles: 145343973 heartbeat IPC: 0.755139 cumulative IPC: 0.755663 (Simulation time: 0 hr 7 min 25 sec) 
Heartbeat CPU 0 instructions: 170000000 cycles: 158570761 heartbeat IPC: 0.756041 cumulative IPC: 0.755717 (Simulation time: 0 hr 7 min 56 sec) 
Heartbeat CPU 0 instructions: 180000000 cycles: 171779650 heartbeat IPC: 0.757066 cumulative IPC: 0.755885 (Simulation time: 0 hr 8 min 28 sec) 
Heartbeat CPU 0 instructions: 190000000 cycles: 184950089 heartbeat IPC: 0.759276 cumulative IPC: 0.756261 (Simulation time: 0 hr 8 min 59 sec) 
Heartbeat CPU 0 instructions: 200000000 cycles: 198212236 heartbeat IPC: 0.754026 cumulative IPC: 0.756037 (Simulation time: 0 hr 9 min 31 sec) 
Heartbeat CPU 0 instructions: 210000002 cycles: 211438599 heartbeat IPC: 0.756066 cumulative IPC: 0.756039 (Simulation time: 0 hr 10 min 3 sec) 
Heartbeat CPU 0 instructions: 220000000 cycles: 224632112 heartbeat IPC: 0.757948 cumulative IPC: 0.756198 (Simulation time: 0 hr 10 min 34 sec) 
Heartbeat CPU 0 instructions: 230000003 cycles: 237891064 heartbeat IPC: 0.754208 cumulative IPC: 0.756044 (Simulation time: 0 hr 11 min 6 sec) 
Heartbeat CPU 0 instructions: 240000000 cycles: 251100214 heartbeat IPC: 0.757051 cumulative IPC: 0.756116 (Simulation time: 0 hr 11 min 37 sec) 
Heartbeat CPU 0 instructions: 250000001 cycles: 264339394 heartbeat IPC: 0.755334 cumulative IPC: 0.756064 (Simulation time: 0 hr 12 min 9 sec) 
Heartbeat CPU 0 instructions: 260000000 cycles: 277553204 heartbeat IPC: 0.756784 cumulative IPC: 0.756109 (Simulation time: 0 hr 12 min 40 sec) 
Heartbeat CPU 0 instructions: 270000003 cycles: 290791869 heartbeat IPC: 0.755363 cumulative IPC: 0.756065 (Simulation time: 0 hr 13 min 11 sec) 
Heartbeat CPU 0 instructions: 280000000 cycles: 304009499 heartbeat IPC: 0.756565 cumulative IPC: 0.756093 (Simulation time: 0 hr 13 min 42 sec) 
Heartbeat CPU 0 instructions: 290000000 cycles: 317186571 heartbeat IPC: 0.758894 cumulative IPC: 0.75624 (Simulation time: 0 hr 14 min 13 sec) 
Heartbeat CPU 0 instructions: 300000000 cycles: 330437359 heartbeat IPC: 0.754672 cumulative IPC: 0.756161 (Simulation time: 0 hr 14 min 44 sec) 
Heartbeat CPU 0 instructions: 310000001 cycles: 343621241 heartbeat IPC: 0.758502 cumulative IPC: 0.756272 (Simulation time: 0 hr 15 min 15 sec) 
Heartbeat CPU 0 instructions: 320000000 cycles: 356825633 heartbeat IPC: 0.757324 cumulative IPC: 0.75632 (Simulation time: 0 hr 15 min 45 sec) 
Heartbeat CPU 0 instructions: 330000002 cycles: 370035481 heartbeat IPC: 0.757011 cumulative IPC: 0.75635 (Simulation time: 0 hr 16 min 16 sec) 
Heartbeat CPU 0 instructions: 340000000 cycles: 383282403 heartbeat IPC: 0.754892 cumulative IPC: 0.756289 (Simulation time: 0 hr 16 min 47 sec) 
Heartbeat CPU 0 instructions: 350000000 cycles: 396549054 heartbeat IPC: 0.75377 cumulative IPC: 0.756188 (Simulation time: 0 hr 17 min 17 sec) 
Heartbeat CPU 0 instructions: 360000000 cycles: 409792387 heartbeat IPC: 0.755097 cumulative IPC: 0.756146 (Simulation time: 0 hr 17 min 47 sec) 
Heartbeat CPU 0 instructions: 370000002 cycles: 423084115 heartbeat IPC: 0.752348 cumulative IPC: 0.756005 (Simulation time: 0 hr 18 min 17 sec) 
Heartbeat CPU 0 instructions: 380000000 cycles: 436302943 heartbeat IPC: 0.756497 cumulative IPC: 0.756022 (Simulation time: 0 hr 18 min 47 sec) 
Heartbeat CPU 0 instructions: 390000000 cycles: 449496334 heartbeat IPC: 0.757955 cumulative IPC: 0.756089 (Simulation time: 0 hr 19 min 17 sec) 
Heartbeat CPU 0 instructions: 400000000 cycles: 462715656 heartbeat IPC: 0.756468 cumulative IPC: 0.756101 (Simulation time: 0 hr 19 min 47 sec) 
Heartbeat CPU 0 instructions: 410000001 cycles: 475971892 heartbeat IPC: 0.754362 cumulative IPC: 0.756045 (Simulation time: 0 hr 20 min 17 sec) 
Heartbeat CPU 0 instructions: 420000000 cycles: 489159982 heartbeat IPC: 0.75826 cumulative IPC: 0.756114 (Simulation time: 0 hr 20 min 47 sec) 
Heartbeat CPU 0 instructions: 430000001 cycles: 502357331 heartbeat IPC: 0.757728 cumulative IPC: 0.756163 (Simulation time: 0 hr 21 min 17 sec) 
Heartbeat CPU 0 instructions: 440000000 cycles: 515536481 heartbeat IPC: 0.758774 cumulative IPC: 0.75624 (Simulation time: 0 hr 21 min 46 sec) 
Heartbeat CPU 0 instructions: 450000002 cycles: 528847763 heartbeat IPC: 0.751243 cumulative IPC: 0.756096 (Simulation time: 0 hr 22 min 16 sec) 
Heartbeat CPU 0 instructions: 460000000 cycles: 542065056 heartbeat IPC: 0.756584 cumulative IPC: 0.756109 (Simulation time: 0 hr 22 min 46 sec) 
Heartbeat CPU 0 instructions: 470000003 cycles: 555269760 heartbeat IPC: 0.757306 cumulative IPC: 0.756142 (Simulation time: 0 hr 23 min 16 sec) 
Heartbeat CPU 0 instructions: 480000000 cycles: 568527195 heartbeat IPC: 0.754294 cumulative IPC: 0.756093 (Simulation time: 0 hr 23 min 46 sec) 
Heartbeat CPU 0 instructions: 490000000 cycles: 581746773 heartbeat IPC: 0.756454 cumulative IPC: 0.756102 (Simulation time: 0 hr 24 min 16 sec) 
Heartbeat CPU 0 instructions: 500000000 cycles: 594958254 heartbeat IPC: 0.756917 cumulative IPC: 0.756123 (Simulation time: 0 hr 24 min 46 sec) 
Heartbeat CPU 0 instructions: 510000001 cycles: 608141761 heartbeat IPC: 0.758524 cumulative IPC: 0.756181 (Simulation time: 0 hr 25 min 16 sec) 
Heartbeat CPU 0 instructions: 520000000 cycles: 621436047 heartbeat IPC: 0.752203 cumulative IPC: 0.756086 (Simulation time: 0 hr 25 min 46 sec) 
Heartbeat CPU 0 instructions: 530000000 cycles: 634681795 heartbeat IPC: 0.754959 cumulative IPC: 0.75606 (Simulation time: 0 hr 26 min 16 sec) 
Heartbeat CPU 0 instructions: 540000000 cycles: 647917392 heartbeat IPC: 0.755538 cumulative IPC: 0.756048 (Simulation time: 0 hr 26 min 46 sec) 
Heartbeat CPU 0 instructions: 550000002 cycles: 661185287 heartbeat IPC: 0.753699 cumulative IPC: 0.755995 (Simulation time: 0 hr 27 min 16 sec) 
Heartbeat CPU 0 instructions: 560000000 cycles: 674375800 heartbeat IPC: 0.75812 cumulative IPC: 0.756041 (Simulation time: 0 hr 27 min 46 sec) 
Heartbeat CPU 0 instructions: 570000001 cycles: 687585143 heartbeat IPC: 0.75704 cumulative IPC: 0.756063 (Simulation time: 0 hr 28 min 16 sec) 
Heartbeat CPU 0 instructions: 580000000 cycles: 700808812 heartbeat IPC: 0.75622 cumulative IPC: 0.756066 (Simulation time: 0 hr 28 min 45 sec) 
Heartbeat CPU 0 instructions: 590000003 cycles: 714039835 heartbeat IPC: 0.7558 cumulative IPC: 0.75606 (Simulation time: 0 hr 29 min 14 sec) 
Heartbeat CPU 0 instructions: 600000000 cycles: 727304953 heartbeat IPC: 0.753857 cumulative IPC: 0.756016 (Simulation time: 0 hr 29 min 44 sec) 
Finished CPU 0 instructions: 500000000 cycles: 661361458 cumulative IPC: 0.756016 (Simulation time: 0 hr 29 min 44 sec) 

CPU 0 Branch Prediction Accuracy: 99.968% MPKI: 0.002246
Number of Branches: 3513331 Number of Mispredictions: 1123
Number of LOAD Instructions: 287251172
Number of LOAD Instructions (ROI): 287251172
Number of STORE Instructions: 51060820
Number of STORE Instructions (ROI): 51060820
Total Destination Memory Operands: 51166221
Total Destination Memory Operands (ROI): 51166221
Total Source Memory Operands: 287251172
Total Source Memory Operands (ROI): 287251172
Number of DEPENDED LOADS: 9555412
Number of DEPENDED LOADS (ROI): 9555412
Number of SQ_ADDED: 51166208
Number of SQ_ADDED (ROI): 51166208
Number of LQ_ADDED: 290419867
Number of LQ_ADDED (ROI): 290419867
Number of Instructions read from trace: 600000257

ChampSim completed all CPUs

Region of Interest Statistics

CPU 0 cumulative IPC: 0.756016 instructions: 500000000 cycles: 661361458
ITLB TOTAL     ACCESS:  108949555  HIT:  108949555  MISS:          0
ITLB LOAD      ACCESS:  108949555  HIT:  108949555  MISS:          0
ITLB RFO       ACCESS:          0  HIT:          0  MISS:          0
ITLB PREFETCH  ACCESS:          0  HIT:          0  MISS:          0
ITLB WRITEBACK ACCESS:          0  HIT:          0  MISS:          0
ITLB PREFETCH  REQUESTED:          0  ISSUED:          0  USEFUL:          0  USELESS:          0
ITLB TOTAL MSHR MERGED:          0
ITLB LOAD MSHR MERGED:          0
ITLB RFO MSHR MERGED:          0
ITLB PREFETCH MSHR MERGED:          0
ITLB WRITEBACK MSHR MERGED:          0
ITLB TOTAL ACCESSES:  108949555 HITS:  108949555 MISSES:          0
ITLB LOAD ACCESSES:  108949555 HITS:  108949555 MISSES:          0
ITLB RFO ACCESSES:          0 HITS:          0 MISSES:          0
ITLB PREFETCH ACCESSES:          0 HITS:          0 MISSES:          0
ITLB WRITEBACK ACCESSES:          0 HITS:          0 MISSES:          0
ITLB RQ ACCESS:  500000001
ITLB RQ TO_CACHE:  108949555
ITLB RQ MERGED:  391050446
ITLB RQ FORWARD:          0
ITLB WQ ACCESS:          0
ITLB WQ TO_CACHE:          0
ITLB WQ MERGED:          0
ITLB WQ FORWARD:          0
DTLB TOTAL     ACCESS:  171130564  HIT:  161114295  MISS:   10016269
DTLB LOAD      ACCESS:  143471841  HIT:  135595822  MISS:    7876019
DTLB RFO       ACCESS:   27658723  HIT:   25518473  MISS:    2140250
DTLB PREFETCH  ACCESS:          0  HIT:          0  MISS:          0
DTLB WRITEBACK ACCESS:          0  HIT:          0  MISS:          0
DTLB PREFETCH  REQUESTED:          0  ISSUED:          0  USEFUL:          0  USELESS:          0
DTLB TOTAL MSHR MERGED:     360442
DTLB LOAD MSHR MERGED:     360442
DTLB RFO MSHR MERGED:          0
DTLB PREFETCH MSHR MERGED:          0
DTLB WRITEBACK MSHR MERGED:          0
DTLB TOTAL ACCESSES:  171491006 HITS:  161114295 MISSES:   10376711
DTLB LOAD ACCESSES:  143832283 HITS:  135595822 MISSES:    8236461
DTLB RFO ACCESSES:   27658723 HITS:   25518473 MISSES:    2140250
DTLB PREFETCH ACCESSES:          0 HITS:          0 MISSES:          0
DTLB WRITEBACK ACCESSES:          0 HITS:          0 MISSES:          0
DTLB RQ ACCESS:  274072405
DTLB RQ TO_CACHE:  171491006
DTLB RQ MERGED:  102581399
DTLB RQ FORWARD:          0
DTLB WQ ACCESS:          0
DTLB WQ TO_CACHE:          0
DTLB WQ MERGED:          0
DTLB WQ FORWARD:          0
L1D TOTAL     ACCESS:  350945410  HIT:  283746421  MISS:   67198989
L1D LOAD      ACCESS:  175627302  HIT:  142588787  MISS:   33038515
L1D RFO       ACCESS:   42019720  HIT:   39213998  MISS:    2805722
L1D PREFETCH  ACCESS:  133298388  HIT:  101943636  MISS:   31354752
L1D WRITEBACK ACCESS:          0  HIT:          0  MISS:          0
L1D PREFETCH  REQUESTED:  176231204  ISSUED:  175292826  USEFUL:    2180457  USELESS:   29174297
L1D TOTAL MSHR MERGED:    1483153
L1D LOAD MSHR MERGED:     703836
L1D RFO MSHR MERGED:     349363
L1D PREFETCH MSHR MERGED:     429954
L1D WRITEBACK MSHR MERGED:          0
L1D TOTAL ACCESSES:  352541751 HITS:  283859609 MISSES:   68682142
L1D LOAD ACCESSES:  176238323 HITS:  142595906 MISSES:   33642417
L1D RFO ACCESSES:   42368389 HITS:   39213998 MISSES:    3154391
L1D PREFETCH ACCESSES:  133935039 HITS:  102049705 MISSES:   31885334
L1D WRITEBACK ACCESSES:          0 HITS:          0 MISSES:          0
L1D RQ ACCESS:  231433932
L1D RQ TO_CACHE:  176231204
L1D RQ MERGED:   55195609
L1D RQ FORWARD:          0
L1D WQ ACCESS:   42638475
L1D WQ TO_CACHE:   42368389
L1D WQ MERGED:     270086
L1D WQ FORWARD:     113188
L1I TOTAL     ACCESS:  109345300  HIT:   77829596  MISS:   31515704
L1I LOAD      ACCESS:  109345300  HIT:   77829596  MISS:   31515704
L1I RFO       ACCESS:          0  HIT:          0  MISS:          0
L1I PREFETCH  ACCESS:          0  HIT:          0  MISS:          0
L1I WRITEBACK ACCESS:          0  HIT:          0  MISS:          0
L1I PREFETCH  REQUESTED:          0  ISSUED:          0  USEFUL:          0  USELESS:          0
L1I TOTAL MSHR MERGED:   30748449
L1I LOAD MSHR MERGED:   30748449
L1I RFO MSHR MERGED:          0
L1I PREFETCH MSHR MERGED:          0
L1I WRITEBACK MSHR MERGED:          0
L1I TOTAL ACCESSES:  140093751 HITS:   77829596 MISSES:   62264155
L1I LOAD ACCESSES:  140093751 HITS:   77829596 MISSES:   62264155
L1I RFO ACCESSES:          0 HITS:          0 MISSES:          0
L1I PREFETCH ACCESSES:          0 HITS:          0 MISSES:          0
L1I WRITEBACK ACCESSES:          0 HITS:          0 MISSES:          0
L1I RQ ACCESS:  500000003
L1I RQ TO_CACHE:  140093751
L1I RQ MERGED:  359906252
L1I RQ FORWARD:          0
L1I WQ ACCESS:          0
L1I WQ TO_CACHE:          0
L1I WQ MERGED:          0
L1I WQ FORWARD:          0
L2C TOTAL     ACCESS:  113690439  HIT:  110689811  MISS:    3000628
L2C LOAD      ACCESS:   64452444  HIT:   63892341  MISS:     560103
L2C RFO       ACCESS:    2803171  HIT:    2193918  MISS:     609253
L2C PREFETCH  ACCESS:   43273931  HIT:   41448918  MISS:    1825013
L2C WRITEBACK ACCESS:    3160893  HIT:    3154634  MISS:       6259
L2C PREFETCH  REQUESTED:   15134364  ISSUED:   14621619  USEFUL:    1700659  USELESS:     124360
L2C TOTAL MSHR MERGED:      13385
L2C LOAD MSHR MERGED:          0
L2C RFO MSHR MERGED:          0
L2C PREFETCH MSHR MERGED:      13385
L2C WRITEBACK MSHR MERGED:          0
L2C TOTAL ACCESSES:  113907274 HITS:  110695619 MISSES:    3211655
L2C LOAD ACCESSES:   64454286 HITS:   63894182 MISSES:     560104
L2C RFO ACCESSES:    2805028 HITS:    2195775 MISSES:     609253
L2C PREFETCH ACCESSES:   43487067 HITS:   41451028 MISSES:    2036039
L2C WRITEBACK ACCESSES:    3160893 HITS:    3154634 MISSES:       6259
L2C RQ ACCESS:   67259315
L2C RQ TO_CACHE:   67255617
L2C RQ MERGED:          0
L2C RQ FORWARD:          0
L2C WQ ACCESS:    3160893
L2C WQ TO_CACHE:    3160893
L2C WQ MERGED:          0
L2C WQ FORWARD:       5808
LLC TOTAL     ACCESS:    3722634  HIT:    1823552  MISS:    1899082
LLC LOAD      ACCESS:     560076  HIT:     490198  MISS:      69878
LLC RFO       ACCESS:     527346  HIT:     238713  MISS:     288633
LLC PREFETCH  ACCESS:    2016973  HIT:     565963  MISS:    1451010
LLC WRITEBACK ACCESS:     618239  HIT:     528678  MISS:      89561
LLC PREFETCH  REQUESTED:          0  ISSUED:          0  USEFUL:      35720  USELESS:    1413148
LLC TOTAL MSHR MERGED:       5045
LLC LOAD MSHR MERGED:          0
LLC RFO MSHR MERGED:          0
LLC PREFETCH MSHR MERGED:       5045
LLC WRITEBACK MSHR MERGED:          0
LLC TOTAL ACCESSES:    3809691 HITS:    1905564 MISSES:    1904127
LLC LOAD ACCESSES:     560103 HITS:     490225 MISSES:      69878
LLC RFO ACCESSES:     609253 HITS:     320620 MISSES:     288633
LLC PREFETCH ACCESSES:    2022096 HITS:     566041 MISSES:    1456055
LLC WRITEBACK ACCESSES:     618239 HITS:     528678 MISSES:      89561
LLC 0 RQ ACCESS:    1169357
LLC 0 RQ TO_CACHE:    1087423
LLC 0 RQ MERGED:          0
LLC 0 RQ FORWARD:          0
LLC WQ ACCESS:     618239
LLC WQ TO_CACHE:     618239
LLC WQ MERGED:          0
LLC WQ FORWARD:      82012
Major fault: 0 Minor fault: 12800
CPU 0 L1D next line prefetcher final stats
CPU 0 L2C PC-based stride prefetcher final stats
All Misses: 2278853
All Hits: 2294732
SD Algo Stats - Switches: 1 SRR-Repls: 78703 BRR-Repls: 9544

DRAM Statistics
 CHANNEL 0
 RQ ROW_BUFFER_HIT:     890879  ROW_BUFFER_MISS:     918143
 DBUS_CONGESTED:     960112
 WQ ROW_BUFFER_HIT:      35815  ROW_BUFFER_MISS:     258483  FULL:          0

 AVG_CONGESTED_CYCLE: 13
LOADS RETIRED: 239375970
INSTR RETIRED: 500000000
