
*** ChampSim Multicore Out-of-Order Simulator ***

Warmup Instructions: 100000000
Simulation Instructions: 500000000
Number of CPUs: 1
LLC sets: 2048
LLC ways: 16
Clean RRIP Policies: 1223220112232201 Dirty RRIP Policies: 2213021122130211 PSEL Width: 10 Track Set: 4294967295 PSEL Mask: 1 Demote Mask: 3340011033400110DS Algo: 0Window size: 0
Off-chip DRAM Size: 4096 MB Channels: 1 Width: 64-bit Data Rate: 1600 MT/s

CPU 0 runs /mnt/beegfs/iconst01/spec2017/Roms.trace.gz
NOT SORTED
TRACE STRING: /mnt/beegfs/iconst01/spec2017/Roms.trace.gz
SORTED
TRACE STRING: /mnt/beegfs/iconst01/spec2017/Roms.trace.gz
INITIAL
TRACE STRING: /mnt/beegfs/iconst01/spec2017/Roms.trace.gz

champsim_seed used: 417

CPU 0 L1D next line prefetcher
CPU 0 L2C IP-based stride prefetcher
Initialize DRRIP state
Assign rand_sets[0]: 454  LLC: 2048
rand_sets[0]: 454
Assign rand_sets[1]: 1662  LLC: 2048
rand_sets[1]: 1662
Assign rand_sets[2]: 1921  LLC: 2048
rand_sets[2]: 1921
Assign rand_sets[3]: 1131  LLC: 2048
rand_sets[3]: 1131
Assign rand_sets[4]: 331  LLC: 2048
rand_sets[4]: 331
Assign rand_sets[5]: 1531  LLC: 2048
rand_sets[5]: 1531
Assign rand_sets[6]: 482  LLC: 2048
rand_sets[6]: 482
Assign rand_sets[7]: 1275  LLC: 2048
rand_sets[7]: 1275
Assign rand_sets[8]: 1876  LLC: 2048
rand_sets[8]: 1876
Assign rand_sets[9]: 2038  LLC: 2048
rand_sets[9]: 2038
Assign rand_sets[10]: 701  LLC: 2048
rand_sets[10]: 701
Assign rand_sets[11]: 479  LLC: 2048
rand_sets[11]: 479
Assign rand_sets[12]: 892  LLC: 2048
rand_sets[12]: 892
Assign rand_sets[13]: 1820  LLC: 2048
rand_sets[13]: 1820
Assign rand_sets[14]: 1505  LLC: 2048
rand_sets[14]: 1505
Assign rand_sets[15]: 1159  LLC: 2048
rand_sets[15]: 1159
Assign rand_sets[16]: 513  LLC: 2048
rand_sets[16]: 513
Assign rand_sets[17]: 703  LLC: 2048
rand_sets[17]: 703
Assign rand_sets[18]: 561  LLC: 2048
rand_sets[18]: 561
Assign rand_sets[19]: 990  LLC: 2048
rand_sets[19]: 990
Assign rand_sets[20]: 342  LLC: 2048
rand_sets[20]: 342
Assign rand_sets[21]: 882  LLC: 2048
rand_sets[21]: 882
Assign rand_sets[22]: 15  LLC: 2048
rand_sets[22]: 15
Assign rand_sets[23]: 71  LLC: 2048
rand_sets[23]: 71
Assign rand_sets[24]: 1127  LLC: 2048
rand_sets[24]: 1127
Assign rand_sets[25]: 1382  LLC: 2048
rand_sets[25]: 1382
Assign rand_sets[26]: 647  LLC: 2048
rand_sets[26]: 647
Assign rand_sets[27]: 857  LLC: 2048
rand_sets[27]: 857
Assign rand_sets[28]: 1450  LLC: 2048
rand_sets[28]: 1450
Assign rand_sets[29]: 1160  LLC: 2048
rand_sets[29]: 1160
Assign rand_sets[30]: 1852  LLC: 2048
rand_sets[30]: 1852
Assign rand_sets[31]: 1881  LLC: 2048
rand_sets[31]: 1881
Assign rand_sets[32]: 1770  LLC: 2048
rand_sets[32]: 1770
Assign rand_sets[33]: 1622  LLC: 2048
rand_sets[33]: 1622
Assign rand_sets[34]: 275  LLC: 2048
rand_sets[34]: 275
Assign rand_sets[35]: 635  LLC: 2048
rand_sets[35]: 635
Assign rand_sets[36]: 466  LLC: 2048
rand_sets[36]: 466
Assign rand_sets[37]: 1413  LLC: 2048
rand_sets[37]: 1413
Assign rand_sets[38]: 417  LLC: 2048
rand_sets[38]: 417
Assign rand_sets[39]: 472  LLC: 2048
rand_sets[39]: 472
Assign rand_sets[40]: 1340  LLC: 2048
rand_sets[40]: 1340
Assign rand_sets[41]: 852  LLC: 2048
rand_sets[41]: 852
Assign rand_sets[42]: 1365  LLC: 2048
rand_sets[42]: 1365
Assign rand_sets[43]: 47  LLC: 2048
rand_sets[43]: 47
Assign rand_sets[44]: 823  LLC: 2048
rand_sets[44]: 823
Assign rand_sets[45]: 686  LLC: 2048
rand_sets[45]: 686
Assign rand_sets[46]: 1637  LLC: 2048
rand_sets[46]: 1637
Assign rand_sets[47]: 1115  LLC: 2048
rand_sets[47]: 1115
Assign rand_sets[48]: 986  LLC: 2048
rand_sets[48]: 986
Assign rand_sets[49]: 258  LLC: 2048
rand_sets[49]: 258
Assign rand_sets[50]: 633  LLC: 2048
rand_sets[50]: 633
Assign rand_sets[51]: 920  LLC: 2048
rand_sets[51]: 920
Assign rand_sets[52]: 204  LLC: 2048
rand_sets[52]: 204
Assign rand_sets[53]: 227  LLC: 2048
rand_sets[53]: 227
Assign rand_sets[54]: 1818  LLC: 2048
rand_sets[54]: 1818
Assign rand_sets[55]: 886  LLC: 2048
rand_sets[55]: 886
Assign rand_sets[56]: 1422  LLC: 2048
rand_sets[56]: 1422
Assign rand_sets[57]: 607  LLC: 2048
rand_sets[57]: 607
Assign rand_sets[58]: 217  LLC: 2048
rand_sets[58]: 217
Assign rand_sets[59]: 1945  LLC: 2048
rand_sets[59]: 1945
Assign rand_sets[60]: 143  LLC: 2048
rand_sets[60]: 143
Assign rand_sets[61]: 1311  LLC: 2048
rand_sets[61]: 1311
Assign rand_sets[62]: 319  LLC: 2048
rand_sets[62]: 319
Assign rand_sets[63]: 1846  LLC: 2048
rand_sets[63]: 1846
 CLEAN-RRIP-POLICY-1: 1-2-2-3-2-2-0-1- CLEAN-RRIP-POLICY-2: 1-2-2-3-2-2-0-1-
 DIRTY-RRIP-POLICY-1: 2-2-1-3-0-2-1-1- DIRTY-RRIP-POLICY-2: 2-2-1-3-0-2-1-1-
 PSEL width: 10
Heartbeat CPU 0 instructions: 10000000 cycles: 4688066 heartbeat IPC: 2.13308 cumulative IPC: 2.13308 (Simulation time: 0 hr 0 min 17 sec) 
Heartbeat CPU 0 instructions: 20000000 cycles: 9325335 heartbeat IPC: 2.15644 cumulative IPC: 2.1447 (Simulation time: 0 hr 0 min 35 sec) 
Heartbeat CPU 0 instructions: 30000003 cycles: 14019729 heartbeat IPC: 2.1302 cumulative IPC: 2.13984 (Simulation time: 0 hr 0 min 53 sec) 
Heartbeat CPU 0 instructions: 40000000 cycles: 18670148 heartbeat IPC: 2.15034 cumulative IPC: 2.14246 (Simulation time: 0 hr 1 min 10 sec) 
Heartbeat CPU 0 instructions: 50000003 cycles: 23323502 heartbeat IPC: 2.14899 cumulative IPC: 2.14376 (Simulation time: 0 hr 1 min 28 sec) 
Heartbeat CPU 0 instructions: 60000000 cycles: 27976050 heartbeat IPC: 2.14936 cumulative IPC: 2.14469 (Simulation time: 0 hr 1 min 45 sec) 
Heartbeat CPU 0 instructions: 70000002 cycles: 32367220 heartbeat IPC: 2.2773 cumulative IPC: 2.16268 (Simulation time: 0 hr 2 min 1 sec) 
Heartbeat CPU 0 instructions: 80000000 cycles: 36303918 heartbeat IPC: 2.5402 cumulative IPC: 2.20362 (Simulation time: 0 hr 2 min 13 sec) 
Heartbeat CPU 0 instructions: 90000000 cycles: 40249258 heartbeat IPC: 2.53464 cumulative IPC: 2.23607 (Simulation time: 0 hr 2 min 26 sec) 
Heartbeat CPU 0 instructions: 100000000 cycles: 44211668 heartbeat IPC: 2.52372 cumulative IPC: 2.26185 (Simulation time: 0 hr 2 min 38 sec) 

Warmup complete CPU 0 instructions: 100000002 cycles: 44211669 (Simulation time: 0 hr 2 min 38 sec) 

Heartbeat CPU 0 instructions: 110000000 cycles: 53209332 heartbeat IPC: 1.1114 cumulative IPC: 1.1114 (Simulation time: 0 hr 2 min 58 sec) 
Heartbeat CPU 0 instructions: 120000000 cycles: 62148493 heartbeat IPC: 1.11867 cumulative IPC: 1.11502 (Simulation time: 0 hr 3 min 18 sec) 
Heartbeat CPU 0 instructions: 130000002 cycles: 71085694 heartbeat IPC: 1.11892 cumulative IPC: 1.11632 (Simulation time: 0 hr 3 min 38 sec) 
Heartbeat CPU 0 instructions: 140000000 cycles: 79838047 heartbeat IPC: 1.14255 cumulative IPC: 1.12276 (Simulation time: 0 hr 3 min 58 sec) 
Heartbeat CPU 0 instructions: 150000003 cycles: 88758582 heartbeat IPC: 1.12101 cumulative IPC: 1.12241 (Simulation time: 0 hr 4 min 18 sec) 
Heartbeat CPU 0 instructions: 160000000 cycles: 99237642 heartbeat IPC: 0.954284 cumulative IPC: 1.09039 (Simulation time: 0 hr 4 min 40 sec) 
Heartbeat CPU 0 instructions: 170000000 cycles: 111742764 heartbeat IPC: 0.799672 cumulative IPC: 1.03656 (Simulation time: 0 hr 5 min 5 sec) 
Heartbeat CPU 0 instructions: 180000000 cycles: 124248961 heartbeat IPC: 0.799604 cumulative IPC: 0.999534 (Simulation time: 0 hr 5 min 29 sec) 
Heartbeat CPU 0 instructions: 190000000 cycles: 137015693 heartbeat IPC: 0.783286 cumulative IPC: 0.969786 (Simulation time: 0 hr 5 min 54 sec) 
Heartbeat CPU 0 instructions: 200000000 cycles: 150928719 heartbeat IPC: 0.718751 cumulative IPC: 0.937057 (Simulation time: 0 hr 6 min 19 sec) 
Heartbeat CPU 0 instructions: 210000001 cycles: 164843944 heartbeat IPC: 0.718637 cumulative IPC: 0.911862 (Simulation time: 0 hr 6 min 44 sec) 
Heartbeat CPU 0 instructions: 220000000 cycles: 178580869 heartbeat IPC: 0.727965 cumulative IPC: 0.893062 (Simulation time: 0 hr 7 min 10 sec) 
Heartbeat CPU 0 instructions: 230000000 cycles: 192116940 heartbeat IPC: 0.738767 cumulative IPC: 0.878941 (Simulation time: 0 hr 7 min 36 sec) 
Heartbeat CPU 0 instructions: 240000000 cycles: 205740292 heartbeat IPC: 0.734034 cumulative IPC: 0.866719 (Simulation time: 0 hr 8 min 2 sec) 
Heartbeat CPU 0 instructions: 250000003 cycles: 216785069 heartbeat IPC: 0.905406 cumulative IPC: 0.869195 (Simulation time: 0 hr 8 min 25 sec) 
Heartbeat CPU 0 instructions: 260000000 cycles: 224650158 heartbeat IPC: 1.27144 cumulative IPC: 0.886729 (Simulation time: 0 hr 8 min 46 sec) 
Heartbeat CPU 0 instructions: 270000003 cycles: 233102156 heartbeat IPC: 1.18315 cumulative IPC: 0.899992 (Simulation time: 0 hr 9 min 7 sec) 
Heartbeat CPU 0 instructions: 280000000 cycles: 242243506 heartbeat IPC: 1.09393 cumulative IPC: 0.908945 (Simulation time: 0 hr 9 min 29 sec) 
Heartbeat CPU 0 instructions: 290000000 cycles: 251206556 heartbeat IPC: 1.11569 cumulative IPC: 0.917897 (Simulation time: 0 hr 9 min 51 sec) 
Heartbeat CPU 0 instructions: 300000000 cycles: 260097896 heartbeat IPC: 1.12469 cumulative IPC: 0.926414 (Simulation time: 0 hr 10 min 13 sec) 
Heartbeat CPU 0 instructions: 310000000 cycles: 269020876 heartbeat IPC: 1.1207 cumulative IPC: 0.934125 (Simulation time: 0 hr 10 min 35 sec) 
Heartbeat CPU 0 instructions: 320000000 cycles: 277976080 heartbeat IPC: 1.11667 cumulative IPC: 0.941118 (Simulation time: 0 hr 10 min 58 sec) 
Heartbeat CPU 0 instructions: 330000002 cycles: 286883722 heartbeat IPC: 1.12263 cumulative IPC: 0.947781 (Simulation time: 0 hr 11 min 21 sec) 
Heartbeat CPU 0 instructions: 340000000 cycles: 297147250 heartbeat IPC: 0.974324 cumulative IPC: 0.948858 (Simulation time: 0 hr 11 min 45 sec) 
Heartbeat CPU 0 instructions: 350000001 cycles: 306040012 heartbeat IPC: 1.12451 cumulative IPC: 0.954824 (Simulation time: 0 hr 12 min 7 sec) 
Heartbeat CPU 0 instructions: 360000000 cycles: 314889858 heartbeat IPC: 1.12996 cumulative IPC: 0.96055 (Simulation time: 0 hr 12 min 29 sec) 
Heartbeat CPU 0 instructions: 370000000 cycles: 323679507 heartbeat IPC: 1.1377 cumulative IPC: 0.966122 (Simulation time: 0 hr 12 min 50 sec) 
Heartbeat CPU 0 instructions: 380000000 cycles: 332371909 heartbeat IPC: 1.15043 cumulative IPC: 0.971682 (Simulation time: 0 hr 13 min 12 sec) 
Heartbeat CPU 0 instructions: 390000001 cycles: 340864720 heartbeat IPC: 1.17747 cumulative IPC: 0.977573 (Simulation time: 0 hr 13 min 33 sec) 
Heartbeat CPU 0 instructions: 400000000 cycles: 349406312 heartbeat IPC: 1.17074 cumulative IPC: 0.982979 (Simulation time: 0 hr 13 min 54 sec) 
Heartbeat CPU 0 instructions: 410000003 cycles: 357859905 heartbeat IPC: 1.18293 cumulative IPC: 0.988368 (Simulation time: 0 hr 14 min 15 sec) 
Heartbeat CPU 0 instructions: 420000000 cycles: 366373376 heartbeat IPC: 1.17461 cumulative IPC: 0.99329 (Simulation time: 0 hr 14 min 36 sec) 
Heartbeat CPU 0 instructions: 430000001 cycles: 374789370 heartbeat IPC: 1.18821 cumulative IPC: 0.998252 (Simulation time: 0 hr 14 min 57 sec) 
Heartbeat CPU 0 instructions: 440000000 cycles: 383147444 heartbeat IPC: 1.19645 cumulative IPC: 1.00314 (Simulation time: 0 hr 15 min 18 sec) 
Heartbeat CPU 0 instructions: 450000001 cycles: 392810124 heartbeat IPC: 1.03491 cumulative IPC: 1.00402 (Simulation time: 0 hr 15 min 41 sec) 
Heartbeat CPU 0 instructions: 460000000 cycles: 401186867 heartbeat IPC: 1.19378 cumulative IPC: 1.00847 (Simulation time: 0 hr 16 min 2 sec) 
Heartbeat CPU 0 instructions: 470000003 cycles: 409440225 heartbeat IPC: 1.21163 cumulative IPC: 1.01306 (Simulation time: 0 hr 16 min 23 sec) 
Heartbeat CPU 0 instructions: 480000000 cycles: 417724261 heartbeat IPC: 1.20714 cumulative IPC: 1.01737 (Simulation time: 0 hr 16 min 44 sec) 
Heartbeat CPU 0 instructions: 490000000 cycles: 425958228 heartbeat IPC: 1.21448 cumulative IPC: 1.02162 (Simulation time: 0 hr 17 min 4 sec) 
Heartbeat CPU 0 instructions: 500000000 cycles: 434212175 heartbeat IPC: 1.21154 cumulative IPC: 1.02564 (Simulation time: 0 hr 17 min 24 sec) 
Heartbeat CPU 0 instructions: 510000001 cycles: 442416608 heartbeat IPC: 1.21885 cumulative IPC: 1.02962 (Simulation time: 0 hr 17 min 45 sec) 
Heartbeat CPU 0 instructions: 520000000 cycles: 450660447 heartbeat IPC: 1.21303 cumulative IPC: 1.03334 (Simulation time: 0 hr 18 min 5 sec) 
Heartbeat CPU 0 instructions: 530000001 cycles: 458895519 heartbeat IPC: 1.21432 cumulative IPC: 1.03693 (Simulation time: 0 hr 18 min 25 sec) 
Heartbeat CPU 0 instructions: 540000000 cycles: 467320384 heartbeat IPC: 1.18696 cumulative IPC: 1.03992 (Simulation time: 0 hr 18 min 46 sec) 
Heartbeat CPU 0 instructions: 550000000 cycles: 475783877 heartbeat IPC: 1.18155 cumulative IPC: 1.0427 (Simulation time: 0 hr 19 min 7 sec) 
Heartbeat CPU 0 instructions: 560000000 cycles: 484015401 heartbeat IPC: 1.21484 cumulative IPC: 1.04592 (Simulation time: 0 hr 19 min 27 sec) 
Heartbeat CPU 0 instructions: 570000001 cycles: 495442564 heartbeat IPC: 0.875108 cumulative IPC: 1.0416 (Simulation time: 0 hr 19 min 49 sec) 
Heartbeat CPU 0 instructions: 580000000 cycles: 506542489 heartbeat IPC: 0.900907 cumulative IPC: 1.03822 (Simulation time: 0 hr 20 min 11 sec) 
Heartbeat CPU 0 instructions: 590000001 cycles: 517882930 heartbeat IPC: 0.8818 cumulative IPC: 1.03447 (Simulation time: 0 hr 20 min 34 sec) 
Heartbeat CPU 0 instructions: 600000000 cycles: 528889623 heartbeat IPC: 0.908538 cumulative IPC: 1.03161 (Simulation time: 0 hr 20 min 56 sec) 
Finished CPU 0 instructions: 500000001 cycles: 484677967 cumulative IPC: 1.03161 (Simulation time: 0 hr 20 min 56 sec) 

CPU 0 Branch Prediction Accuracy: 99.7422% MPKI: 0.173296
Number of Branches: 33608403 Number of Mispredictions: 86648
Number of LOAD Instructions: 180215231
Number of LOAD Instructions (ROI): 180215231
Number of STORE Instructions: 36067263
Number of STORE Instructions (ROI): 36067263
Total Destination Memory Operands: 38428915
Total Destination Memory Operands (ROI): 38428915
Total Source Memory Operands: 180215231
Total Source Memory Operands (ROI): 180215231
Number of DEPENDED LOADS: 3041396
Number of DEPENDED LOADS (ROI): 3041396
Number of SQ_ADDED: 38428892
Number of SQ_ADDED (ROI): 38428892
Number of LQ_ADDED: 207784473
Number of LQ_ADDED (ROI): 207784473
Number of Instructions read from trace: 600000257

ChampSim completed all CPUs

Region of Interest Statistics

CPU 0 cumulative IPC: 1.03161 instructions: 500000001 cycles: 484677967
ITLB TOTAL     ACCESS:   91933277  HIT:   91933258  MISS:         19
ITLB LOAD      ACCESS:   91933277  HIT:   91933258  MISS:         19
ITLB RFO       ACCESS:          0  HIT:          0  MISS:          0
ITLB PREFETCH  ACCESS:          0  HIT:          0  MISS:          0
ITLB WRITEBACK ACCESS:          0  HIT:          0  MISS:          0
ITLB PREFETCH  REQUESTED:          0  ISSUED:          0  USEFUL:          0  USELESS:          0
ITLB TOTAL MSHR MERGED:         40
ITLB LOAD MSHR MERGED:         40
ITLB RFO MSHR MERGED:          0
ITLB PREFETCH MSHR MERGED:          0
ITLB WRITEBACK MSHR MERGED:          0
ITLB TOTAL ACCESSES:   91933317 HITS:   91933258 MISSES:         59
ITLB LOAD ACCESSES:   91933317 HITS:   91933258 MISSES:         59
ITLB RFO ACCESSES:          0 HITS:          0 MISSES:          0
ITLB PREFETCH ACCESSES:          0 HITS:          0 MISSES:          0
ITLB WRITEBACK ACCESSES:          0 HITS:          0 MISSES:          0
ITLB RQ ACCESS:  500000003
ITLB RQ TO_CACHE:   91933317
ITLB RQ MERGED:  408066686
ITLB RQ FORWARD:          0
ITLB WQ ACCESS:          0
ITLB WQ TO_CACHE:          0
ITLB WQ MERGED:          0
ITLB WQ FORWARD:          0
DTLB TOTAL     ACCESS:  141982965  HIT:  141616503  MISS:     366462
DTLB LOAD      ACCESS:  119360179  HIT:  119046593  MISS:     313586
DTLB RFO       ACCESS:   22622786  HIT:   22569910  MISS:      52876
DTLB PREFETCH  ACCESS:          0  HIT:          0  MISS:          0
DTLB WRITEBACK ACCESS:          0  HIT:          0  MISS:          0
DTLB PREFETCH  REQUESTED:          0  ISSUED:          0  USEFUL:          0  USELESS:          0
DTLB TOTAL MSHR MERGED:     288001
DTLB LOAD MSHR MERGED:     239806
DTLB RFO MSHR MERGED:      48195
DTLB PREFETCH MSHR MERGED:          0
DTLB WRITEBACK MSHR MERGED:          0
DTLB TOTAL ACCESSES:  142270966 HITS:  141616503 MISSES:     654463
DTLB LOAD ACCESSES:  119599985 HITS:  119046593 MISSES:     553392
DTLB RFO ACCESSES:   22670981 HITS:   22569910 MISSES:     101071
DTLB PREFETCH ACCESSES:          0 HITS:          0 MISSES:          0
DTLB WRITEBACK ACCESSES:          0 HITS:          0 MISSES:          0
DTLB RQ ACCESS:  184791581
DTLB RQ TO_CACHE:  142270966
DTLB RQ MERGED:   42520615
DTLB RQ FORWARD:          0
DTLB WQ ACCESS:          0
DTLB WQ TO_CACHE:          0
DTLB WQ MERGED:          0
DTLB WQ FORWARD:          0
L1D TOTAL     ACCESS:  188712410  HIT:  175267999  MISS:   13444411
L1D LOAD      ACCESS:  111732380  HIT:  108334140  MISS:    3398240
L1D RFO       ACCESS:   18477344  HIT:   15695610  MISS:    2781734
L1D PREFETCH  ACCESS:   58502686  HIT:   51238249  MISS:    7264437
L1D WRITEBACK ACCESS:          0  HIT:          0  MISS:          0
L1D PREFETCH  REQUESTED:  116472318  ISSUED:  115111601  USEFUL:    7054938  USELESS:     209499
L1D TOTAL MSHR MERGED:   33125542
L1D LOAD MSHR MERGED:    7583006
L1D RFO MSHR MERGED:    9775291
L1D PREFETCH MSHR MERGED:   15767245
L1D WRITEBACK MSHR MERGED:          0
L1D TOTAL ACCESSES:  221838383 HITS:  175268429 MISSES:   46569954
L1D LOAD ACCESSES:  116472377 HITS:  108334199 MISSES:    8138178
L1D RFO ACCESSES:   28252588 HITS:   15695610 MISSES:   12556978
L1D PREFETCH ACCESSES:   77113418 HITS:   51238620 MISSES:   25874798
L1D WRITEBACK ACCESSES:          0 HITS:          0 MISSES:          0
L1D RQ ACCESS:  156535515
L1D RQ TO_CACHE:  116472321
L1D RQ MERGED:   40063135
L1D RQ FORWARD:          0
L1D WQ ACCESS:   28256066
L1D WQ TO_CACHE:   28252588
L1D WQ MERGED:       3478
L1D WQ FORWARD:        430
L1I TOTAL     ACCESS:  115924357  HIT:  115923409  MISS:        948
L1I LOAD      ACCESS:  115924357  HIT:  115923409  MISS:        948
L1I RFO       ACCESS:          0  HIT:          0  MISS:          0
L1I PREFETCH  ACCESS:          0  HIT:          0  MISS:          0
L1I WRITEBACK ACCESS:          0  HIT:          0  MISS:          0
L1I PREFETCH  REQUESTED:          0  ISSUED:          0  USEFUL:          0  USELESS:          0
L1I TOTAL MSHR MERGED:       1551
L1I LOAD MSHR MERGED:       1551
L1I RFO MSHR MERGED:          0
L1I PREFETCH MSHR MERGED:          0
L1I WRITEBACK MSHR MERGED:          0
L1I TOTAL ACCESSES:  115925908 HITS:  115923409 MISSES:       2499
L1I LOAD ACCESSES:  115925908 HITS:  115923409 MISSES:       2499
L1I RFO ACCESSES:          0 HITS:          0 MISSES:          0
L1I PREFETCH ACCESSES:          0 HITS:          0 MISSES:          0
L1I WRITEBACK ACCESSES:          0 HITS:          0 MISSES:          0
L1I RQ ACCESS:  500000007
L1I RQ TO_CACHE:  115925908
L1I RQ MERGED:  384074099
L1I RQ FORWARD:          0
L1I WQ ACCESS:          0
L1I WQ TO_CACHE:          0
L1I WQ MERGED:          0
L1I WQ FORWARD:          0
L2C TOTAL     ACCESS:   16689787  HIT:    4845113  MISS:   11844674
L2C LOAD      ACCESS:     556090  HIT:      95472  MISS:     460618
L2C RFO       ACCESS:    2781687  HIT:     266685  MISS:    2515002
L2C PREFETCH  ACCESS:   10131369  HIT:    1264588  MISS:    8866781
L2C WRITEBACK ACCESS:    3220641  HIT:    3218368  MISS:       2273
L2C PREFETCH  REQUESTED:      25824  ISSUED:      25824  USEFUL:      92875  USELESS:    8771958
L2C TOTAL MSHR MERGED:        556
L2C LOAD MSHR MERGED:          8
L2C RFO MSHR MERGED:          0
L2C PREFETCH MSHR MERGED:        548
L2C WRITEBACK MSHR MERGED:          0
L2C TOTAL ACCESSES:   16690458 HITS:    4845162 MISSES:   11845296
L2C LOAD ACCESSES:     556120 HITS:      95502 MISSES:     460618
L2C RFO ACCESSES:    2781687 HITS:     266685 MISSES:    2515002
L2C PREFETCH ACCESSES:   10132010 HITS:    1264607 MISSES:    8867403
L2C WRITEBACK ACCESSES:    3220641 HITS:    3218368 MISSES:       2273
L2C RQ ACCESS:    3337807
L2C RQ TO_CACHE:    3337777
L2C RQ MERGED:          0
L2C RQ FORWARD:          0
L2C WQ ACCESS:    3220641
L2C WQ TO_CACHE:    3220641
L2C WQ MERGED:          0
L2C WQ FORWARD:         49
LLC TOTAL     ACCESS:   14742762  HIT:    7130357  MISS:    7612405
LLC LOAD      ACCESS:     460606  HIT:     241408  MISS:     219198
LLC RFO       ACCESS:    2514978  HIT:    1708744  MISS:     806234
LLC PREFETCH  ACCESS:    8866793  HIT:    2904746  MISS:    5962047
LLC WRITEBACK ACCESS:    2900385  HIT:    2275459  MISS:     624926
LLC PREFETCH  REQUESTED:          0  ISSUED:          0  USEFUL:       3014  USELESS:    5958686
LLC TOTAL MSHR MERGED:          1
LLC LOAD MSHR MERGED:          0
LLC RFO MSHR MERGED:          0
LLC PREFETCH MSHR MERGED:          1
LLC WRITEBACK MSHR MERGED:          0
LLC TOTAL ACCESSES:   14742843 HITS:    7130436 MISSES:    7612407
LLC LOAD ACCESSES:     460610 HITS:     241412 MISSES:     219198
LLC RFO ACCESSES:    2515002 HITS:    1708768 MISSES:     806234
LLC PREFETCH ACCESSES:    8866846 HITS:    2904797 MISSES:    5962049
LLC WRITEBACK ACCESSES:    2900385 HITS:    2275459 MISSES:     624926
LLC 0 RQ ACCESS:    2975612
LLC 0 RQ TO_CACHE:    2975584
LLC 0 RQ MERGED:          0
LLC 0 RQ FORWARD:          0
LLC WQ ACCESS:    2900385
LLC WQ TO_CACHE:    2900385
LLC WQ MERGED:          0
LLC WQ FORWARD:         79
Major fault: 0 Minor fault: 57518
CPU 0 L1D next line prefetcher final stats
CPU 0 L2C PC-based stride prefetcher final stats
All Misses: 8275943
All Hits: 7963000
SD Algo Stats - Switches: 0 SRR-Repls: 226437 BRR-Repls: 0

DRAM Statistics
 CHANNEL 0
 RQ ROW_BUFFER_HIT:    3763067  ROW_BUFFER_MISS:    3219913
 DBUS_CONGESTED:    3325198
 WQ ROW_BUFFER_HIT:     119223  ROW_BUFFER_MISS:     963212  FULL:          0

 AVG_CONGESTED_CYCLE: 12
LOADS RETIRED: 157818985
INSTR RETIRED: 500000000
