
*** ChampSim Multicore Out-of-Order Simulator ***

Warmup Instructions: 100000000
Simulation Instructions: 500000000
Number of CPUs: 1
LLC sets: 2048
LLC ways: 16
Clean RRIP Policies: 1211230112112301 Dirty RRIP Policies: 1201130112011301 PSEL Width: 10 Track Set: 4294967295 PSEL Mask: 1 Demote Mask: 3040100030401000DS Algo: 0Window size: 0
Off-chip DRAM Size: 4096 MB Channels: 1 Width: 64-bit Data Rate: 1600 MT/s

CPU 0 runs /mnt/beegfs/iconst01/spec2017/Gcc.trace.gz
NOT SORTED
TRACE STRING: /mnt/beegfs/iconst01/spec2017/Gcc.trace.gz
SORTED
TRACE STRING: /mnt/beegfs/iconst01/spec2017/Gcc.trace.gz
INITIAL
TRACE STRING: /mnt/beegfs/iconst01/spec2017/Gcc.trace.gz

champsim_seed used: 269

CPU 0 L1D next line prefetcher
CPU 0 L2C IP-based stride prefetcher
Initialize DRRIP state
Assign rand_sets[0]: 454  LLC: 2048
rand_sets[0]: 454
Assign rand_sets[1]: 1662  LLC: 2048
rand_sets[1]: 1662
Assign rand_sets[2]: 1921  LLC: 2048
rand_sets[2]: 1921
Assign rand_sets[3]: 1131  LLC: 2048
rand_sets[3]: 1131
Assign rand_sets[4]: 331  LLC: 2048
rand_sets[4]: 331
Assign rand_sets[5]: 1531  LLC: 2048
rand_sets[5]: 1531
Assign rand_sets[6]: 482  LLC: 2048
rand_sets[6]: 482
Assign rand_sets[7]: 1275  LLC: 2048
rand_sets[7]: 1275
Assign rand_sets[8]: 1876  LLC: 2048
rand_sets[8]: 1876
Assign rand_sets[9]: 2038  LLC: 2048
rand_sets[9]: 2038
Assign rand_sets[10]: 701  LLC: 2048
rand_sets[10]: 701
Assign rand_sets[11]: 479  LLC: 2048
rand_sets[11]: 479
Assign rand_sets[12]: 892  LLC: 2048
rand_sets[12]: 892
Assign rand_sets[13]: 1820  LLC: 2048
rand_sets[13]: 1820
Assign rand_sets[14]: 1505  LLC: 2048
rand_sets[14]: 1505
Assign rand_sets[15]: 1159  LLC: 2048
rand_sets[15]: 1159
Assign rand_sets[16]: 513  LLC: 2048
rand_sets[16]: 513
Assign rand_sets[17]: 703  LLC: 2048
rand_sets[17]: 703
Assign rand_sets[18]: 561  LLC: 2048
rand_sets[18]: 561
Assign rand_sets[19]: 990  LLC: 2048
rand_sets[19]: 990
Assign rand_sets[20]: 342  LLC: 2048
rand_sets[20]: 342
Assign rand_sets[21]: 882  LLC: 2048
rand_sets[21]: 882
Assign rand_sets[22]: 15  LLC: 2048
rand_sets[22]: 15
Assign rand_sets[23]: 71  LLC: 2048
rand_sets[23]: 71
Assign rand_sets[24]: 1127  LLC: 2048
rand_sets[24]: 1127
Assign rand_sets[25]: 1382  LLC: 2048
rand_sets[25]: 1382
Assign rand_sets[26]: 647  LLC: 2048
rand_sets[26]: 647
Assign rand_sets[27]: 857  LLC: 2048
rand_sets[27]: 857
Assign rand_sets[28]: 1450  LLC: 2048
rand_sets[28]: 1450
Assign rand_sets[29]: 1160  LLC: 2048
rand_sets[29]: 1160
Assign rand_sets[30]: 1852  LLC: 2048
rand_sets[30]: 1852
Assign rand_sets[31]: 1881  LLC: 2048
rand_sets[31]: 1881
Assign rand_sets[32]: 1770  LLC: 2048
rand_sets[32]: 1770
Assign rand_sets[33]: 1622  LLC: 2048
rand_sets[33]: 1622
Assign rand_sets[34]: 275  LLC: 2048
rand_sets[34]: 275
Assign rand_sets[35]: 635  LLC: 2048
rand_sets[35]: 635
Assign rand_sets[36]: 466  LLC: 2048
rand_sets[36]: 466
Assign rand_sets[37]: 1413  LLC: 2048
rand_sets[37]: 1413
Assign rand_sets[38]: 417  LLC: 2048
rand_sets[38]: 417
Assign rand_sets[39]: 472  LLC: 2048
rand_sets[39]: 472
Assign rand_sets[40]: 1340  LLC: 2048
rand_sets[40]: 1340
Assign rand_sets[41]: 852  LLC: 2048
rand_sets[41]: 852
Assign rand_sets[42]: 1365  LLC: 2048
rand_sets[42]: 1365
Assign rand_sets[43]: 47  LLC: 2048
rand_sets[43]: 47
Assign rand_sets[44]: 823  LLC: 2048
rand_sets[44]: 823
Assign rand_sets[45]: 686  LLC: 2048
rand_sets[45]: 686
Assign rand_sets[46]: 1637  LLC: 2048
rand_sets[46]: 1637
Assign rand_sets[47]: 1115  LLC: 2048
rand_sets[47]: 1115
Assign rand_sets[48]: 986  LLC: 2048
rand_sets[48]: 986
Assign rand_sets[49]: 258  LLC: 2048
rand_sets[49]: 258
Assign rand_sets[50]: 633  LLC: 2048
rand_sets[50]: 633
Assign rand_sets[51]: 920  LLC: 2048
rand_sets[51]: 920
Assign rand_sets[52]: 204  LLC: 2048
rand_sets[52]: 204
Assign rand_sets[53]: 227  LLC: 2048
rand_sets[53]: 227
Assign rand_sets[54]: 1818  LLC: 2048
rand_sets[54]: 1818
Assign rand_sets[55]: 886  LLC: 2048
rand_sets[55]: 886
Assign rand_sets[56]: 1422  LLC: 2048
rand_sets[56]: 1422
Assign rand_sets[57]: 607  LLC: 2048
rand_sets[57]: 607
Assign rand_sets[58]: 217  LLC: 2048
rand_sets[58]: 217
Assign rand_sets[59]: 1945  LLC: 2048
rand_sets[59]: 1945
Assign rand_sets[60]: 143  LLC: 2048
rand_sets[60]: 143
Assign rand_sets[61]: 1311  LLC: 2048
rand_sets[61]: 1311
Assign rand_sets[62]: 319  LLC: 2048
rand_sets[62]: 319
Assign rand_sets[63]: 1846  LLC: 2048
rand_sets[63]: 1846
 CLEAN-RRIP-POLICY-1: 1-2-1-1-2-3-0-1- CLEAN-RRIP-POLICY-2: 1-2-1-1-2-3-0-1-
 DIRTY-RRIP-POLICY-1: 1-2-0-1-1-3-0-1- DIRTY-RRIP-POLICY-2: 1-2-0-1-1-3-0-1-
 PSEL width: 10
Heartbeat CPU 0 instructions: 10000001 cycles: 7315905 heartbeat IPC: 1.36689 cumulative IPC: 1.36689 (Simulation time: 0 hr 0 min 14 sec) 
Heartbeat CPU 0 instructions: 20000000 cycles: 14307830 heartbeat IPC: 1.43022 cumulative IPC: 1.39784 (Simulation time: 0 hr 0 min 28 sec) 
Heartbeat CPU 0 instructions: 30000001 cycles: 21021065 heartbeat IPC: 1.48959 cumulative IPC: 1.42714 (Simulation time: 0 hr 0 min 43 sec) 
Heartbeat CPU 0 instructions: 40000000 cycles: 27481992 heartbeat IPC: 1.54777 cumulative IPC: 1.4555 (Simulation time: 0 hr 0 min 58 sec) 
Heartbeat CPU 0 instructions: 50000001 cycles: 33584037 heartbeat IPC: 1.6388 cumulative IPC: 1.4888 (Simulation time: 0 hr 1 min 13 sec) 
Heartbeat CPU 0 instructions: 60000000 cycles: 40065416 heartbeat IPC: 1.54288 cumulative IPC: 1.49755 (Simulation time: 0 hr 1 min 28 sec) 
Heartbeat CPU 0 instructions: 70000000 cycles: 47105702 heartbeat IPC: 1.4204 cumulative IPC: 1.48602 (Simulation time: 0 hr 1 min 42 sec) 
Heartbeat CPU 0 instructions: 80000000 cycles: 54196081 heartbeat IPC: 1.41036 cumulative IPC: 1.47612 (Simulation time: 0 hr 1 min 56 sec) 
Heartbeat CPU 0 instructions: 90000003 cycles: 61201145 heartbeat IPC: 1.42754 cumulative IPC: 1.47056 (Simulation time: 0 hr 2 min 10 sec) 
Heartbeat CPU 0 instructions: 100000000 cycles: 68369304 heartbeat IPC: 1.39506 cumulative IPC: 1.46264 (Simulation time: 0 hr 2 min 24 sec) 

Warmup complete CPU 0 instructions: 100000004 cycles: 68369305 (Simulation time: 0 hr 2 min 24 sec) 

Heartbeat CPU 0 instructions: 110000003 cycles: 96114132 heartbeat IPC: 0.360428 cumulative IPC: 0.360427 (Simulation time: 0 hr 2 min 51 sec) 
Heartbeat CPU 0 instructions: 120000000 cycles: 123614643 heartbeat IPC: 0.363629 cumulative IPC: 0.362021 (Simulation time: 0 hr 3 min 18 sec) 
Heartbeat CPU 0 instructions: 130000000 cycles: 148655027 heartbeat IPC: 0.399355 cumulative IPC: 0.373665 (Simulation time: 0 hr 3 min 44 sec) 
Heartbeat CPU 0 instructions: 140000000 cycles: 178385552 heartbeat IPC: 0.336355 cumulative IPC: 0.363583 (Simulation time: 0 hr 4 min 11 sec) 
Heartbeat CPU 0 instructions: 150000000 cycles: 208337049 heartbeat IPC: 0.333873 cumulative IPC: 0.357225 (Simulation time: 0 hr 4 min 37 sec) 
Heartbeat CPU 0 instructions: 160000000 cycles: 235799974 heartbeat IPC: 0.364127 cumulative IPC: 0.358357 (Simulation time: 0 hr 5 min 3 sec) 
Heartbeat CPU 0 instructions: 170000001 cycles: 263923006 heartbeat IPC: 0.35558 cumulative IPC: 0.357958 (Simulation time: 0 hr 5 min 31 sec) 
Heartbeat CPU 0 instructions: 180000000 cycles: 292476855 heartbeat IPC: 0.350215 cumulative IPC: 0.356971 (Simulation time: 0 hr 5 min 59 sec) 
Heartbeat CPU 0 instructions: 190000002 cycles: 320660523 heartbeat IPC: 0.354815 cumulative IPC: 0.356731 (Simulation time: 0 hr 6 min 25 sec) 
Heartbeat CPU 0 instructions: 200000000 cycles: 349101460 heartbeat IPC: 0.351606 cumulative IPC: 0.356211 (Simulation time: 0 hr 6 min 53 sec) 
Heartbeat CPU 0 instructions: 210000002 cycles: 377096727 heartbeat IPC: 0.357203 cumulative IPC: 0.356301 (Simulation time: 0 hr 7 min 20 sec) 
Heartbeat CPU 0 instructions: 220000000 cycles: 406432516 heartbeat IPC: 0.34088 cumulative IPC: 0.354963 (Simulation time: 0 hr 7 min 46 sec) 
Heartbeat CPU 0 instructions: 230000000 cycles: 434041640 heartbeat IPC: 0.362199 cumulative IPC: 0.35551 (Simulation time: 0 hr 8 min 12 sec) 
Heartbeat CPU 0 instructions: 240000000 cycles: 459951824 heartbeat IPC: 0.385949 cumulative IPC: 0.357524 (Simulation time: 0 hr 8 min 37 sec) 
Heartbeat CPU 0 instructions: 250000000 cycles: 490140078 heartbeat IPC: 0.331255 cumulative IPC: 0.355643 (Simulation time: 0 hr 9 min 5 sec) 
Heartbeat CPU 0 instructions: 260000000 cycles: 517263653 heartbeat IPC: 0.368683 cumulative IPC: 0.356431 (Simulation time: 0 hr 9 min 32 sec) 
Heartbeat CPU 0 instructions: 270000003 cycles: 545804230 heartbeat IPC: 0.350378 cumulative IPC: 0.356069 (Simulation time: 0 hr 9 min 59 sec) 
Heartbeat CPU 0 instructions: 280000000 cycles: 574110408 heartbeat IPC: 0.35328 cumulative IPC: 0.355913 (Simulation time: 0 hr 10 min 27 sec) 
Heartbeat CPU 0 instructions: 290000000 cycles: 603119827 heartbeat IPC: 0.344716 cumulative IPC: 0.355306 (Simulation time: 0 hr 10 min 55 sec) 
Heartbeat CPU 0 instructions: 300000000 cycles: 633351894 heartbeat IPC: 0.330775 cumulative IPC: 0.353993 (Simulation time: 0 hr 11 min 22 sec) 
Heartbeat CPU 0 instructions: 310000001 cycles: 662857265 heartbeat IPC: 0.338921 cumulative IPC: 0.353245 (Simulation time: 0 hr 11 min 48 sec) 
Heartbeat CPU 0 instructions: 320000000 cycles: 691247534 heartbeat IPC: 0.352233 cumulative IPC: 0.353199 (Simulation time: 0 hr 12 min 15 sec) 
Heartbeat CPU 0 instructions: 330000000 cycles: 720018784 heartbeat IPC: 0.347569 cumulative IPC: 0.35295 (Simulation time: 0 hr 12 min 41 sec) 
Heartbeat CPU 0 instructions: 340000000 cycles: 749424202 heartbeat IPC: 0.340073 cumulative IPC: 0.352394 (Simulation time: 0 hr 13 min 7 sec) 
Heartbeat CPU 0 instructions: 350000003 cycles: 776573977 heartbeat IPC: 0.368327 cumulative IPC: 0.353005 (Simulation time: 0 hr 13 min 33 sec) 
Heartbeat CPU 0 instructions: 360000000 cycles: 804783804 heartbeat IPC: 0.354486 cumulative IPC: 0.353062 (Simulation time: 0 hr 13 min 58 sec) 
Heartbeat CPU 0 instructions: 370000000 cycles: 832974414 heartbeat IPC: 0.354728 cumulative IPC: 0.353123 (Simulation time: 0 hr 14 min 24 sec) 
Heartbeat CPU 0 instructions: 380000000 cycles: 861516068 heartbeat IPC: 0.350365 cumulative IPC: 0.353024 (Simulation time: 0 hr 14 min 49 sec) 
Heartbeat CPU 0 instructions: 390000001 cycles: 889133875 heartbeat IPC: 0.362085 cumulative IPC: 0.353329 (Simulation time: 0 hr 15 min 14 sec) 
Heartbeat CPU 0 instructions: 400000000 cycles: 917810363 heartbeat IPC: 0.348718 cumulative IPC: 0.353173 (Simulation time: 0 hr 15 min 39 sec) 
Heartbeat CPU 0 instructions: 410000001 cycles: 945083189 heartbeat IPC: 0.366665 cumulative IPC: 0.353593 (Simulation time: 0 hr 16 min 4 sec) 
Heartbeat CPU 0 instructions: 420000000 cycles: 972368101 heartbeat IPC: 0.366503 cumulative IPC: 0.353983 (Simulation time: 0 hr 16 min 29 sec) 
Heartbeat CPU 0 instructions: 430000002 cycles: 1000099088 heartbeat IPC: 0.360608 cumulative IPC: 0.35418 (Simulation time: 0 hr 16 min 54 sec) 
Heartbeat CPU 0 instructions: 440000000 cycles: 1029795267 heartbeat IPC: 0.336744 cumulative IPC: 0.353641 (Simulation time: 0 hr 17 min 19 sec) 
Heartbeat CPU 0 instructions: 450000002 cycles: 1059147154 heartbeat IPC: 0.340694 cumulative IPC: 0.353258 (Simulation time: 0 hr 17 min 45 sec) 
Heartbeat CPU 0 instructions: 460000000 cycles: 1086856665 heartbeat IPC: 0.360887 cumulative IPC: 0.353465 (Simulation time: 0 hr 18 min 10 sec) 
Heartbeat CPU 0 instructions: 470000000 cycles: 1114478907 heartbeat IPC: 0.362027 cumulative IPC: 0.353691 (Simulation time: 0 hr 18 min 35 sec) 
Heartbeat CPU 0 instructions: 480000000 cycles: 1142350016 heartbeat IPC: 0.358794 cumulative IPC: 0.353824 (Simulation time: 0 hr 19 min 0 sec) 
Heartbeat CPU 0 instructions: 490000000 cycles: 1169926203 heartbeat IPC: 0.362632 cumulative IPC: 0.354044 (Simulation time: 0 hr 19 min 25 sec) 
Heartbeat CPU 0 instructions: 500000000 cycles: 1198280249 heartbeat IPC: 0.352683 cumulative IPC: 0.35401 (Simulation time: 0 hr 19 min 50 sec) 
Heartbeat CPU 0 instructions: 510000000 cycles: 1232632445 heartbeat IPC: 0.291102 cumulative IPC: 0.352154 (Simulation time: 0 hr 20 min 19 sec) 
Heartbeat CPU 0 instructions: 520000000 cycles: 1260620828 heartbeat IPC: 0.357291 cumulative IPC: 0.352275 (Simulation time: 0 hr 20 min 45 sec) 
Heartbeat CPU 0 instructions: 530000001 cycles: 1290039370 heartbeat IPC: 0.339922 cumulative IPC: 0.351977 (Simulation time: 0 hr 21 min 11 sec) 
Heartbeat CPU 0 instructions: 540000000 cycles: 1318131542 heartbeat IPC: 0.355971 cumulative IPC: 0.352067 (Simulation time: 0 hr 21 min 37 sec) 
Heartbeat CPU 0 instructions: 550000001 cycles: 1347351107 heartbeat IPC: 0.342236 cumulative IPC: 0.351842 (Simulation time: 0 hr 22 min 5 sec) 
Heartbeat CPU 0 instructions: 560000000 cycles: 1372771838 heartbeat IPC: 0.39338 cumulative IPC: 0.352652 (Simulation time: 0 hr 22 min 31 sec) 
Heartbeat CPU 0 instructions: 570000000 cycles: 1402493470 heartbeat IPC: 0.336455 cumulative IPC: 0.352291 (Simulation time: 0 hr 22 min 57 sec) 
Heartbeat CPU 0 instructions: 580000000 cycles: 1430540173 heartbeat IPC: 0.356548 cumulative IPC: 0.352379 (Simulation time: 0 hr 23 min 24 sec) 
Heartbeat CPU 0 instructions: 590000001 cycles: 1455256160 heartbeat IPC: 0.404596 cumulative IPC: 0.353309 (Simulation time: 0 hr 23 min 48 sec) 
Heartbeat CPU 0 instructions: 600000000 cycles: 1481282044 heartbeat IPC: 0.384233 cumulative IPC: 0.353879 (Simulation time: 0 hr 24 min 14 sec) 
Finished CPU 0 instructions: 500000000 cycles: 1412912761 cumulative IPC: 0.353879 (Simulation time: 0 hr 24 min 14 sec) 

CPU 0 Branch Prediction Accuracy: 86.4311% MPKI: 26.2662
Number of Branches: 96788573 Number of Mispredictions: 13133102
Number of LOAD Instructions: 164682285
Number of LOAD Instructions (ROI): 164682285
Number of STORE Instructions: 78194750
Number of STORE Instructions (ROI): 78194750
Total Destination Memory Operands: 83268534
Total Destination Memory Operands (ROI): 83268534
Total Source Memory Operands: 164712438
Total Source Memory Operands (ROI): 164712438
Number of DEPENDED LOADS: 7057367
Number of DEPENDED LOADS (ROI): 7057367
Number of SQ_ADDED: 83268522
Number of SQ_ADDED (ROI): 83268522
Number of LQ_ADDED: 236530286
Number of LQ_ADDED (ROI): 236530286
Number of Instructions read from trace: 600000066

ChampSim completed all CPUs

Region of Interest Statistics

CPU 0 cumulative IPC: 0.353879 instructions: 500000000 cycles: 1412912761
ITLB TOTAL     ACCESS:  100517517  HIT:  100313071  MISS:     204446
ITLB LOAD      ACCESS:  100517517  HIT:  100313071  MISS:     204446
ITLB RFO       ACCESS:          0  HIT:          0  MISS:          0
ITLB PREFETCH  ACCESS:          0  HIT:          0  MISS:          0
ITLB WRITEBACK ACCESS:          0  HIT:          0  MISS:          0
ITLB PREFETCH  REQUESTED:          0  ISSUED:          0  USEFUL:          0  USELESS:          0
ITLB TOTAL MSHR MERGED:     172424
ITLB LOAD MSHR MERGED:     172424
ITLB RFO MSHR MERGED:          0
ITLB PREFETCH MSHR MERGED:          0
ITLB WRITEBACK MSHR MERGED:          0
ITLB TOTAL ACCESSES:  100689941 HITS:  100313071 MISSES:     376870
ITLB LOAD ACCESSES:  100689941 HITS:  100313071 MISSES:     376870
ITLB RFO ACCESSES:          0 HITS:          0 MISSES:          0
ITLB PREFETCH ACCESSES:          0 HITS:          0 MISSES:          0
ITLB WRITEBACK ACCESSES:          0 HITS:          0 MISSES:          0
ITLB RQ ACCESS:  500000057
ITLB RQ TO_CACHE:  100689941
ITLB RQ MERGED:  399310116
ITLB RQ FORWARD:          0
ITLB WQ ACCESS:          0
ITLB WQ TO_CACHE:          0
ITLB WQ MERGED:          0
ITLB WQ FORWARD:          0
DTLB TOTAL     ACCESS:  165340424  HIT:  164706075  MISS:     634349
DTLB LOAD      ACCESS:  106295090  HIT:  105725141  MISS:     569949
DTLB RFO       ACCESS:   59045334  HIT:   58980934  MISS:      64400
DTLB PREFETCH  ACCESS:          0  HIT:          0  MISS:          0
DTLB WRITEBACK ACCESS:          0  HIT:          0  MISS:          0
DTLB PREFETCH  REQUESTED:          0  ISSUED:          0  USEFUL:          0  USELESS:          0
DTLB TOTAL MSHR MERGED:      99904
DTLB LOAD MSHR MERGED:      59416
DTLB RFO MSHR MERGED:      40488
DTLB PREFETCH MSHR MERGED:          0
DTLB WRITEBACK MSHR MERGED:          0
DTLB TOTAL ACCESSES:  165440328 HITS:  164706075 MISSES:     734253
DTLB LOAD ACCESSES:  106354506 HITS:  105725141 MISSES:     629365
DTLB RFO ACCESSES:   59085822 HITS:   58980934 MISSES:     104888
DTLB PREFETCH ACCESSES:          0 HITS:          0 MISSES:          0
DTLB WRITEBACK ACCESSES:          0 HITS:          0 MISSES:          0
DTLB RQ ACCESS:  200313519
DTLB RQ TO_CACHE:  165440328
DTLB RQ MERGED:   34873191
DTLB RQ FORWARD:          0
DTLB WQ ACCESS:          0
DTLB WQ TO_CACHE:          0
DTLB WQ MERGED:          0
DTLB WQ FORWARD:          0
L1D TOTAL     ACCESS:  281882710  HIT:  273973292  MISS:    7909418
L1D LOAD      ACCESS:  110432361  HIT:  107158462  MISS:    3273899
L1D RFO       ACCESS:   67125150  HIT:   66234839  MISS:     890311
L1D PREFETCH  ACCESS:  104325199  HIT:  100579991  MISS:    3745208
L1D WRITEBACK ACCESS:          0  HIT:          0  MISS:          0
L1D PREFETCH  REQUESTED:  110819660  ISSUED:  109120284  USEFUL:    1665833  USELESS:    2079339
L1D TOTAL MSHR MERGED:    2826933
L1D LOAD MSHR MERGED:     480737
L1D RFO MSHR MERGED:    1860535
L1D PREFETCH MSHR MERGED:     485661
L1D WRITEBACK MSHR MERGED:          0
L1D TOTAL ACCESSES:  284737047 HITS:  274000696 MISSES:   10736351
L1D LOAD ACCESSES:  110821081 HITS:  107159883 MISSES:    3661198
L1D RFO ACCESSES:   68974189 HITS:   66234839 MISSES:    2739350
L1D PREFETCH ACCESSES:  104941777 HITS:  100605974 MISSES:    4335803
L1D WRITEBACK ACCESSES:          0 HITS:          0 MISSES:          0
L1D RQ ACCESS:  130760916
L1D RQ TO_CACHE:  110819663
L1D RQ MERGED:   19939832
L1D RQ FORWARD:          0
L1D WQ ACCESS:   69552603
L1D WQ TO_CACHE:   68974190
L1D WQ MERGED:     578413
L1D WQ FORWARD:      27404
L1I TOTAL     ACCESS:  126564633  HIT:  122326081  MISS:    4238552
L1I LOAD      ACCESS:  126564633  HIT:  122326081  MISS:    4238552
L1I RFO       ACCESS:          0  HIT:          0  MISS:          0
L1I PREFETCH  ACCESS:          0  HIT:          0  MISS:          0
L1I WRITEBACK ACCESS:          0  HIT:          0  MISS:          0
L1I PREFETCH  REQUESTED:          0  ISSUED:          0  USEFUL:          0  USELESS:          0
L1I TOTAL MSHR MERGED:    1834930
L1I LOAD MSHR MERGED:    1834930
L1I RFO MSHR MERGED:          0
L1I PREFETCH MSHR MERGED:          0
L1I WRITEBACK MSHR MERGED:          0
L1I TOTAL ACCESSES:  128399566 HITS:  122326081 MISSES:    6073485
L1I LOAD ACCESSES:  128399566 HITS:  122326081 MISSES:    6073485
L1I RFO ACCESSES:          0 HITS:          0 MISSES:          0
L1I PREFETCH ACCESSES:          0 HITS:          0 MISSES:          0
L1I WRITEBACK ACCESSES:          0 HITS:          0 MISSES:          0
L1I RQ ACCESS:  500000057
L1I RQ TO_CACHE:  128399566
L1I RQ MERGED:  371600491
L1I RQ FORWARD:          0
L1I WQ ACCESS:          0
L1I WQ TO_CACHE:          0
L1I WQ MERGED:          0
L1I WQ FORWARD:          0
L2C TOTAL     ACCESS:   14905776  HIT:   11159387  MISS:    3746389
L2C LOAD      ACCESS:    7418807  HIT:    5098991  MISS:    2319816
L2C RFO       ACCESS:     878717  HIT:     409933  MISS:     468784
L2C PREFETCH  ACCESS:    4568991  HIT:    3628456  MISS:     940535
L2C WRITEBACK ACCESS:    2039261  HIT:    2022007  MISS:      17254
L2C PREFETCH  REQUESTED:     842798  ISSUED:     842798  USEFUL:     203483  USELESS:     736758
L2C TOTAL MSHR MERGED:       6664
L2C LOAD MSHR MERGED:        713
L2C RFO MSHR MERGED:          0
L2C PREFETCH MSHR MERGED:       5951
L2C WRITEBACK MSHR MERGED:          0
L2C TOTAL ACCESSES:   14913306 HITS:   11159836 MISSES:    3753470
L2C LOAD ACCESSES:    7419013 HITS:    5099197 MISSES:    2319816
L2C RFO ACCESSES:     878815 HITS:     410031 MISSES:     468784
L2C PREFETCH ACCESSES:    4576217 HITS:    3628601 MISSES:     947616
L2C WRITEBACK ACCESSES:    2039261 HITS:    2022007 MISSES:      17254
L2C RQ ACCESS:    8297831
L2C RQ TO_CACHE:    8297527
L2C RQ MERGED:          0
L2C RQ FORWARD:          0
L2C WQ ACCESS:    2039261
L2C WQ TO_CACHE:    2039261
L2C WQ MERGED:          0
L2C WQ FORWARD:        449
LLC TOTAL     ACCESS:    4609666  HIT:    4024123  MISS:     585543
LLC LOAD      ACCESS:    2319090  HIT:    2029710  MISS:     289380
LLC RFO       ACCESS:     468773  HIT:     413808  MISS:      54965
LLC PREFETCH  ACCESS:     941553  HIT:     722336  MISS:     219217
LLC WRITEBACK ACCESS:     880250  HIT:     858269  MISS:      21981
LLC PREFETCH  REQUESTED:          0  ISSUED:          0  USEFUL:      34160  USELESS:     185574
LLC TOTAL MSHR MERGED:         87
LLC LOAD MSHR MERGED:         28
LLC RFO MSHR MERGED:          0
LLC PREFETCH MSHR MERGED:         59
LLC WRITEBACK MSHR MERGED:          0
LLC TOTAL ACCESSES:    4609788 HITS:    4024158 MISSES:     585630
LLC LOAD ACCESSES:    2319103 HITS:    2029723 MISSES:     289380
LLC RFO ACCESSES:     468784 HITS:     413819 MISSES:      54965
LLC PREFETCH ACCESSES:     941651 HITS:     722347 MISSES:     219304
LLC WRITEBACK ACCESSES:     880250 HITS:     858269 MISSES:      21981
LLC 0 RQ ACCESS:    2787887
LLC 0 RQ TO_CACHE:    2787863
LLC 0 RQ MERGED:          0
LLC 0 RQ FORWARD:          0
LLC WQ ACCESS:     880250
LLC WQ TO_CACHE:     880250
LLC WQ MERGED:          0
LLC WQ FORWARD:         35
Major fault: 0 Minor fault: 12862
CPU 0 L1D next line prefetcher final stats
CPU 0 L2C PC-based stride prefetcher final stats
All Misses: 701175
All Hits: 4725497
SD Algo Stats - Switches: 0 SRR-Repls: 341826 BRR-Repls: 0

DRAM Statistics
 CHANNEL 0
 RQ ROW_BUFFER_HIT:     129435  ROW_BUFFER_MISS:     433532
 DBUS_CONGESTED:     328453
 WQ ROW_BUFFER_HIT:      12199  ROW_BUFFER_MISS:     153652  FULL:          0

 AVG_CONGESTED_CYCLE: 13
LOADS RETIRED: 136549171
INSTR RETIRED: 500000000
