
*** ChampSim Multicore Out-of-Order Simulator ***

Warmup Instructions: 100000000
Simulation Instructions: 500000000
Number of CPUs: 1
LLC sets: 2048
LLC ways: 16
Clean RRIP Policies: 1213132112131321 Dirty RRIP Policies: 2203130122031301 PSEL Width: 10 Track Set: 4294967295 PSEL Mask: 1 Demote Mask: 3040201030402010DS Algo: 0Window size: 0
Off-chip DRAM Size: 4096 MB Channels: 1 Width: 64-bit Data Rate: 1600 MT/s

CPU 0 runs /mnt/beegfs/iconst01/spec2017/Blender.trace.gz
NOT SORTED
TRACE STRING: /mnt/beegfs/iconst01/spec2017/Blender.trace.gz
SORTED
TRACE STRING: /mnt/beegfs/iconst01/spec2017/Blender.trace.gz
INITIAL
TRACE STRING: /mnt/beegfs/iconst01/spec2017/Blender.trace.gz

champsim_seed used: 700

CPU 0 L1D next line prefetcher
CPU 0 L2C IP-based stride prefetcher
Initialize DRRIP state
Assign rand_sets[0]: 454  LLC: 2048
rand_sets[0]: 454
Assign rand_sets[1]: 1662  LLC: 2048
rand_sets[1]: 1662
Assign rand_sets[2]: 1921  LLC: 2048
rand_sets[2]: 1921
Assign rand_sets[3]: 1131  LLC: 2048
rand_sets[3]: 1131
Assign rand_sets[4]: 331  LLC: 2048
rand_sets[4]: 331
Assign rand_sets[5]: 1531  LLC: 2048
rand_sets[5]: 1531
Assign rand_sets[6]: 482  LLC: 2048
rand_sets[6]: 482
Assign rand_sets[7]: 1275  LLC: 2048
rand_sets[7]: 1275
Assign rand_sets[8]: 1876  LLC: 2048
rand_sets[8]: 1876
Assign rand_sets[9]: 2038  LLC: 2048
rand_sets[9]: 2038
Assign rand_sets[10]: 701  LLC: 2048
rand_sets[10]: 701
Assign rand_sets[11]: 479  LLC: 2048
rand_sets[11]: 479
Assign rand_sets[12]: 892  LLC: 2048
rand_sets[12]: 892
Assign rand_sets[13]: 1820  LLC: 2048
rand_sets[13]: 1820
Assign rand_sets[14]: 1505  LLC: 2048
rand_sets[14]: 1505
Assign rand_sets[15]: 1159  LLC: 2048
rand_sets[15]: 1159
Assign rand_sets[16]: 513  LLC: 2048
rand_sets[16]: 513
Assign rand_sets[17]: 703  LLC: 2048
rand_sets[17]: 703
Assign rand_sets[18]: 561  LLC: 2048
rand_sets[18]: 561
Assign rand_sets[19]: 990  LLC: 2048
rand_sets[19]: 990
Assign rand_sets[20]: 342  LLC: 2048
rand_sets[20]: 342
Assign rand_sets[21]: 882  LLC: 2048
rand_sets[21]: 882
Assign rand_sets[22]: 15  LLC: 2048
rand_sets[22]: 15
Assign rand_sets[23]: 71  LLC: 2048
rand_sets[23]: 71
Assign rand_sets[24]: 1127  LLC: 2048
rand_sets[24]: 1127
Assign rand_sets[25]: 1382  LLC: 2048
rand_sets[25]: 1382
Assign rand_sets[26]: 647  LLC: 2048
rand_sets[26]: 647
Assign rand_sets[27]: 857  LLC: 2048
rand_sets[27]: 857
Assign rand_sets[28]: 1450  LLC: 2048
rand_sets[28]: 1450
Assign rand_sets[29]: 1160  LLC: 2048
rand_sets[29]: 1160
Assign rand_sets[30]: 1852  LLC: 2048
rand_sets[30]: 1852
Assign rand_sets[31]: 1881  LLC: 2048
rand_sets[31]: 1881
Assign rand_sets[32]: 1770  LLC: 2048
rand_sets[32]: 1770
Assign rand_sets[33]: 1622  LLC: 2048
rand_sets[33]: 1622
Assign rand_sets[34]: 275  LLC: 2048
rand_sets[34]: 275
Assign rand_sets[35]: 635  LLC: 2048
rand_sets[35]: 635
Assign rand_sets[36]: 466  LLC: 2048
rand_sets[36]: 466
Assign rand_sets[37]: 1413  LLC: 2048
rand_sets[37]: 1413
Assign rand_sets[38]: 417  LLC: 2048
rand_sets[38]: 417
Assign rand_sets[39]: 472  LLC: 2048
rand_sets[39]: 472
Assign rand_sets[40]: 1340  LLC: 2048
rand_sets[40]: 1340
Assign rand_sets[41]: 852  LLC: 2048
rand_sets[41]: 852
Assign rand_sets[42]: 1365  LLC: 2048
rand_sets[42]: 1365
Assign rand_sets[43]: 47  LLC: 2048
rand_sets[43]: 47
Assign rand_sets[44]: 823  LLC: 2048
rand_sets[44]: 823
Assign rand_sets[45]: 686  LLC: 2048
rand_sets[45]: 686
Assign rand_sets[46]: 1637  LLC: 2048
rand_sets[46]: 1637
Assign rand_sets[47]: 1115  LLC: 2048
rand_sets[47]: 1115
Assign rand_sets[48]: 986  LLC: 2048
rand_sets[48]: 986
Assign rand_sets[49]: 258  LLC: 2048
rand_sets[49]: 258
Assign rand_sets[50]: 633  LLC: 2048
rand_sets[50]: 633
Assign rand_sets[51]: 920  LLC: 2048
rand_sets[51]: 920
Assign rand_sets[52]: 204  LLC: 2048
rand_sets[52]: 204
Assign rand_sets[53]: 227  LLC: 2048
rand_sets[53]: 227
Assign rand_sets[54]: 1818  LLC: 2048
rand_sets[54]: 1818
Assign rand_sets[55]: 886  LLC: 2048
rand_sets[55]: 886
Assign rand_sets[56]: 1422  LLC: 2048
rand_sets[56]: 1422
Assign rand_sets[57]: 607  LLC: 2048
rand_sets[57]: 607
Assign rand_sets[58]: 217  LLC: 2048
rand_sets[58]: 217
Assign rand_sets[59]: 1945  LLC: 2048
rand_sets[59]: 1945
Assign rand_sets[60]: 143  LLC: 2048
rand_sets[60]: 143
Assign rand_sets[61]: 1311  LLC: 2048
rand_sets[61]: 1311
Assign rand_sets[62]: 319  LLC: 2048
rand_sets[62]: 319
Assign rand_sets[63]: 1846  LLC: 2048
rand_sets[63]: 1846
 CLEAN-RRIP-POLICY-1: 1-2-1-3-1-3-2-1- CLEAN-RRIP-POLICY-2: 1-2-1-3-1-3-2-1-
 DIRTY-RRIP-POLICY-1: 2-2-0-3-1-3-0-1- DIRTY-RRIP-POLICY-2: 2-2-0-3-1-3-0-1-
 PSEL width: 10
Heartbeat CPU 0 instructions: 10000002 cycles: 5480930 heartbeat IPC: 1.82451 cumulative IPC: 1.82451 (Simulation time: 0 hr 0 min 13 sec) 
Heartbeat CPU 0 instructions: 20000000 cycles: 10913522 heartbeat IPC: 1.84074 cumulative IPC: 1.83259 (Simulation time: 0 hr 0 min 26 sec) 
Heartbeat CPU 0 instructions: 30000000 cycles: 16447728 heartbeat IPC: 1.80694 cumulative IPC: 1.82396 (Simulation time: 0 hr 0 min 39 sec) 
Heartbeat CPU 0 instructions: 40000000 cycles: 21898975 heartbeat IPC: 1.83444 cumulative IPC: 1.82657 (Simulation time: 0 hr 0 min 52 sec) 
Heartbeat CPU 0 instructions: 50000000 cycles: 27401428 heartbeat IPC: 1.81737 cumulative IPC: 1.82472 (Simulation time: 0 hr 1 min 4 sec) 
Heartbeat CPU 0 instructions: 60000000 cycles: 32780681 heartbeat IPC: 1.85899 cumulative IPC: 1.83035 (Simulation time: 0 hr 1 min 18 sec) 
Heartbeat CPU 0 instructions: 70000001 cycles: 38337376 heartbeat IPC: 1.79963 cumulative IPC: 1.82589 (Simulation time: 0 hr 1 min 30 sec) 
Heartbeat CPU 0 instructions: 80000000 cycles: 43797803 heartbeat IPC: 1.83136 cumulative IPC: 1.82658 (Simulation time: 0 hr 1 min 43 sec) 
Heartbeat CPU 0 instructions: 90000000 cycles: 49245263 heartbeat IPC: 1.83572 cumulative IPC: 1.82759 (Simulation time: 0 hr 1 min 56 sec) 
Heartbeat CPU 0 instructions: 100000000 cycles: 54790779 heartbeat IPC: 1.80326 cumulative IPC: 1.82512 (Simulation time: 0 hr 2 min 9 sec) 

Warmup complete CPU 0 instructions: 100000002 cycles: 54790780 (Simulation time: 0 hr 2 min 9 sec) 

Heartbeat CPU 0 instructions: 110000001 cycles: 69353357 heartbeat IPC: 0.686692 cumulative IPC: 0.686692 (Simulation time: 0 hr 2 min 27 sec) 
Heartbeat CPU 0 instructions: 120000000 cycles: 84571647 heartbeat IPC: 0.657104 cumulative IPC: 0.671572 (Simulation time: 0 hr 2 min 46 sec) 
Heartbeat CPU 0 instructions: 130000000 cycles: 99229528 heartbeat IPC: 0.682227 cumulative IPC: 0.675086 (Simulation time: 0 hr 3 min 5 sec) 
Heartbeat CPU 0 instructions: 140000000 cycles: 113673722 heartbeat IPC: 0.69232 cumulative IPC: 0.679314 (Simulation time: 0 hr 3 min 23 sec) 
Heartbeat CPU 0 instructions: 150000000 cycles: 128587171 heartbeat IPC: 0.670536 cumulative IPC: 0.67754 (Simulation time: 0 hr 3 min 42 sec) 
Heartbeat CPU 0 instructions: 160000000 cycles: 143905914 heartbeat IPC: 0.652795 cumulative IPC: 0.673286 (Simulation time: 0 hr 4 min 0 sec) 
Heartbeat CPU 0 instructions: 170000001 cycles: 158950455 heartbeat IPC: 0.664693 cumulative IPC: 0.672045 (Simulation time: 0 hr 4 min 19 sec) 
Heartbeat CPU 0 instructions: 180000000 cycles: 174095623 heartbeat IPC: 0.660277 cumulative IPC: 0.670551 (Simulation time: 0 hr 4 min 37 sec) 
Heartbeat CPU 0 instructions: 190000002 cycles: 188730156 heartbeat IPC: 0.683315 cumulative IPC: 0.671946 (Simulation time: 0 hr 4 min 56 sec) 
Heartbeat CPU 0 instructions: 200000000 cycles: 203227316 heartbeat IPC: 0.68979 cumulative IPC: 0.673689 (Simulation time: 0 hr 5 min 14 sec) 
Heartbeat CPU 0 instructions: 210000003 cycles: 217972747 heartbeat IPC: 0.678176 cumulative IPC: 0.674094 (Simulation time: 0 hr 5 min 33 sec) 
Heartbeat CPU 0 instructions: 220000000 cycles: 232860024 heartbeat IPC: 0.671714 cumulative IPC: 0.673895 (Simulation time: 0 hr 5 min 52 sec) 
Heartbeat CPU 0 instructions: 230000001 cycles: 248193546 heartbeat IPC: 0.652166 cumulative IPC: 0.672172 (Simulation time: 0 hr 6 min 11 sec) 
Heartbeat CPU 0 instructions: 240000000 cycles: 263265972 heartbeat IPC: 0.663463 cumulative IPC: 0.671543 (Simulation time: 0 hr 6 min 29 sec) 
Heartbeat CPU 0 instructions: 250000003 cycles: 278253580 heartbeat IPC: 0.667218 cumulative IPC: 0.671253 (Simulation time: 0 hr 6 min 47 sec) 
Heartbeat CPU 0 instructions: 260000000 cycles: 293967280 heartbeat IPC: 0.636387 cumulative IPC: 0.668962 (Simulation time: 0 hr 7 min 6 sec) 
Heartbeat CPU 0 instructions: 270000003 cycles: 308701619 heartbeat IPC: 0.678687 cumulative IPC: 0.669526 (Simulation time: 0 hr 7 min 25 sec) 
Heartbeat CPU 0 instructions: 280000000 cycles: 323348821 heartbeat IPC: 0.682724 cumulative IPC: 0.670246 (Simulation time: 0 hr 7 min 43 sec) 
Heartbeat CPU 0 instructions: 290000002 cycles: 337958143 heartbeat IPC: 0.684495 cumulative IPC: 0.670981 (Simulation time: 0 hr 8 min 2 sec) 
Heartbeat CPU 0 instructions: 300000000 cycles: 353560354 heartbeat IPC: 0.640935 cumulative IPC: 0.669412 (Simulation time: 0 hr 8 min 21 sec) 
Heartbeat CPU 0 instructions: 310000000 cycles: 368728869 heartbeat IPC: 0.65926 cumulative IPC: 0.668922 (Simulation time: 0 hr 8 min 39 sec) 
Heartbeat CPU 0 instructions: 320000000 cycles: 383686066 heartbeat IPC: 0.668574 cumulative IPC: 0.668906 (Simulation time: 0 hr 8 min 58 sec) 
Heartbeat CPU 0 instructions: 330000000 cycles: 399735175 heartbeat IPC: 0.623088 cumulative IPC: 0.666774 (Simulation time: 0 hr 9 min 16 sec) 
Heartbeat CPU 0 instructions: 340000000 cycles: 414518099 heartbeat IPC: 0.676456 cumulative IPC: 0.667172 (Simulation time: 0 hr 9 min 35 sec) 
Heartbeat CPU 0 instructions: 350000000 cycles: 429326914 heartbeat IPC: 0.675273 cumulative IPC: 0.667492 (Simulation time: 0 hr 9 min 53 sec) 
Heartbeat CPU 0 instructions: 360000000 cycles: 444139897 heartbeat IPC: 0.675083 cumulative IPC: 0.667781 (Simulation time: 0 hr 10 min 12 sec) 
Heartbeat CPU 0 instructions: 370000002 cycles: 459766241 heartbeat IPC: 0.639945 cumulative IPC: 0.666707 (Simulation time: 0 hr 10 min 30 sec) 
Heartbeat CPU 0 instructions: 380000000 cycles: 474781313 heartbeat IPC: 0.665997 cumulative IPC: 0.666682 (Simulation time: 0 hr 10 min 49 sec) 
Heartbeat CPU 0 instructions: 390000003 cycles: 489915225 heartbeat IPC: 0.660768 cumulative IPC: 0.666476 (Simulation time: 0 hr 11 min 7 sec) 
Heartbeat CPU 0 instructions: 400000000 cycles: 506013785 heartbeat IPC: 0.621173 cumulative IPC: 0.66486 (Simulation time: 0 hr 11 min 26 sec) 
Heartbeat CPU 0 instructions: 410000001 cycles: 521239968 heartbeat IPC: 0.656763 cumulative IPC: 0.664595 (Simulation time: 0 hr 11 min 45 sec) 
Heartbeat CPU 0 instructions: 420000000 cycles: 536145586 heartbeat IPC: 0.670888 cumulative IPC: 0.66479 (Simulation time: 0 hr 12 min 3 sec) 
Heartbeat CPU 0 instructions: 430000000 cycles: 551771944 heartbeat IPC: 0.639944 cumulative IPC: 0.664009 (Simulation time: 0 hr 12 min 21 sec) 
Heartbeat CPU 0 instructions: 440000000 cycles: 566719765 heartbeat IPC: 0.668994 cumulative IPC: 0.664155 (Simulation time: 0 hr 12 min 40 sec) 
Heartbeat CPU 0 instructions: 450000000 cycles: 581879129 heartbeat IPC: 0.659658 cumulative IPC: 0.664025 (Simulation time: 0 hr 12 min 58 sec) 
Heartbeat CPU 0 instructions: 460000000 cycles: 597848564 heartbeat IPC: 0.626196 cumulative IPC: 0.662913 (Simulation time: 0 hr 13 min 16 sec) 
Heartbeat CPU 0 instructions: 470000000 cycles: 613133963 heartbeat IPC: 0.654219 cumulative IPC: 0.662675 (Simulation time: 0 hr 13 min 34 sec) 
Heartbeat CPU 0 instructions: 480000000 cycles: 628156045 heartbeat IPC: 0.665687 cumulative IPC: 0.662754 (Simulation time: 0 hr 13 min 52 sec) 
Heartbeat CPU 0 instructions: 490000002 cycles: 643626166 heartbeat IPC: 0.646407 cumulative IPC: 0.662324 (Simulation time: 0 hr 14 min 11 sec) 
Heartbeat CPU 0 instructions: 500000000 cycles: 658653022 heartbeat IPC: 0.665475 cumulative IPC: 0.662403 (Simulation time: 0 hr 14 min 29 sec) 
Heartbeat CPU 0 instructions: 510000001 cycles: 673947176 heartbeat IPC: 0.653845 cumulative IPC: 0.662191 (Simulation time: 0 hr 14 min 47 sec) 
Heartbeat CPU 0 instructions: 520000000 cycles: 689647168 heartbeat IPC: 0.636943 cumulative IPC: 0.661567 (Simulation time: 0 hr 15 min 5 sec) 
Heartbeat CPU 0 instructions: 530000001 cycles: 705305973 heartbeat IPC: 0.638618 cumulative IPC: 0.661015 (Simulation time: 0 hr 15 min 24 sec) 
Heartbeat CPU 0 instructions: 540000000 cycles: 720050791 heartbeat IPC: 0.678204 cumulative IPC: 0.661396 (Simulation time: 0 hr 15 min 42 sec) 
Heartbeat CPU 0 instructions: 550000001 cycles: 735477505 heartbeat IPC: 0.648226 cumulative IPC: 0.661097 (Simulation time: 0 hr 16 min 0 sec) 
Heartbeat CPU 0 instructions: 560000000 cycles: 750415457 heartbeat IPC: 0.669436 cumulative IPC: 0.661276 (Simulation time: 0 hr 16 min 18 sec) 
Heartbeat CPU 0 instructions: 570000002 cycles: 765759204 heartbeat IPC: 0.651731 cumulative IPC: 0.66107 (Simulation time: 0 hr 16 min 36 sec) 
Heartbeat CPU 0 instructions: 580000000 cycles: 780951080 heartbeat IPC: 0.658246 cumulative IPC: 0.661011 (Simulation time: 0 hr 16 min 54 sec) 
Heartbeat CPU 0 instructions: 590000001 cycles: 796118019 heartbeat IPC: 0.659329 cumulative IPC: 0.660977 (Simulation time: 0 hr 17 min 12 sec) 
Heartbeat CPU 0 instructions: 600000000 cycles: 810947761 heartbeat IPC: 0.674321 cumulative IPC: 0.661238 (Simulation time: 0 hr 17 min 30 sec) 
Finished CPU 0 instructions: 500000000 cycles: 756156989 cumulative IPC: 0.661238 (Simulation time: 0 hr 17 min 30 sec) 

CPU 0 Branch Prediction Accuracy: 93.7783% MPKI: 10.0718
Number of Branches: 80940586 Number of Mispredictions: 5035908
Number of LOAD Instructions: 184238101
Number of LOAD Instructions (ROI): 184238101
Number of STORE Instructions: 33143298
Number of STORE Instructions (ROI): 33143298
Total Destination Memory Operands: 33324321
Total Destination Memory Operands (ROI): 33324321
Total Source Memory Operands: 184238101
Total Source Memory Operands (ROI): 184238101
Number of DEPENDED LOADS: 4461381
Number of DEPENDED LOADS (ROI): 4461381
Number of SQ_ADDED: 33324292
Number of SQ_ADDED (ROI): 33324292
Number of LQ_ADDED: 184870350
Number of LQ_ADDED (ROI): 184870350
Number of Instructions read from trace: 600000256

ChampSim completed all CPUs

Region of Interest Statistics

CPU 0 cumulative IPC: 0.661238 instructions: 500000000 cycles: 756156989
ITLB TOTAL     ACCESS:   77749856  HIT:   77749856  MISS:          0
ITLB LOAD      ACCESS:   77749856  HIT:   77749856  MISS:          0
ITLB RFO       ACCESS:          0  HIT:          0  MISS:          0
ITLB PREFETCH  ACCESS:          0  HIT:          0  MISS:          0
ITLB WRITEBACK ACCESS:          0  HIT:          0  MISS:          0
ITLB PREFETCH  REQUESTED:          0  ISSUED:          0  USEFUL:          0  USELESS:          0
ITLB TOTAL MSHR MERGED:          0
ITLB LOAD MSHR MERGED:          0
ITLB RFO MSHR MERGED:          0
ITLB PREFETCH MSHR MERGED:          0
ITLB WRITEBACK MSHR MERGED:          0
ITLB TOTAL ACCESSES:   77749856 HITS:   77749856 MISSES:          0
ITLB LOAD ACCESSES:   77749856 HITS:   77749856 MISSES:          0
ITLB RFO ACCESSES:          0 HITS:          0 MISSES:          0
ITLB PREFETCH ACCESSES:          0 HITS:          0 MISSES:          0
ITLB WRITEBACK ACCESSES:          0 HITS:          0 MISSES:          0
ITLB RQ ACCESS:  500000245
ITLB RQ TO_CACHE:   77749856
ITLB RQ MERGED:  422250389
ITLB RQ FORWARD:          0
ITLB WQ ACCESS:          0
ITLB WQ TO_CACHE:          0
ITLB WQ MERGED:          0
ITLB WQ FORWARD:          0
DTLB TOTAL     ACCESS:   88438884  HIT:   87302035  MISS:    1136849
DTLB LOAD      ACCESS:   66312216  HIT:   65179607  MISS:    1132609
DTLB RFO       ACCESS:   22126668  HIT:   22122428  MISS:       4240
DTLB PREFETCH  ACCESS:          0  HIT:          0  MISS:          0
DTLB WRITEBACK ACCESS:          0  HIT:          0  MISS:          0
DTLB PREFETCH  REQUESTED:          0  ISSUED:          0  USEFUL:          0  USELESS:          0
DTLB TOTAL MSHR MERGED:     135565
DTLB LOAD MSHR MERGED:     133748
DTLB RFO MSHR MERGED:       1817
DTLB PREFETCH MSHR MERGED:          0
DTLB WRITEBACK MSHR MERGED:          0
DTLB TOTAL ACCESSES:   88574449 HITS:   87302035 MISSES:    1272414
DTLB LOAD ACCESSES:   66445964 HITS:   65179607 MISSES:    1266357
DTLB RFO ACCESSES:   22128485 HITS:   22122428 MISSES:       6057
DTLB PREFETCH ACCESSES:          0 HITS:          0 MISSES:          0
DTLB WRITEBACK ACCESSES:          0 HITS:          0 MISSES:          0
DTLB RQ ACCESS:  177579369
DTLB RQ TO_CACHE:   88574449
DTLB RQ MERGED:   89004920
DTLB RQ FORWARD:          0
DTLB WQ ACCESS:          0
DTLB WQ TO_CACHE:          0
DTLB WQ MERGED:          0
DTLB WQ FORWARD:          0
L1D TOTAL     ACCESS:  142109182  HIT:  136550128  MISS:    5559054
L1D LOAD      ACCESS:   61386524  HIT:   58283988  MISS:    3102536
L1D RFO       ACCESS:   27669075  HIT:   27587280  MISS:      81795
L1D PREFETCH  ACCESS:   53053583  HIT:   50678860  MISS:    2374723
L1D WRITEBACK ACCESS:          0  HIT:          0  MISS:          0
L1D PREFETCH  REQUESTED:   61674582  ISSUED:   60756381  USEFUL:     667839  USELESS:    1706889
L1D TOTAL MSHR MERGED:    1177656
L1D LOAD MSHR MERGED:     384950
L1D RFO MSHR MERGED:     164003
L1D PREFETCH MSHR MERGED:     628703
L1D WRITEBACK MSHR MERGED:          0
L1D TOTAL ACCESSES:  143384457 HITS:  136647747 MISSES:    6736710
L1D LOAD ACCESSES:   61674594 HITS:   58284000 MISSES:    3390594
L1D RFO ACCESSES:   27829284 HITS:   27587280 MISSES:     242004
L1D PREFETCH ACCESSES:   53880579 HITS:   50776467 MISSES:    3104112
L1D WRITEBACK ACCESSES:          0 HITS:          0 MISSES:          0
L1D RQ ACCESS:  149746403
L1D RQ TO_CACHE:   61674582
L1D RQ MERGED:   88071809
L1D RQ FORWARD:          0
L1D WQ ACCESS:   27832966
L1D WQ TO_CACHE:   27829284
L1D WQ MERGED:       3682
L1D WQ FORWARD:      97619
L1I TOTAL     ACCESS:   96226894  HIT:   96067650  MISS:     159244
L1I LOAD      ACCESS:   96226894  HIT:   96067650  MISS:     159244
L1I RFO       ACCESS:          0  HIT:          0  MISS:          0
L1I PREFETCH  ACCESS:          0  HIT:          0  MISS:          0
L1I WRITEBACK ACCESS:          0  HIT:          0  MISS:          0
L1I PREFETCH  REQUESTED:          0  ISSUED:          0  USEFUL:          0  USELESS:          0
L1I TOTAL MSHR MERGED:     130380
L1I LOAD MSHR MERGED:     130380
L1I RFO MSHR MERGED:          0
L1I PREFETCH MSHR MERGED:          0
L1I WRITEBACK MSHR MERGED:          0
L1I TOTAL ACCESSES:   96357274 HITS:   96067650 MISSES:     289624
L1I LOAD ACCESSES:   96357274 HITS:   96067650 MISSES:     289624
L1I RFO ACCESSES:          0 HITS:          0 MISSES:          0
L1I PREFETCH ACCESSES:          0 HITS:          0 MISSES:          0
L1I WRITEBACK ACCESSES:          0 HITS:          0 MISSES:          0
L1I RQ ACCESS:  500000245
L1I RQ TO_CACHE:   96357274
L1I RQ MERGED:  403642971
L1I RQ FORWARD:          0
L1I WQ ACCESS:          0
L1I WQ TO_CACHE:          0
L1I WQ MERGED:          0
L1I WQ FORWARD:          0
L2C TOTAL     ACCESS:    5911477  HIT:    3062831  MISS:    2848646
L2C LOAD      ACCESS:    3164878  HIT:    1583240  MISS:    1581638
L2C RFO       ACCESS:      77927  HIT:      45080  MISS:      32847
L2C PREFETCH  ACCESS:    2525147  HIT:    1296569  MISS:    1228578
L2C WRITEBACK ACCESS:     143525  HIT:     137942  MISS:       5583
L2C PREFETCH  REQUESTED:      52727  ISSUED:      52727  USEFUL:      18893  USELESS:    1209725
L2C TOTAL MSHR MERGED:       2055
L2C LOAD MSHR MERGED:        722
L2C RFO MSHR MERGED:          0
L2C PREFETCH MSHR MERGED:       1333
L2C WRITEBACK MSHR MERGED:          0
L2C TOTAL ACCESSES:    5913624 HITS:    3062915 MISSES:    2850709
L2C LOAD ACCESSES:    3164888 HITS:    1583250 MISSES:    1581638
L2C RFO ACCESSES:      78001 HITS:      45154 MISSES:      32847
L2C PREFETCH ACCESSES:    2527210 HITS:    1296569 MISSES:    1230641
L2C WRITEBACK ACCESSES:     143525 HITS:     137942 MISSES:       5583
L2C RQ ACCESS:    3242889
L2C RQ TO_CACHE:    3242805
L2C RQ MERGED:          0
L2C RQ FORWARD:          0
L2C WQ ACCESS:     143525
L2C WQ TO_CACHE:     143525
L2C WQ MERGED:          0
L2C WQ FORWARD:         84
LLC TOTAL     ACCESS:    2892607  HIT:    1776747  MISS:    1115860
LLC LOAD      ACCESS:    1580916  HIT:    1060073  MISS:     520843
LLC RFO       ACCESS:      32838  HIT:      32497  MISS:        341
LLC PREFETCH  ACCESS:    1229308  HIT:     635081  MISS:     594227
LLC WRITEBACK ACCESS:      49545  HIT:      49096  MISS:        449
LLC PREFETCH  REQUESTED:          0  ISSUED:          0  USEFUL:       3411  USELESS:     590805
LLC TOTAL MSHR MERGED:          0
LLC LOAD MSHR MERGED:          0
LLC RFO MSHR MERGED:          0
LLC PREFETCH MSHR MERGED:          0
LLC WRITEBACK MSHR MERGED:          0
LLC TOTAL ACCESSES:    2892616 HITS:    1776756 MISSES:    1115860
LLC LOAD ACCESSES:    1580916 HITS:    1060073 MISSES:     520843
LLC RFO ACCESSES:      32847 HITS:      32506 MISSES:        341
LLC PREFETCH ACCESSES:    1229308 HITS:     635081 MISSES:     594227
LLC WRITEBACK ACCESSES:      49545 HITS:      49096 MISSES:        449
LLC 0 RQ ACCESS:    1613763
LLC 0 RQ TO_CACHE:    1613754
LLC 0 RQ MERGED:          0
LLC 0 RQ FORWARD:          0
LLC WQ ACCESS:      49545
LLC WQ TO_CACHE:      49545
LLC WQ MERGED:          0
LLC WQ FORWARD:          9
Major fault: 0 Minor fault: 8460
CPU 0 L1D next line prefetcher final stats
CPU 0 L2C PC-based stride prefetcher final stats
All Misses: 1356035
All Hits: 2073168
SD Algo Stats - Switches: 0 SRR-Repls: 601259 BRR-Repls: 0

DRAM Statistics
 CHANNEL 0
 RQ ROW_BUFFER_HIT:     385521  ROW_BUFFER_MISS:     729705
 DBUS_CONGESTED:     351699
 WQ ROW_BUFFER_HIT:         61  ROW_BUFFER_MISS:        724  FULL:          0

 AVG_CONGESTED_CYCLE: 12
LOADS RETIRED: 153532848
INSTR RETIRED: 500000000
