
*** ChampSim Multicore Out-of-Order Simulator ***

Warmup Instructions: 100000000
Simulation Instructions: 500000000
Number of CPUs: 1
LLC sets: 2048
LLC ways: 16
Clean RRIP Policies: 1113010111130101 Dirty RRIP Policies: 2113010121130101 PSEL Width: 10 Track Set: 4294967295 PSEL Mask: 1 Demote Mask: 3000114430001144DS Algo: 0Window size: 0
Off-chip DRAM Size: 4096 MB Channels: 1 Width: 64-bit Data Rate: 1600 MT/s

CPU 0 runs /mnt/beegfs/iconst01/spec2017/Gcc.trace.gz
NOT SORTED
TRACE STRING: /mnt/beegfs/iconst01/spec2017/Gcc.trace.gz
SORTED
TRACE STRING: /mnt/beegfs/iconst01/spec2017/Gcc.trace.gz
INITIAL
TRACE STRING: /mnt/beegfs/iconst01/spec2017/Gcc.trace.gz

champsim_seed used: 269

CPU 0 L1D next line prefetcher
CPU 0 L2C IP-based stride prefetcher
Initialize DRRIP state
Assign rand_sets[0]: 454  LLC: 2048
rand_sets[0]: 454
Assign rand_sets[1]: 1662  LLC: 2048
rand_sets[1]: 1662
Assign rand_sets[2]: 1921  LLC: 2048
rand_sets[2]: 1921
Assign rand_sets[3]: 1131  LLC: 2048
rand_sets[3]: 1131
Assign rand_sets[4]: 331  LLC: 2048
rand_sets[4]: 331
Assign rand_sets[5]: 1531  LLC: 2048
rand_sets[5]: 1531
Assign rand_sets[6]: 482  LLC: 2048
rand_sets[6]: 482
Assign rand_sets[7]: 1275  LLC: 2048
rand_sets[7]: 1275
Assign rand_sets[8]: 1876  LLC: 2048
rand_sets[8]: 1876
Assign rand_sets[9]: 2038  LLC: 2048
rand_sets[9]: 2038
Assign rand_sets[10]: 701  LLC: 2048
rand_sets[10]: 701
Assign rand_sets[11]: 479  LLC: 2048
rand_sets[11]: 479
Assign rand_sets[12]: 892  LLC: 2048
rand_sets[12]: 892
Assign rand_sets[13]: 1820  LLC: 2048
rand_sets[13]: 1820
Assign rand_sets[14]: 1505  LLC: 2048
rand_sets[14]: 1505
Assign rand_sets[15]: 1159  LLC: 2048
rand_sets[15]: 1159
Assign rand_sets[16]: 513  LLC: 2048
rand_sets[16]: 513
Assign rand_sets[17]: 703  LLC: 2048
rand_sets[17]: 703
Assign rand_sets[18]: 561  LLC: 2048
rand_sets[18]: 561
Assign rand_sets[19]: 990  LLC: 2048
rand_sets[19]: 990
Assign rand_sets[20]: 342  LLC: 2048
rand_sets[20]: 342
Assign rand_sets[21]: 882  LLC: 2048
rand_sets[21]: 882
Assign rand_sets[22]: 15  LLC: 2048
rand_sets[22]: 15
Assign rand_sets[23]: 71  LLC: 2048
rand_sets[23]: 71
Assign rand_sets[24]: 1127  LLC: 2048
rand_sets[24]: 1127
Assign rand_sets[25]: 1382  LLC: 2048
rand_sets[25]: 1382
Assign rand_sets[26]: 647  LLC: 2048
rand_sets[26]: 647
Assign rand_sets[27]: 857  LLC: 2048
rand_sets[27]: 857
Assign rand_sets[28]: 1450  LLC: 2048
rand_sets[28]: 1450
Assign rand_sets[29]: 1160  LLC: 2048
rand_sets[29]: 1160
Assign rand_sets[30]: 1852  LLC: 2048
rand_sets[30]: 1852
Assign rand_sets[31]: 1881  LLC: 2048
rand_sets[31]: 1881
Assign rand_sets[32]: 1770  LLC: 2048
rand_sets[32]: 1770
Assign rand_sets[33]: 1622  LLC: 2048
rand_sets[33]: 1622
Assign rand_sets[34]: 275  LLC: 2048
rand_sets[34]: 275
Assign rand_sets[35]: 635  LLC: 2048
rand_sets[35]: 635
Assign rand_sets[36]: 466  LLC: 2048
rand_sets[36]: 466
Assign rand_sets[37]: 1413  LLC: 2048
rand_sets[37]: 1413
Assign rand_sets[38]: 417  LLC: 2048
rand_sets[38]: 417
Assign rand_sets[39]: 472  LLC: 2048
rand_sets[39]: 472
Assign rand_sets[40]: 1340  LLC: 2048
rand_sets[40]: 1340
Assign rand_sets[41]: 852  LLC: 2048
rand_sets[41]: 852
Assign rand_sets[42]: 1365  LLC: 2048
rand_sets[42]: 1365
Assign rand_sets[43]: 47  LLC: 2048
rand_sets[43]: 47
Assign rand_sets[44]: 823  LLC: 2048
rand_sets[44]: 823
Assign rand_sets[45]: 686  LLC: 2048
rand_sets[45]: 686
Assign rand_sets[46]: 1637  LLC: 2048
rand_sets[46]: 1637
Assign rand_sets[47]: 1115  LLC: 2048
rand_sets[47]: 1115
Assign rand_sets[48]: 986  LLC: 2048
rand_sets[48]: 986
Assign rand_sets[49]: 258  LLC: 2048
rand_sets[49]: 258
Assign rand_sets[50]: 633  LLC: 2048
rand_sets[50]: 633
Assign rand_sets[51]: 920  LLC: 2048
rand_sets[51]: 920
Assign rand_sets[52]: 204  LLC: 2048
rand_sets[52]: 204
Assign rand_sets[53]: 227  LLC: 2048
rand_sets[53]: 227
Assign rand_sets[54]: 1818  LLC: 2048
rand_sets[54]: 1818
Assign rand_sets[55]: 886  LLC: 2048
rand_sets[55]: 886
Assign rand_sets[56]: 1422  LLC: 2048
rand_sets[56]: 1422
Assign rand_sets[57]: 607  LLC: 2048
rand_sets[57]: 607
Assign rand_sets[58]: 217  LLC: 2048
rand_sets[58]: 217
Assign rand_sets[59]: 1945  LLC: 2048
rand_sets[59]: 1945
Assign rand_sets[60]: 143  LLC: 2048
rand_sets[60]: 143
Assign rand_sets[61]: 1311  LLC: 2048
rand_sets[61]: 1311
Assign rand_sets[62]: 319  LLC: 2048
rand_sets[62]: 319
Assign rand_sets[63]: 1846  LLC: 2048
rand_sets[63]: 1846
 CLEAN-RRIP-POLICY-1: 1-1-1-3-0-1-0-1- CLEAN-RRIP-POLICY-2: 1-1-1-3-0-1-0-1-
 DIRTY-RRIP-POLICY-1: 2-1-1-3-0-1-0-1- DIRTY-RRIP-POLICY-2: 2-1-1-3-0-1-0-1-
 PSEL width: 10
Heartbeat CPU 0 instructions: 10000001 cycles: 7315980 heartbeat IPC: 1.36687 cumulative IPC: 1.36687 (Simulation time: 0 hr 0 min 15 sec) 
Heartbeat CPU 0 instructions: 20000000 cycles: 14307364 heartbeat IPC: 1.43033 cumulative IPC: 1.39788 (Simulation time: 0 hr 0 min 30 sec) 
Heartbeat CPU 0 instructions: 30000001 cycles: 21020043 heartbeat IPC: 1.48972 cumulative IPC: 1.42721 (Simulation time: 0 hr 0 min 47 sec) 
Heartbeat CPU 0 instructions: 40000000 cycles: 27480799 heartbeat IPC: 1.54781 cumulative IPC: 1.45556 (Simulation time: 0 hr 1 min 3 sec) 
Heartbeat CPU 0 instructions: 50000001 cycles: 33582360 heartbeat IPC: 1.63893 cumulative IPC: 1.48888 (Simulation time: 0 hr 1 min 19 sec) 
Heartbeat CPU 0 instructions: 60000000 cycles: 40063399 heartbeat IPC: 1.54296 cumulative IPC: 1.49763 (Simulation time: 0 hr 1 min 35 sec) 
Heartbeat CPU 0 instructions: 70000000 cycles: 47100251 heartbeat IPC: 1.42109 cumulative IPC: 1.48619 (Simulation time: 0 hr 1 min 51 sec) 
Heartbeat CPU 0 instructions: 80000000 cycles: 54189465 heartbeat IPC: 1.41059 cumulative IPC: 1.4763 (Simulation time: 0 hr 2 min 6 sec) 
Heartbeat CPU 0 instructions: 90000003 cycles: 61193497 heartbeat IPC: 1.42775 cumulative IPC: 1.47074 (Simulation time: 0 hr 2 min 20 sec) 
Heartbeat CPU 0 instructions: 100000000 cycles: 68360280 heartbeat IPC: 1.39533 cumulative IPC: 1.46284 (Simulation time: 0 hr 2 min 35 sec) 

Warmup complete CPU 0 instructions: 100000004 cycles: 68360281 (Simulation time: 0 hr 2 min 35 sec) 

Heartbeat CPU 0 instructions: 110000003 cycles: 95939139 heartbeat IPC: 0.362597 cumulative IPC: 0.362597 (Simulation time: 0 hr 3 min 5 sec) 
Heartbeat CPU 0 instructions: 120000000 cycles: 123369745 heartbeat IPC: 0.364556 cumulative IPC: 0.363574 (Simulation time: 0 hr 3 min 35 sec) 
Heartbeat CPU 0 instructions: 130000000 cycles: 148351416 heartbeat IPC: 0.400293 cumulative IPC: 0.375042 (Simulation time: 0 hr 4 min 4 sec) 
Heartbeat CPU 0 instructions: 140000000 cycles: 177657879 heartbeat IPC: 0.341222 cumulative IPC: 0.365973 (Simulation time: 0 hr 4 min 33 sec) 
Heartbeat CPU 0 instructions: 150000000 cycles: 207451674 heartbeat IPC: 0.33564 cumulative IPC: 0.359476 (Simulation time: 0 hr 5 min 3 sec) 
Heartbeat CPU 0 instructions: 160000000 cycles: 234826803 heartbeat IPC: 0.365295 cumulative IPC: 0.360433 (Simulation time: 0 hr 5 min 32 sec) 
Heartbeat CPU 0 instructions: 170000001 cycles: 262799521 heartbeat IPC: 0.357491 cumulative IPC: 0.36001 (Simulation time: 0 hr 6 min 3 sec) 
Heartbeat CPU 0 instructions: 180000000 cycles: 291165698 heartbeat IPC: 0.352532 cumulative IPC: 0.359058 (Simulation time: 0 hr 6 min 33 sec) 
Heartbeat CPU 0 instructions: 190000002 cycles: 319087827 heartbeat IPC: 0.358139 cumulative IPC: 0.358955 (Simulation time: 0 hr 7 min 2 sec) 
Heartbeat CPU 0 instructions: 200000000 cycles: 347368638 heartbeat IPC: 0.353597 cumulative IPC: 0.358412 (Simulation time: 0 hr 7 min 33 sec) 
Heartbeat CPU 0 instructions: 210000002 cycles: 375127919 heartbeat IPC: 0.36024 cumulative IPC: 0.358578 (Simulation time: 0 hr 8 min 2 sec) 
Heartbeat CPU 0 instructions: 220000000 cycles: 404097272 heartbeat IPC: 0.345192 cumulative IPC: 0.357423 (Simulation time: 0 hr 8 min 31 sec) 
Heartbeat CPU 0 instructions: 230000000 cycles: 431600307 heartbeat IPC: 0.363596 cumulative IPC: 0.35789 (Simulation time: 0 hr 9 min 0 sec) 
Heartbeat CPU 0 instructions: 240000000 cycles: 457564528 heartbeat IPC: 0.385145 cumulative IPC: 0.359708 (Simulation time: 0 hr 9 min 28 sec) 
Heartbeat CPU 0 instructions: 250000000 cycles: 487646194 heartbeat IPC: 0.332428 cumulative IPC: 0.357751 (Simulation time: 0 hr 9 min 59 sec) 
Heartbeat CPU 0 instructions: 260000000 cycles: 514734311 heartbeat IPC: 0.369166 cumulative IPC: 0.358444 (Simulation time: 0 hr 10 min 28 sec) 
Heartbeat CPU 0 instructions: 270000003 cycles: 543064349 heartbeat IPC: 0.352982 cumulative IPC: 0.358118 (Simulation time: 0 hr 10 min 59 sec) 
Heartbeat CPU 0 instructions: 280000000 cycles: 571118335 heartbeat IPC: 0.356455 cumulative IPC: 0.358025 (Simulation time: 0 hr 11 min 29 sec) 
Heartbeat CPU 0 instructions: 290000000 cycles: 599907349 heartbeat IPC: 0.347355 cumulative IPC: 0.357447 (Simulation time: 0 hr 12 min 0 sec) 
Heartbeat CPU 0 instructions: 300000000 cycles: 629583629 heartbeat IPC: 0.336969 cumulative IPC: 0.356364 (Simulation time: 0 hr 12 min 29 sec) 
Heartbeat CPU 0 instructions: 310000001 cycles: 658870364 heartbeat IPC: 0.341452 cumulative IPC: 0.355625 (Simulation time: 0 hr 12 min 59 sec) 
Heartbeat CPU 0 instructions: 320000000 cycles: 686961456 heartbeat IPC: 0.355985 cumulative IPC: 0.355641 (Simulation time: 0 hr 13 min 27 sec) 
Heartbeat CPU 0 instructions: 330000000 cycles: 715498557 heartbeat IPC: 0.350421 cumulative IPC: 0.355411 (Simulation time: 0 hr 13 min 57 sec) 
Heartbeat CPU 0 instructions: 340000000 cycles: 744694677 heartbeat IPC: 0.342511 cumulative IPC: 0.354854 (Simulation time: 0 hr 14 min 26 sec) 
Heartbeat CPU 0 instructions: 350000003 cycles: 771636470 heartbeat IPC: 0.371171 cumulative IPC: 0.355479 (Simulation time: 0 hr 14 min 55 sec) 
Heartbeat CPU 0 instructions: 360000000 cycles: 799713432 heartbeat IPC: 0.356164 cumulative IPC: 0.355505 (Simulation time: 0 hr 15 min 24 sec) 
Heartbeat CPU 0 instructions: 370000000 cycles: 827933936 heartbeat IPC: 0.354352 cumulative IPC: 0.355463 (Simulation time: 0 hr 15 min 52 sec) 
Heartbeat CPU 0 instructions: 380000000 cycles: 856461952 heartbeat IPC: 0.350533 cumulative IPC: 0.355284 (Simulation time: 0 hr 16 min 20 sec) 
Heartbeat CPU 0 instructions: 390000001 cycles: 884103577 heartbeat IPC: 0.361773 cumulative IPC: 0.355504 (Simulation time: 0 hr 16 min 48 sec) 
Heartbeat CPU 0 instructions: 400000000 cycles: 912761445 heartbeat IPC: 0.348944 cumulative IPC: 0.355281 (Simulation time: 0 hr 17 min 16 sec) 
Heartbeat CPU 0 instructions: 410000001 cycles: 940110685 heartbeat IPC: 0.365641 cumulative IPC: 0.355606 (Simulation time: 0 hr 17 min 45 sec) 
Heartbeat CPU 0 instructions: 420000000 cycles: 967466991 heartbeat IPC: 0.365546 cumulative IPC: 0.355909 (Simulation time: 0 hr 18 min 13 sec) 
Heartbeat CPU 0 instructions: 430000002 cycles: 995155093 heartbeat IPC: 0.361166 cumulative IPC: 0.356066 (Simulation time: 0 hr 18 min 41 sec) 
Heartbeat CPU 0 instructions: 440000000 cycles: 1024608458 heartbeat IPC: 0.33952 cumulative IPC: 0.355556 (Simulation time: 0 hr 19 min 9 sec) 
Heartbeat CPU 0 instructions: 450000002 cycles: 1053860355 heartbeat IPC: 0.341858 cumulative IPC: 0.35515 (Simulation time: 0 hr 19 min 38 sec) 
Heartbeat CPU 0 instructions: 460000000 cycles: 1081591027 heartbeat IPC: 0.360611 cumulative IPC: 0.355299 (Simulation time: 0 hr 20 min 6 sec) 
Heartbeat CPU 0 instructions: 470000000 cycles: 1109258556 heartbeat IPC: 0.361435 cumulative IPC: 0.355462 (Simulation time: 0 hr 20 min 34 sec) 
Heartbeat CPU 0 instructions: 480000000 cycles: 1137179868 heartbeat IPC: 0.358149 cumulative IPC: 0.355532 (Simulation time: 0 hr 21 min 2 sec) 
Heartbeat CPU 0 instructions: 490000000 cycles: 1164818451 heartbeat IPC: 0.361813 cumulative IPC: 0.355691 (Simulation time: 0 hr 21 min 31 sec) 
Heartbeat CPU 0 instructions: 500000000 cycles: 1193069538 heartbeat IPC: 0.353969 cumulative IPC: 0.355647 (Simulation time: 0 hr 21 min 59 sec) 
Heartbeat CPU 0 instructions: 510000000 cycles: 1228376391 heartbeat IPC: 0.283231 cumulative IPC: 0.353443 (Simulation time: 0 hr 22 min 31 sec) 
Heartbeat CPU 0 instructions: 520000000 cycles: 1256411953 heartbeat IPC: 0.35669 cumulative IPC: 0.35352 (Simulation time: 0 hr 23 min 1 sec) 
Heartbeat CPU 0 instructions: 530000001 cycles: 1285600351 heartbeat IPC: 0.342602 cumulative IPC: 0.353258 (Simulation time: 0 hr 23 min 30 sec) 
Heartbeat CPU 0 instructions: 540000000 cycles: 1313599000 heartbeat IPC: 0.35716 cumulative IPC: 0.353346 (Simulation time: 0 hr 23 min 59 sec) 
Heartbeat CPU 0 instructions: 550000001 cycles: 1342777592 heartbeat IPC: 0.342717 cumulative IPC: 0.353103 (Simulation time: 0 hr 24 min 30 sec) 
Heartbeat CPU 0 instructions: 560000000 cycles: 1368130630 heartbeat IPC: 0.39443 cumulative IPC: 0.353909 (Simulation time: 0 hr 24 min 59 sec) 
Heartbeat CPU 0 instructions: 570000000 cycles: 1397446457 heartbeat IPC: 0.341113 cumulative IPC: 0.353626 (Simulation time: 0 hr 25 min 29 sec) 
Heartbeat CPU 0 instructions: 580000000 cycles: 1425348939 heartbeat IPC: 0.358391 cumulative IPC: 0.353724 (Simulation time: 0 hr 25 min 58 sec) 
Heartbeat CPU 0 instructions: 590000001 cycles: 1450222352 heartbeat IPC: 0.402036 cumulative IPC: 0.354594 (Simulation time: 0 hr 26 min 26 sec) 
Heartbeat CPU 0 instructions: 600000000 cycles: 1476455785 heartbeat IPC: 0.381193 cumulative IPC: 0.35509 (Simulation time: 0 hr 26 min 55 sec) 
Finished CPU 0 instructions: 500000000 cycles: 1408095526 cumulative IPC: 0.35509 (Simulation time: 0 hr 26 min 55 sec) 

CPU 0 Branch Prediction Accuracy: 86.4311% MPKI: 26.2662
Number of Branches: 96788573 Number of Mispredictions: 13133102
Number of LOAD Instructions: 164682285
Number of LOAD Instructions (ROI): 164682285
Number of STORE Instructions: 78194750
Number of STORE Instructions (ROI): 78194750
Total Destination Memory Operands: 83268534
Total Destination Memory Operands (ROI): 83268534
Total Source Memory Operands: 164712438
Total Source Memory Operands (ROI): 164712438
Number of DEPENDED LOADS: 7066073
Number of DEPENDED LOADS (ROI): 7066073
Number of SQ_ADDED: 83268522
Number of SQ_ADDED (ROI): 83268522
Number of LQ_ADDED: 236822913
Number of LQ_ADDED (ROI): 236822913
Number of Instructions read from trace: 600000066

ChampSim completed all CPUs

Region of Interest Statistics

CPU 0 cumulative IPC: 0.35509 instructions: 500000000 cycles: 1408095526
ITLB TOTAL     ACCESS:  100503552  HIT:  100299106  MISS:     204446
ITLB LOAD      ACCESS:  100503552  HIT:  100299106  MISS:     204446
ITLB RFO       ACCESS:          0  HIT:          0  MISS:          0
ITLB PREFETCH  ACCESS:          0  HIT:          0  MISS:          0
ITLB WRITEBACK ACCESS:          0  HIT:          0  MISS:          0
ITLB PREFETCH  REQUESTED:          0  ISSUED:          0  USEFUL:          0  USELESS:          0
ITLB TOTAL MSHR MERGED:     172424
ITLB LOAD MSHR MERGED:     172424
ITLB RFO MSHR MERGED:          0
ITLB PREFETCH MSHR MERGED:          0
ITLB WRITEBACK MSHR MERGED:          0
ITLB TOTAL ACCESSES:  100675976 HITS:  100299106 MISSES:     376870
ITLB LOAD ACCESSES:  100675976 HITS:  100299106 MISSES:     376870
ITLB RFO ACCESSES:          0 HITS:          0 MISSES:          0
ITLB PREFETCH ACCESSES:          0 HITS:          0 MISSES:          0
ITLB WRITEBACK ACCESSES:          0 HITS:          0 MISSES:          0
ITLB RQ ACCESS:  500000057
ITLB RQ TO_CACHE:  100675976
ITLB RQ MERGED:  399324081
ITLB RQ FORWARD:          0
ITLB WQ ACCESS:          0
ITLB WQ TO_CACHE:          0
ITLB WQ MERGED:          0
ITLB WQ FORWARD:          0
DTLB TOTAL     ACCESS:  165328935  HIT:  164694588  MISS:     634347
DTLB LOAD      ACCESS:  106287057  HIT:  105717043  MISS:     570014
DTLB RFO       ACCESS:   59041878  HIT:   58977545  MISS:      64333
DTLB PREFETCH  ACCESS:          0  HIT:          0  MISS:          0
DTLB WRITEBACK ACCESS:          0  HIT:          0  MISS:          0
DTLB PREFETCH  REQUESTED:          0  ISSUED:          0  USEFUL:          0  USELESS:          0
DTLB TOTAL MSHR MERGED:      99925
DTLB LOAD MSHR MERGED:      59470
DTLB RFO MSHR MERGED:      40455
DTLB PREFETCH MSHR MERGED:          0
DTLB WRITEBACK MSHR MERGED:          0
DTLB TOTAL ACCESSES:  165428860 HITS:  164694588 MISSES:     734272
DTLB LOAD ACCESSES:  106346527 HITS:  105717043 MISSES:     629484
DTLB RFO ACCESSES:   59082333 HITS:   58977545 MISSES:     104788
DTLB PREFETCH ACCESSES:          0 HITS:          0 MISSES:          0
DTLB WRITEBACK ACCESSES:          0 HITS:          0 MISSES:          0
DTLB RQ ACCESS:  200304852
DTLB RQ TO_CACHE:  165428860
DTLB RQ MERGED:   34875992
DTLB RQ FORWARD:          0
DTLB WQ ACCESS:          0
DTLB WQ TO_CACHE:          0
DTLB WQ MERGED:          0
DTLB WQ FORWARD:          0
L1D TOTAL     ACCESS:  281762368  HIT:  273853160  MISS:    7909208
L1D LOAD      ACCESS:  110406186  HIT:  107126815  MISS:    3279371
L1D RFO       ACCESS:   67081975  HIT:   66189771  MISS:     892204
L1D PREFETCH  ACCESS:  104274207  HIT:  100536574  MISS:    3737633
L1D WRITEBACK ACCESS:          0  HIT:          0  MISS:          0
L1D PREFETCH  REQUESTED:  110810712  ISSUED:  109111447  USEFUL:    1658569  USELESS:    2079028
L1D TOTAL MSHR MERGED:    2928662
L1D LOAD MSHR MERGED:     503364
L1D RFO MSHR MERGED:    1905288
L1D PREFETCH MSHR MERGED:     520010
L1D WRITEBACK MSHR MERGED:          0
L1D TOTAL ACCESSES:  284718816 HITS:  273880946 MISSES:   10837870
L1D LOAD ACCESSES:  110812495 HITS:  107128598 MISSES:    3683897
L1D RFO ACCESSES:   68973849 HITS:   66189771 MISSES:    2784078
L1D PREFETCH ACCESSES:  104932472 HITS:  100562577 MISSES:    4369895
L1D WRITEBACK ACCESSES:          0 HITS:          0 MISSES:          0
L1D RQ ACCESS:  130752249
L1D RQ TO_CACHE:  110810715
L1D RQ MERGED:   19939751
L1D RQ FORWARD:          0
L1D WQ ACCESS:   69552603
L1D WQ TO_CACHE:   68973850
L1D WQ MERGED:     578753
L1D WQ FORWARD:      27786
L1I TOTAL     ACCESS:  126551580  HIT:  122313027  MISS:    4238553
L1I LOAD      ACCESS:  126551580  HIT:  122313027  MISS:    4238553
L1I RFO       ACCESS:          0  HIT:          0  MISS:          0
L1I PREFETCH  ACCESS:          0  HIT:          0  MISS:          0
L1I WRITEBACK ACCESS:          0  HIT:          0  MISS:          0
L1I PREFETCH  REQUESTED:          0  ISSUED:          0  USEFUL:          0  USELESS:          0
L1I TOTAL MSHR MERGED:    1834318
L1I LOAD MSHR MERGED:    1834318
L1I RFO MSHR MERGED:          0
L1I PREFETCH MSHR MERGED:          0
L1I WRITEBACK MSHR MERGED:          0
L1I TOTAL ACCESSES:  128385901 HITS:  122313027 MISSES:    6072874
L1I LOAD ACCESSES:  128385901 HITS:  122313027 MISSES:    6072874
L1I RFO ACCESSES:          0 HITS:          0 MISSES:          0
L1I PREFETCH ACCESSES:          0 HITS:          0 MISSES:          0
L1I WRITEBACK ACCESSES:          0 HITS:          0 MISSES:          0
L1I RQ ACCESS:  500000057
L1I RQ TO_CACHE:  128385901
L1I RQ MERGED:  371614156
L1I RQ FORWARD:          0
L1I WQ ACCESS:          0
L1I WQ TO_CACHE:          0
L1I WQ MERGED:          0
L1I WQ FORWARD:          0
L2C TOTAL     ACCESS:   14903339  HIT:   11156974  MISS:    3746365
L2C LOAD      ACCESS:    7418879  HIT:    5098418  MISS:    2320461
L2C RFO       ACCESS:     878692  HIT:     409909  MISS:     468783
L2C PREFETCH  ACCESS:    4566563  HIT:    3626703  MISS:     939860
L2C WRITEBACK ACCESS:    2039205  HIT:    2021944  MISS:      17261
L2C PREFETCH  REQUESTED:     842614  ISSUED:     842614  USEFUL:     202894  USELESS:     736672
L2C TOTAL MSHR MERGED:       8643
L2C LOAD MSHR MERGED:       1222
L2C RFO MSHR MERGED:          0
L2C PREFETCH MSHR MERGED:       7421
L2C WRITEBACK MSHR MERGED:          0
L2C TOTAL ACCESSES:   14912950 HITS:   11157422 MISSES:    3755528
L2C LOAD ACCESSES:    7419086 HITS:    5098625 MISSES:    2320461
L2C RFO ACCESSES:     878790 HITS:     410007 MISSES:     468783
L2C PREFETCH ACCESSES:    4575869 HITS:    3626846 MISSES:     949023
L2C WRITEBACK ACCESSES:    2039205 HITS:    2021944 MISSES:      17261
L2C RQ ACCESS:    8297879
L2C RQ TO_CACHE:    8297574
L2C RQ MERGED:          0
L2C RQ FORWARD:          0
L2C WQ ACCESS:    2039205
L2C WQ TO_CACHE:    2039205
L2C WQ MERGED:          0
L2C WQ FORWARD:        448
LLC TOTAL     ACCESS:    4609701  HIT:    3884875  MISS:     724826
LLC LOAD      ACCESS:    2319224  HIT:    2102668  MISS:     216556
LLC RFO       ACCESS:     468772  HIT:     337408  MISS:     131364
LLC PREFETCH  ACCESS:     941446  HIT:     613501  MISS:     327945
LLC WRITEBACK ACCESS:     880259  HIT:     831298  MISS:      48961
LLC PREFETCH  REQUESTED:          0  ISSUED:          0  USEFUL:      19710  USELESS:     309047
LLC TOTAL MSHR MERGED:        133
LLC LOAD MSHR MERGED:         41
LLC RFO MSHR MERGED:          0
LLC PREFETCH MSHR MERGED:         92
LLC WRITEBACK MSHR MERGED:          0
LLC TOTAL ACCESSES:    4609871 HITS:    3884912 MISSES:     724959
LLC LOAD ACCESSES:    2319239 HITS:    2102683 MISSES:     216556
LLC RFO ACCESSES:     468783 HITS:     337419 MISSES:     131364
LLC PREFETCH ACCESSES:     941590 HITS:     613512 MISSES:     328078
LLC WRITEBACK ACCESSES:     880259 HITS:     831298 MISSES:      48961
LLC 0 RQ ACCESS:    2788022
LLC 0 RQ TO_CACHE:    2787996
LLC 0 RQ MERGED:          0
LLC 0 RQ FORWARD:          0
LLC WQ ACCESS:     880259
LLC WQ TO_CACHE:     880259
LLC WQ MERGED:          0
LLC WQ FORWARD:         37
Major fault: 0 Minor fault: 12862
CPU 0 L1D next line prefetcher final stats
CPU 0 L2C PC-based stride prefetcher final stats
All Misses: 844691
All Hits: 4582015
SD Algo Stats - Switches: 0 SRR-Repls: 251141 BRR-Repls: 0

DRAM Statistics
 CHANNEL 0
 RQ ROW_BUFFER_HIT:     142673  ROW_BUFFER_MISS:     530209
 DBUS_CONGESTED:     485606
 WQ ROW_BUFFER_HIT:      32420  ROW_BUFFER_MISS:     270613  FULL:          0

 AVG_CONGESTED_CYCLE: 13
LOADS RETIRED: 136549171
INSTR RETIRED: 500000000
