
*** ChampSim Multicore Out-of-Order Simulator ***

Warmup Instructions: 100000000
Simulation Instructions: 500000000
Number of CPUs: 1
LLC sets: 2048
LLC ways: 16
Clean RRIP Policies: 2213230222132302 Dirty RRIP Policies: 2203130222031302 PSEL Width: 10 Track Set: 4294967295 PSEL Mask: 1 Demote Mask: 4040100040401000DS Algo: 0Window size: 0
Off-chip DRAM Size: 4096 MB Channels: 1 Width: 64-bit Data Rate: 1600 MT/s

CPU 0 runs /mnt/beegfs/iconst01/spec2017/Mcf.trace.gz
NOT SORTED
TRACE STRING: /mnt/beegfs/iconst01/spec2017/Mcf.trace.gz
SORTED
TRACE STRING: /mnt/beegfs/iconst01/spec2017/Mcf.trace.gz
INITIAL
TRACE STRING: /mnt/beegfs/iconst01/spec2017/Mcf.trace.gz

champsim_seed used: 278

CPU 0 L1D next line prefetcher
CPU 0 L2C IP-based stride prefetcher
Initialize DRRIP state
Assign rand_sets[0]: 454  LLC: 2048
rand_sets[0]: 454
Assign rand_sets[1]: 1662  LLC: 2048
rand_sets[1]: 1662
Assign rand_sets[2]: 1921  LLC: 2048
rand_sets[2]: 1921
Assign rand_sets[3]: 1131  LLC: 2048
rand_sets[3]: 1131
Assign rand_sets[4]: 331  LLC: 2048
rand_sets[4]: 331
Assign rand_sets[5]: 1531  LLC: 2048
rand_sets[5]: 1531
Assign rand_sets[6]: 482  LLC: 2048
rand_sets[6]: 482
Assign rand_sets[7]: 1275  LLC: 2048
rand_sets[7]: 1275
Assign rand_sets[8]: 1876  LLC: 2048
rand_sets[8]: 1876
Assign rand_sets[9]: 2038  LLC: 2048
rand_sets[9]: 2038
Assign rand_sets[10]: 701  LLC: 2048
rand_sets[10]: 701
Assign rand_sets[11]: 479  LLC: 2048
rand_sets[11]: 479
Assign rand_sets[12]: 892  LLC: 2048
rand_sets[12]: 892
Assign rand_sets[13]: 1820  LLC: 2048
rand_sets[13]: 1820
Assign rand_sets[14]: 1505  LLC: 2048
rand_sets[14]: 1505
Assign rand_sets[15]: 1159  LLC: 2048
rand_sets[15]: 1159
Assign rand_sets[16]: 513  LLC: 2048
rand_sets[16]: 513
Assign rand_sets[17]: 703  LLC: 2048
rand_sets[17]: 703
Assign rand_sets[18]: 561  LLC: 2048
rand_sets[18]: 561
Assign rand_sets[19]: 990  LLC: 2048
rand_sets[19]: 990
Assign rand_sets[20]: 342  LLC: 2048
rand_sets[20]: 342
Assign rand_sets[21]: 882  LLC: 2048
rand_sets[21]: 882
Assign rand_sets[22]: 15  LLC: 2048
rand_sets[22]: 15
Assign rand_sets[23]: 71  LLC: 2048
rand_sets[23]: 71
Assign rand_sets[24]: 1127  LLC: 2048
rand_sets[24]: 1127
Assign rand_sets[25]: 1382  LLC: 2048
rand_sets[25]: 1382
Assign rand_sets[26]: 647  LLC: 2048
rand_sets[26]: 647
Assign rand_sets[27]: 857  LLC: 2048
rand_sets[27]: 857
Assign rand_sets[28]: 1450  LLC: 2048
rand_sets[28]: 1450
Assign rand_sets[29]: 1160  LLC: 2048
rand_sets[29]: 1160
Assign rand_sets[30]: 1852  LLC: 2048
rand_sets[30]: 1852
Assign rand_sets[31]: 1881  LLC: 2048
rand_sets[31]: 1881
Assign rand_sets[32]: 1770  LLC: 2048
rand_sets[32]: 1770
Assign rand_sets[33]: 1622  LLC: 2048
rand_sets[33]: 1622
Assign rand_sets[34]: 275  LLC: 2048
rand_sets[34]: 275
Assign rand_sets[35]: 635  LLC: 2048
rand_sets[35]: 635
Assign rand_sets[36]: 466  LLC: 2048
rand_sets[36]: 466
Assign rand_sets[37]: 1413  LLC: 2048
rand_sets[37]: 1413
Assign rand_sets[38]: 417  LLC: 2048
rand_sets[38]: 417
Assign rand_sets[39]: 472  LLC: 2048
rand_sets[39]: 472
Assign rand_sets[40]: 1340  LLC: 2048
rand_sets[40]: 1340
Assign rand_sets[41]: 852  LLC: 2048
rand_sets[41]: 852
Assign rand_sets[42]: 1365  LLC: 2048
rand_sets[42]: 1365
Assign rand_sets[43]: 47  LLC: 2048
rand_sets[43]: 47
Assign rand_sets[44]: 823  LLC: 2048
rand_sets[44]: 823
Assign rand_sets[45]: 686  LLC: 2048
rand_sets[45]: 686
Assign rand_sets[46]: 1637  LLC: 2048
rand_sets[46]: 1637
Assign rand_sets[47]: 1115  LLC: 2048
rand_sets[47]: 1115
Assign rand_sets[48]: 986  LLC: 2048
rand_sets[48]: 986
Assign rand_sets[49]: 258  LLC: 2048
rand_sets[49]: 258
Assign rand_sets[50]: 633  LLC: 2048
rand_sets[50]: 633
Assign rand_sets[51]: 920  LLC: 2048
rand_sets[51]: 920
Assign rand_sets[52]: 204  LLC: 2048
rand_sets[52]: 204
Assign rand_sets[53]: 227  LLC: 2048
rand_sets[53]: 227
Assign rand_sets[54]: 1818  LLC: 2048
rand_sets[54]: 1818
Assign rand_sets[55]: 886  LLC: 2048
rand_sets[55]: 886
Assign rand_sets[56]: 1422  LLC: 2048
rand_sets[56]: 1422
Assign rand_sets[57]: 607  LLC: 2048
rand_sets[57]: 607
Assign rand_sets[58]: 217  LLC: 2048
rand_sets[58]: 217
Assign rand_sets[59]: 1945  LLC: 2048
rand_sets[59]: 1945
Assign rand_sets[60]: 143  LLC: 2048
rand_sets[60]: 143
Assign rand_sets[61]: 1311  LLC: 2048
rand_sets[61]: 1311
Assign rand_sets[62]: 319  LLC: 2048
rand_sets[62]: 319
Assign rand_sets[63]: 1846  LLC: 2048
rand_sets[63]: 1846
 CLEAN-RRIP-POLICY-1: 2-2-1-3-2-3-0-2- CLEAN-RRIP-POLICY-2: 2-2-1-3-2-3-0-2-
 DIRTY-RRIP-POLICY-1: 2-2-0-3-1-3-0-2- DIRTY-RRIP-POLICY-2: 2-2-0-3-1-3-0-2-
 PSEL width: 10
Heartbeat CPU 0 instructions: 10000002 cycles: 6248310 heartbeat IPC: 1.60043 cumulative IPC: 1.60043 (Simulation time: 0 hr 0 min 13 sec) 
Heartbeat CPU 0 instructions: 20000000 cycles: 12468703 heartbeat IPC: 1.60762 cumulative IPC: 1.60402 (Simulation time: 0 hr 0 min 25 sec) 
Heartbeat CPU 0 instructions: 30000000 cycles: 18678638 heartbeat IPC: 1.61032 cumulative IPC: 1.60611 (Simulation time: 0 hr 0 min 38 sec) 
Heartbeat CPU 0 instructions: 40000000 cycles: 24888968 heartbeat IPC: 1.61022 cumulative IPC: 1.60714 (Simulation time: 0 hr 0 min 51 sec) 
Heartbeat CPU 0 instructions: 50000003 cycles: 31101114 heartbeat IPC: 1.60975 cumulative IPC: 1.60766 (Simulation time: 0 hr 1 min 4 sec) 
Heartbeat CPU 0 instructions: 60000000 cycles: 37297065 heartbeat IPC: 1.61396 cumulative IPC: 1.60871 (Simulation time: 0 hr 1 min 17 sec) 
Heartbeat CPU 0 instructions: 70000003 cycles: 43515203 heartbeat IPC: 1.6082 cumulative IPC: 1.60863 (Simulation time: 0 hr 1 min 30 sec) 
Heartbeat CPU 0 instructions: 80000000 cycles: 49745429 heartbeat IPC: 1.60508 cumulative IPC: 1.60819 (Simulation time: 0 hr 1 min 43 sec) 
Heartbeat CPU 0 instructions: 90000000 cycles: 55974123 heartbeat IPC: 1.60547 cumulative IPC: 1.60789 (Simulation time: 0 hr 1 min 56 sec) 
Heartbeat CPU 0 instructions: 100000000 cycles: 62192865 heartbeat IPC: 1.60804 cumulative IPC: 1.6079 (Simulation time: 0 hr 2 min 9 sec) 

Warmup complete CPU 0 instructions: 100000001 cycles: 62192866 (Simulation time: 0 hr 2 min 9 sec) 

Heartbeat CPU 0 instructions: 110000000 cycles: 86670448 heartbeat IPC: 0.408537 cumulative IPC: 0.408537 (Simulation time: 0 hr 2 min 34 sec) 
Heartbeat CPU 0 instructions: 120000000 cycles: 111283343 heartbeat IPC: 0.406291 cumulative IPC: 0.407411 (Simulation time: 0 hr 2 min 59 sec) 
Heartbeat CPU 0 instructions: 130000000 cycles: 135965654 heartbeat IPC: 0.405148 cumulative IPC: 0.406654 (Simulation time: 0 hr 3 min 23 sec) 
Heartbeat CPU 0 instructions: 140000000 cycles: 160610789 heartbeat IPC: 0.40576 cumulative IPC: 0.40643 (Simulation time: 0 hr 3 min 48 sec) 
Heartbeat CPU 0 instructions: 150000003 cycles: 185142923 heartbeat IPC: 0.407629 cumulative IPC: 0.406669 (Simulation time: 0 hr 4 min 13 sec) 
Heartbeat CPU 0 instructions: 160000000 cycles: 209924939 heartbeat IPC: 0.403518 cumulative IPC: 0.406141 (Simulation time: 0 hr 4 min 38 sec) 
Heartbeat CPU 0 instructions: 170000001 cycles: 234574598 heartbeat IPC: 0.405685 cumulative IPC: 0.406076 (Simulation time: 0 hr 5 min 3 sec) 
Heartbeat CPU 0 instructions: 180000000 cycles: 259230000 heartbeat IPC: 0.405591 cumulative IPC: 0.406015 (Simulation time: 0 hr 5 min 28 sec) 
Heartbeat CPU 0 instructions: 190000003 cycles: 283848407 heartbeat IPC: 0.4062 cumulative IPC: 0.406035 (Simulation time: 0 hr 5 min 53 sec) 
Heartbeat CPU 0 instructions: 200000000 cycles: 308501120 heartbeat IPC: 0.405635 cumulative IPC: 0.405995 (Simulation time: 0 hr 6 min 17 sec) 
Heartbeat CPU 0 instructions: 210000003 cycles: 333222326 heartbeat IPC: 0.404511 cumulative IPC: 0.40586 (Simulation time: 0 hr 6 min 42 sec) 
Heartbeat CPU 0 instructions: 220000000 cycles: 358124041 heartbeat IPC: 0.401579 cumulative IPC: 0.4055 (Simulation time: 0 hr 7 min 8 sec) 
Heartbeat CPU 0 instructions: 230000002 cycles: 382692409 heartbeat IPC: 0.407028 cumulative IPC: 0.405617 (Simulation time: 0 hr 7 min 32 sec) 
Heartbeat CPU 0 instructions: 240000000 cycles: 407564667 heartbeat IPC: 0.402054 cumulative IPC: 0.40536 (Simulation time: 0 hr 7 min 58 sec) 
Heartbeat CPU 0 instructions: 250000000 cycles: 432247195 heartbeat IPC: 0.405145 cumulative IPC: 0.405346 (Simulation time: 0 hr 8 min 23 sec) 
Heartbeat CPU 0 instructions: 260000000 cycles: 456883305 heartbeat IPC: 0.405908 cumulative IPC: 0.405381 (Simulation time: 0 hr 8 min 48 sec) 
Heartbeat CPU 0 instructions: 270000001 cycles: 481609056 heartbeat IPC: 0.404437 cumulative IPC: 0.405325 (Simulation time: 0 hr 9 min 13 sec) 
Heartbeat CPU 0 instructions: 280000000 cycles: 506253902 heartbeat IPC: 0.405764 cumulative IPC: 0.40535 (Simulation time: 0 hr 9 min 38 sec) 
Heartbeat CPU 0 instructions: 290000001 cycles: 530995799 heartbeat IPC: 0.404173 cumulative IPC: 0.405288 (Simulation time: 0 hr 10 min 3 sec) 
Heartbeat CPU 0 instructions: 300000000 cycles: 555891067 heartbeat IPC: 0.401683 cumulative IPC: 0.405106 (Simulation time: 0 hr 10 min 28 sec) 
Heartbeat CPU 0 instructions: 310000003 cycles: 580436634 heartbeat IPC: 0.407406 cumulative IPC: 0.405215 (Simulation time: 0 hr 10 min 53 sec) 
Heartbeat CPU 0 instructions: 320000000 cycles: 605343877 heartbeat IPC: 0.40149 cumulative IPC: 0.405044 (Simulation time: 0 hr 11 min 18 sec) 
Heartbeat CPU 0 instructions: 330000003 cycles: 629999195 heartbeat IPC: 0.405592 cumulative IPC: 0.405068 (Simulation time: 0 hr 11 min 43 sec) 
Heartbeat CPU 0 instructions: 340000000 cycles: 654939489 heartbeat IPC: 0.400957 cumulative IPC: 0.404895 (Simulation time: 0 hr 12 min 8 sec) 
Heartbeat CPU 0 instructions: 350000002 cycles: 679851087 heartbeat IPC: 0.40142 cumulative IPC: 0.404755 (Simulation time: 0 hr 12 min 33 sec) 
Heartbeat CPU 0 instructions: 360000000 cycles: 704894549 heartbeat IPC: 0.399306 cumulative IPC: 0.404542 (Simulation time: 0 hr 12 min 58 sec) 
Heartbeat CPU 0 instructions: 370000000 cycles: 729712801 heartbeat IPC: 0.402929 cumulative IPC: 0.404482 (Simulation time: 0 hr 13 min 23 sec) 
Heartbeat CPU 0 instructions: 380000000 cycles: 754360719 heartbeat IPC: 0.405714 cumulative IPC: 0.404526 (Simulation time: 0 hr 13 min 47 sec) 
Heartbeat CPU 0 instructions: 390000002 cycles: 779020285 heartbeat IPC: 0.405522 cumulative IPC: 0.40456 (Simulation time: 0 hr 14 min 12 sec) 
Heartbeat CPU 0 instructions: 400000000 cycles: 803846499 heartbeat IPC: 0.4028 cumulative IPC: 0.404501 (Simulation time: 0 hr 14 min 37 sec) 
Heartbeat CPU 0 instructions: 410000002 cycles: 828582392 heartbeat IPC: 0.404271 cumulative IPC: 0.404494 (Simulation time: 0 hr 15 min 1 sec) 
Heartbeat CPU 0 instructions: 420000000 cycles: 853121248 heartbeat IPC: 0.407517 cumulative IPC: 0.404588 (Simulation time: 0 hr 15 min 26 sec) 
Heartbeat CPU 0 instructions: 430000000 cycles: 877864969 heartbeat IPC: 0.404143 cumulative IPC: 0.404574 (Simulation time: 0 hr 15 min 51 sec) 
Heartbeat CPU 0 instructions: 440000000 cycles: 902319857 heartbeat IPC: 0.408916 cumulative IPC: 0.404701 (Simulation time: 0 hr 16 min 15 sec) 
Heartbeat CPU 0 instructions: 450000000 cycles: 927182384 heartbeat IPC: 0.402212 cumulative IPC: 0.404629 (Simulation time: 0 hr 16 min 41 sec) 
Heartbeat CPU 0 instructions: 460000000 cycles: 951930078 heartbeat IPC: 0.404078 cumulative IPC: 0.404614 (Simulation time: 0 hr 17 min 6 sec) 
Heartbeat CPU 0 instructions: 470000001 cycles: 976485772 heartbeat IPC: 0.407238 cumulative IPC: 0.404684 (Simulation time: 0 hr 17 min 32 sec) 
Heartbeat CPU 0 instructions: 480000000 cycles: 1001210323 heartbeat IPC: 0.404456 cumulative IPC: 0.404678 (Simulation time: 0 hr 17 min 57 sec) 
Heartbeat CPU 0 instructions: 490000000 cycles: 1026023998 heartbeat IPC: 0.403004 cumulative IPC: 0.404635 (Simulation time: 0 hr 18 min 23 sec) 
Heartbeat CPU 0 instructions: 500000000 cycles: 1051150260 heartbeat IPC: 0.39799 cumulative IPC: 0.404466 (Simulation time: 0 hr 18 min 48 sec) 
Heartbeat CPU 0 instructions: 510000003 cycles: 1076155073 heartbeat IPC: 0.399923 cumulative IPC: 0.404354 (Simulation time: 0 hr 19 min 13 sec) 
Heartbeat CPU 0 instructions: 520000000 cycles: 1101316427 heartbeat IPC: 0.397435 cumulative IPC: 0.404187 (Simulation time: 0 hr 19 min 38 sec) 
Heartbeat CPU 0 instructions: 530000003 cycles: 1126505165 heartbeat IPC: 0.397003 cumulative IPC: 0.404017 (Simulation time: 0 hr 20 min 4 sec) 
Heartbeat CPU 0 instructions: 540000000 cycles: 1151607106 heartbeat IPC: 0.398375 cumulative IPC: 0.403887 (Simulation time: 0 hr 20 min 29 sec) 
Heartbeat CPU 0 instructions: 550000000 cycles: 1176713735 heartbeat IPC: 0.398301 cumulative IPC: 0.403761 (Simulation time: 0 hr 20 min 55 sec) 
Heartbeat CPU 0 instructions: 560000000 cycles: 1202117605 heartbeat IPC: 0.393641 cumulative IPC: 0.403535 (Simulation time: 0 hr 21 min 20 sec) 
Heartbeat CPU 0 instructions: 570000001 cycles: 1227447287 heartbeat IPC: 0.394794 cumulative IPC: 0.403345 (Simulation time: 0 hr 21 min 45 sec) 
Heartbeat CPU 0 instructions: 580000000 cycles: 1252786189 heartbeat IPC: 0.39465 cumulative IPC: 0.40316 (Simulation time: 0 hr 22 min 11 sec) 
Heartbeat CPU 0 instructions: 590000000 cycles: 1278274497 heartbeat IPC: 0.392337 cumulative IPC: 0.402933 (Simulation time: 0 hr 22 min 36 sec) 
Heartbeat CPU 0 instructions: 600000000 cycles: 1303839408 heartbeat IPC: 0.391161 cumulative IPC: 0.402691 (Simulation time: 0 hr 23 min 2 sec) 
Finished CPU 0 instructions: 500000003 cycles: 1241646555 cumulative IPC: 0.402691 (Simulation time: 0 hr 23 min 2 sec) 

CPU 0 Branch Prediction Accuracy: 91.1342% MPKI: 18.7968
Number of Branches: 106006945 Number of Mispredictions: 9398408
Number of LOAD Instructions: 207894007
Number of LOAD Instructions (ROI): 207894007
Number of STORE Instructions: 54285997
Number of STORE Instructions (ROI): 54285997
Total Destination Memory Operands: 57463404
Total Destination Memory Operands (ROI): 57463404
Total Source Memory Operands: 207894007
Total Source Memory Operands (ROI): 207894007
Number of DEPENDED LOADS: 18102144
Number of DEPENDED LOADS (ROI): 18102144
Number of SQ_ADDED: 57463404
Number of SQ_ADDED (ROI): 57463404
Number of LQ_ADDED: 209236640
Number of LQ_ADDED (ROI): 209236640
Number of Instructions read from trace: 600000039

ChampSim completed all CPUs

Region of Interest Statistics

CPU 0 cumulative IPC: 0.402691 instructions: 500000003 cycles: 1241646555
ITLB TOTAL     ACCESS:   96422625  HIT:   96422625  MISS:          0
ITLB LOAD      ACCESS:   96422625  HIT:   96422625  MISS:          0
ITLB RFO       ACCESS:          0  HIT:          0  MISS:          0
ITLB PREFETCH  ACCESS:          0  HIT:          0  MISS:          0
ITLB WRITEBACK ACCESS:          0  HIT:          0  MISS:          0
ITLB PREFETCH  REQUESTED:          0  ISSUED:          0  USEFUL:          0  USELESS:          0
ITLB TOTAL MSHR MERGED:          0
ITLB LOAD MSHR MERGED:          0
ITLB RFO MSHR MERGED:          0
ITLB PREFETCH MSHR MERGED:          0
ITLB WRITEBACK MSHR MERGED:          0
ITLB TOTAL ACCESSES:   96422625 HITS:   96422625 MISSES:          0
ITLB LOAD ACCESSES:   96422625 HITS:   96422625 MISSES:          0
ITLB RFO ACCESSES:          0 HITS:          0 MISSES:          0
ITLB PREFETCH ACCESSES:          0 HITS:          0 MISSES:          0
ITLB WRITEBACK ACCESSES:          0 HITS:          0 MISSES:          0
ITLB RQ ACCESS:  499999980
ITLB RQ TO_CACHE:   96422625
ITLB RQ MERGED:  403577355
ITLB RQ FORWARD:          0
ITLB WQ ACCESS:          0
ITLB WQ TO_CACHE:          0
ITLB WQ MERGED:          0
ITLB WQ FORWARD:          0
DTLB TOTAL     ACCESS:  155175687  HIT:  150263563  MISS:    4912124
DTLB LOAD      ACCESS:  117725314  HIT:  113334883  MISS:    4390431
DTLB RFO       ACCESS:   37450373  HIT:   36928680  MISS:     521693
DTLB PREFETCH  ACCESS:          0  HIT:          0  MISS:          0
DTLB WRITEBACK ACCESS:          0  HIT:          0  MISS:          0
DTLB PREFETCH  REQUESTED:          0  ISSUED:          0  USEFUL:          0  USELESS:          0
DTLB TOTAL MSHR MERGED:     453738
DTLB LOAD MSHR MERGED:     162287
DTLB RFO MSHR MERGED:     291451
DTLB PREFETCH MSHR MERGED:          0
DTLB WRITEBACK MSHR MERGED:          0
DTLB TOTAL ACCESSES:  155629425 HITS:  150263563 MISSES:    5365862
DTLB LOAD ACCESSES:  117887601 HITS:  113334883 MISSES:    4552718
DTLB RFO ACCESSES:   37741824 HITS:   36928680 MISSES:     813144
DTLB PREFETCH ACCESSES:          0 HITS:          0 MISSES:          0
DTLB WRITEBACK ACCESSES:          0 HITS:          0 MISSES:          0
DTLB RQ ACCESS:  205980701
DTLB RQ TO_CACHE:  155629425
DTLB RQ MERGED:   50351276
DTLB RQ FORWARD:          0
DTLB WQ ACCESS:          0
DTLB WQ TO_CACHE:          0
DTLB WQ MERGED:          0
DTLB WQ FORWARD:          0
L1D TOTAL     ACCESS:  277174545  HIT:  242352070  MISS:   34822475
L1D LOAD      ACCESS:  125413761  HIT:  107776629  MISS:   17637132
L1D RFO       ACCESS:   41137352  HIT:   38825517  MISS:    2311835
L1D PREFETCH  ACCESS:  110623432  HIT:   95749924  MISS:   14873508
L1D WRITEBACK ACCESS:          0  HIT:          0  MISS:          0
L1D PREFETCH  REQUESTED:  126276071  ISSUED:  124756834  USEFUL:    2707518  USELESS:   12166015
L1D TOTAL MSHR MERGED:    8508272
L1D LOAD MSHR MERGED:    1559229
L1D RFO MSHR MERGED:    3767852
L1D PREFETCH MSHR MERGED:    3181191
L1D WRITEBACK MSHR MERGED:          0
L1D TOTAL ACCESSES:  285770100 HITS:  242439352 MISSES:   43330748
L1D LOAD ACCESSES:  126276098 HITS:  107776656 MISSES:   18499442
L1D RFO ACCESSES:   44904705 HITS:   38825517 MISSES:    6079188
L1D PREFETCH ACCESSES:  114589297 HITS:   95837179 MISSES:   18752118
L1D WRITEBACK ACCESSES:          0 HITS:          0 MISSES:          0
L1D RQ ACCESS:  158433820
L1D RQ TO_CACHE:  126276071
L1D RQ MERGED:   32157722
L1D RQ FORWARD:          0
L1D WQ ACCESS:   47546882
L1D WQ TO_CACHE:   44904705
L1D WQ MERGED:    2642177
L1D WQ FORWARD:      87282
L1I TOTAL     ACCESS:  132832499  HIT:  132832499  MISS:          0
L1I LOAD      ACCESS:  132832499  HIT:  132832499  MISS:          0
L1I RFO       ACCESS:          0  HIT:          0  MISS:          0
L1I PREFETCH  ACCESS:          0  HIT:          0  MISS:          0
L1I WRITEBACK ACCESS:          0  HIT:          0  MISS:          0
L1I PREFETCH  REQUESTED:          0  ISSUED:          0  USEFUL:          0  USELESS:          0
L1I TOTAL MSHR MERGED:          0
L1I LOAD MSHR MERGED:          0
L1I RFO MSHR MERGED:          0
L1I PREFETCH MSHR MERGED:          0
L1I WRITEBACK MSHR MERGED:          0
L1I TOTAL ACCESSES:  132832499 HITS:  132832499 MISSES:          0
L1I LOAD ACCESSES:  132832499 HITS:  132832499 MISSES:          0
L1I RFO ACCESSES:          0 HITS:          0 MISSES:          0
L1I PREFETCH ACCESSES:          0 HITS:          0 MISSES:          0
L1I WRITEBACK ACCESSES:          0 HITS:          0 MISSES:          0
L1I RQ ACCESS:  499999980
L1I RQ TO_CACHE:  132832499
L1I RQ MERGED:  367167481
L1I RQ FORWARD:          0
L1I WQ ACCESS:          0
L1I WQ TO_CACHE:          0
L1I WQ MERGED:          0
L1I WQ FORWARD:          0
L2C TOTAL     ACCESS:   39594322  HIT:   20624820  MISS:   18969502
L2C LOAD      ACCESS:   16940153  HIT:    8567771  MISS:    8372382
L2C RFO       ACCESS:    2311286  HIT:     630824  MISS:    1680462
L2C PREFETCH  ACCESS:   17120444  HIT:    8207536  MISS:    8912908
L2C WRITEBACK ACCESS:    3222439  HIT:    3218689  MISS:       3750
L2C PREFETCH  REQUESTED:    2859888  ISSUED:    2859888  USEFUL:    1307179  USELESS:    7605466
L2C TOTAL MSHR MERGED:     524688
L2C LOAD MSHR MERGED:      84440
L2C RFO MSHR MERGED:          0
L2C PREFETCH MSHR MERGED:     440248
L2C WRITEBACK MSHR MERGED:          0
L2C TOTAL ACCESSES:   40218702 HITS:   20624980 MISSES:   19593722
L2C LOAD ACCESSES:   16940213 HITS:    8567831 MISSES:    8372382
L2C RFO ACCESSES:    2311336 HITS:     630874 MISSES:    1680462
L2C PREFETCH ACCESSES:   17744714 HITS:    8207586 MISSES:    9537128
L2C WRITEBACK ACCESSES:    3222439 HITS:    3218689 MISSES:       3750
L2C RQ ACCESS:   19251549
L2C RQ TO_CACHE:   19251439
L2C RQ MERGED:          0
L2C RQ FORWARD:          0
L2C WQ ACCESS:    3222439
L2C WQ TO_CACHE:    3222439
L2C WQ MERGED:          0
L2C WQ FORWARD:        160
LLC TOTAL     ACCESS:   21191625  HIT:   14469722  MISS:    6721903
LLC LOAD      ACCESS:    8287915  HIT:    5804219  MISS:    2483696
LLC RFO       ACCESS:    1680378  HIT:    1673431  MISS:       6947
LLC PREFETCH  ACCESS:    9047665  HIT:    4821255  MISS:    4226410
LLC WRITEBACK ACCESS:    2175667  HIT:    2170817  MISS:       4850
LLC PREFETCH  REQUESTED:          0  ISSUED:          0  USEFUL:     208639  USELESS:    4020587
LLC TOTAL MSHR MERGED:      41531
LLC LOAD MSHR MERGED:      12777
LLC RFO MSHR MERGED:          0
LLC PREFETCH MSHR MERGED:      28754
LLC WRITEBACK MSHR MERGED:          0
LLC TOTAL ACCESSES:   21233297 HITS:   14469862 MISSES:    6763435
LLC LOAD ACCESSES:    8287942 HITS:    5804246 MISSES:    2483696
LLC RFO ACCESSES:    1680462 HITS:    1673515 MISSES:       6947
LLC PREFETCH ACCESSES:    9089226 HITS:    4821284 MISSES:    4267942
LLC WRITEBACK ACCESSES:    2175667 HITS:    2170817 MISSES:       4850
LLC 0 RQ ACCESS:    9968404
LLC 0 RQ TO_CACHE:    9968293
LLC 0 RQ MERGED:          0
LLC 0 RQ FORWARD:          0
LLC WQ ACCESS:    2175668
LLC WQ TO_CACHE:    2175668
LLC WQ MERGED:          0
LLC WQ FORWARD:        140
Major fault: 0 Minor fault: 56391
CPU 0 L1D next line prefetcher final stats
CPU 0 L2C PC-based stride prefetcher final stats
All Misses: 7935983
All Hits: 16632486
SD Algo Stats - Switches: 0 SRR-Repls: 2603947 BRR-Repls: 0

DRAM Statistics
 CHANNEL 0
 RQ ROW_BUFFER_HIT:    4569783  ROW_BUFFER_MISS:    2138343
 DBUS_CONGESTED:    3163008
 WQ ROW_BUFFER_HIT:        595  ROW_BUFFER_MISS:      18478  FULL:          0

 AVG_CONGESTED_CYCLE: 12
LOADS RETIRED: 173631671
INSTR RETIRED: 500000000
