
*** ChampSim Multicore Out-of-Order Simulator ***

Warmup Instructions: 100000000
Simulation Instructions: 500000000
Number of CPUs: 1
LLC sets: 2048
LLC ways: 16
Clean RRIP Policies: 2213230222132302 Dirty RRIP Policies: 1203030212030302 PSEL Width: 10 Track Set: 4294967295 PSEL Mask: 1 Demote Mask: 3040100030401000DS Algo: 0Window size: 0
Off-chip DRAM Size: 4096 MB Channels: 1 Width: 64-bit Data Rate: 1600 MT/s

CPU 0 runs /mnt/beegfs/iconst01/spec2017/Wrf.trace.gz
NOT SORTED
TRACE STRING: /mnt/beegfs/iconst01/spec2017/Wrf.trace.gz
SORTED
TRACE STRING: /mnt/beegfs/iconst01/spec2017/Wrf.trace.gz
INITIAL
TRACE STRING: /mnt/beegfs/iconst01/spec2017/Wrf.trace.gz

champsim_seed used: 303

CPU 0 L1D next line prefetcher
CPU 0 L2C IP-based stride prefetcher
Initialize DRRIP state
Assign rand_sets[0]: 454  LLC: 2048
rand_sets[0]: 454
Assign rand_sets[1]: 1662  LLC: 2048
rand_sets[1]: 1662
Assign rand_sets[2]: 1921  LLC: 2048
rand_sets[2]: 1921
Assign rand_sets[3]: 1131  LLC: 2048
rand_sets[3]: 1131
Assign rand_sets[4]: 331  LLC: 2048
rand_sets[4]: 331
Assign rand_sets[5]: 1531  LLC: 2048
rand_sets[5]: 1531
Assign rand_sets[6]: 482  LLC: 2048
rand_sets[6]: 482
Assign rand_sets[7]: 1275  LLC: 2048
rand_sets[7]: 1275
Assign rand_sets[8]: 1876  LLC: 2048
rand_sets[8]: 1876
Assign rand_sets[9]: 2038  LLC: 2048
rand_sets[9]: 2038
Assign rand_sets[10]: 701  LLC: 2048
rand_sets[10]: 701
Assign rand_sets[11]: 479  LLC: 2048
rand_sets[11]: 479
Assign rand_sets[12]: 892  LLC: 2048
rand_sets[12]: 892
Assign rand_sets[13]: 1820  LLC: 2048
rand_sets[13]: 1820
Assign rand_sets[14]: 1505  LLC: 2048
rand_sets[14]: 1505
Assign rand_sets[15]: 1159  LLC: 2048
rand_sets[15]: 1159
Assign rand_sets[16]: 513  LLC: 2048
rand_sets[16]: 513
Assign rand_sets[17]: 703  LLC: 2048
rand_sets[17]: 703
Assign rand_sets[18]: 561  LLC: 2048
rand_sets[18]: 561
Assign rand_sets[19]: 990  LLC: 2048
rand_sets[19]: 990
Assign rand_sets[20]: 342  LLC: 2048
rand_sets[20]: 342
Assign rand_sets[21]: 882  LLC: 2048
rand_sets[21]: 882
Assign rand_sets[22]: 15  LLC: 2048
rand_sets[22]: 15
Assign rand_sets[23]: 71  LLC: 2048
rand_sets[23]: 71
Assign rand_sets[24]: 1127  LLC: 2048
rand_sets[24]: 1127
Assign rand_sets[25]: 1382  LLC: 2048
rand_sets[25]: 1382
Assign rand_sets[26]: 647  LLC: 2048
rand_sets[26]: 647
Assign rand_sets[27]: 857  LLC: 2048
rand_sets[27]: 857
Assign rand_sets[28]: 1450  LLC: 2048
rand_sets[28]: 1450
Assign rand_sets[29]: 1160  LLC: 2048
rand_sets[29]: 1160
Assign rand_sets[30]: 1852  LLC: 2048
rand_sets[30]: 1852
Assign rand_sets[31]: 1881  LLC: 2048
rand_sets[31]: 1881
Assign rand_sets[32]: 1770  LLC: 2048
rand_sets[32]: 1770
Assign rand_sets[33]: 1622  LLC: 2048
rand_sets[33]: 1622
Assign rand_sets[34]: 275  LLC: 2048
rand_sets[34]: 275
Assign rand_sets[35]: 635  LLC: 2048
rand_sets[35]: 635
Assign rand_sets[36]: 466  LLC: 2048
rand_sets[36]: 466
Assign rand_sets[37]: 1413  LLC: 2048
rand_sets[37]: 1413
Assign rand_sets[38]: 417  LLC: 2048
rand_sets[38]: 417
Assign rand_sets[39]: 472  LLC: 2048
rand_sets[39]: 472
Assign rand_sets[40]: 1340  LLC: 2048
rand_sets[40]: 1340
Assign rand_sets[41]: 852  LLC: 2048
rand_sets[41]: 852
Assign rand_sets[42]: 1365  LLC: 2048
rand_sets[42]: 1365
Assign rand_sets[43]: 47  LLC: 2048
rand_sets[43]: 47
Assign rand_sets[44]: 823  LLC: 2048
rand_sets[44]: 823
Assign rand_sets[45]: 686  LLC: 2048
rand_sets[45]: 686
Assign rand_sets[46]: 1637  LLC: 2048
rand_sets[46]: 1637
Assign rand_sets[47]: 1115  LLC: 2048
rand_sets[47]: 1115
Assign rand_sets[48]: 986  LLC: 2048
rand_sets[48]: 986
Assign rand_sets[49]: 258  LLC: 2048
rand_sets[49]: 258
Assign rand_sets[50]: 633  LLC: 2048
rand_sets[50]: 633
Assign rand_sets[51]: 920  LLC: 2048
rand_sets[51]: 920
Assign rand_sets[52]: 204  LLC: 2048
rand_sets[52]: 204
Assign rand_sets[53]: 227  LLC: 2048
rand_sets[53]: 227
Assign rand_sets[54]: 1818  LLC: 2048
rand_sets[54]: 1818
Assign rand_sets[55]: 886  LLC: 2048
rand_sets[55]: 886
Assign rand_sets[56]: 1422  LLC: 2048
rand_sets[56]: 1422
Assign rand_sets[57]: 607  LLC: 2048
rand_sets[57]: 607
Assign rand_sets[58]: 217  LLC: 2048
rand_sets[58]: 217
Assign rand_sets[59]: 1945  LLC: 2048
rand_sets[59]: 1945
Assign rand_sets[60]: 143  LLC: 2048
rand_sets[60]: 143
Assign rand_sets[61]: 1311  LLC: 2048
rand_sets[61]: 1311
Assign rand_sets[62]: 319  LLC: 2048
rand_sets[62]: 319
Assign rand_sets[63]: 1846  LLC: 2048
rand_sets[63]: 1846
 CLEAN-RRIP-POLICY-1: 2-2-1-3-2-3-0-2- CLEAN-RRIP-POLICY-2: 2-2-1-3-2-3-0-2-
 DIRTY-RRIP-POLICY-1: 1-2-0-3-0-3-0-2- DIRTY-RRIP-POLICY-2: 1-2-0-3-0-3-0-2-
 PSEL width: 10
Heartbeat CPU 0 instructions: 10000002 cycles: 6559548 heartbeat IPC: 1.5245 cumulative IPC: 1.5245 (Simulation time: 0 hr 0 min 22 sec) 
Heartbeat CPU 0 instructions: 20000000 cycles: 12222139 heartbeat IPC: 1.76598 cumulative IPC: 1.63637 (Simulation time: 0 hr 0 min 42 sec) 
Heartbeat CPU 0 instructions: 30000003 cycles: 18203951 heartbeat IPC: 1.67173 cumulative IPC: 1.64799 (Simulation time: 0 hr 1 min 3 sec) 
Heartbeat CPU 0 instructions: 40000000 cycles: 24059293 heartbeat IPC: 1.70784 cumulative IPC: 1.66256 (Simulation time: 0 hr 1 min 24 sec) 
Heartbeat CPU 0 instructions: 50000000 cycles: 29527687 heartbeat IPC: 1.82869 cumulative IPC: 1.69333 (Simulation time: 0 hr 1 min 45 sec) 
Heartbeat CPU 0 instructions: 60000000 cycles: 35640492 heartbeat IPC: 1.63591 cumulative IPC: 1.68348 (Simulation time: 0 hr 2 min 7 sec) 
Heartbeat CPU 0 instructions: 70000000 cycles: 41360181 heartbeat IPC: 1.74835 cumulative IPC: 1.69245 (Simulation time: 0 hr 2 min 27 sec) 
Heartbeat CPU 0 instructions: 80000000 cycles: 47231156 heartbeat IPC: 1.70329 cumulative IPC: 1.6938 (Simulation time: 0 hr 2 min 48 sec) 
Heartbeat CPU 0 instructions: 90000000 cycles: 52984662 heartbeat IPC: 1.73807 cumulative IPC: 1.6986 (Simulation time: 0 hr 3 min 9 sec) 
Heartbeat CPU 0 instructions: 100000000 cycles: 58537412 heartbeat IPC: 1.80091 cumulative IPC: 1.70831 (Simulation time: 0 hr 3 min 30 sec) 

Warmup complete CPU 0 instructions: 100000004 cycles: 58537414 (Simulation time: 0 hr 3 min 30 sec) 

Heartbeat CPU 0 instructions: 110000001 cycles: 72348765 heartbeat IPC: 0.724042 cumulative IPC: 0.724042 (Simulation time: 0 hr 3 min 55 sec) 
Heartbeat CPU 0 instructions: 120000000 cycles: 82852546 heartbeat IPC: 0.952038 cumulative IPC: 0.822533 (Simulation time: 0 hr 4 min 19 sec) 
Heartbeat CPU 0 instructions: 130000000 cycles: 92489713 heartbeat IPC: 1.03765 cumulative IPC: 0.883592 (Simulation time: 0 hr 4 min 42 sec) 
Heartbeat CPU 0 instructions: 140000000 cycles: 102891018 heartbeat IPC: 0.961418 cumulative IPC: 0.901843 (Simulation time: 0 hr 5 min 5 sec) 
Heartbeat CPU 0 instructions: 150000002 cycles: 113599829 heartbeat IPC: 0.933811 cumulative IPC: 0.90806 (Simulation time: 0 hr 5 min 29 sec) 
Heartbeat CPU 0 instructions: 160000000 cycles: 122441661 heartbeat IPC: 1.13099 cumulative IPC: 0.938905 (Simulation time: 0 hr 5 min 51 sec) 
Heartbeat CPU 0 instructions: 170000003 cycles: 132563065 heartbeat IPC: 0.988006 cumulative IPC: 0.945618 (Simulation time: 0 hr 6 min 14 sec) 
Heartbeat CPU 0 instructions: 180000000 cycles: 144990783 heartbeat IPC: 0.804653 cumulative IPC: 0.925354 (Simulation time: 0 hr 6 min 39 sec) 
Heartbeat CPU 0 instructions: 190000000 cycles: 160064127 heartbeat IPC: 0.663423 cumulative IPC: 0.886466 (Simulation time: 0 hr 7 min 3 sec) 
Heartbeat CPU 0 instructions: 200000000 cycles: 175100189 heartbeat IPC: 0.665068 cumulative IPC: 0.857907 (Simulation time: 0 hr 7 min 27 sec) 
Heartbeat CPU 0 instructions: 210000000 cycles: 190129595 heartbeat IPC: 0.665362 cumulative IPC: 0.835916 (Simulation time: 0 hr 7 min 52 sec) 
Heartbeat CPU 0 instructions: 220000000 cycles: 206043304 heartbeat IPC: 0.628389 cumulative IPC: 0.813527 (Simulation time: 0 hr 8 min 18 sec) 
Heartbeat CPU 0 instructions: 230000003 cycles: 224606202 heartbeat IPC: 0.538709 cumulative IPC: 0.782808 (Simulation time: 0 hr 8 min 47 sec) 
Heartbeat CPU 0 instructions: 240000000 cycles: 233765774 heartbeat IPC: 1.09175 cumulative IPC: 0.798957 (Simulation time: 0 hr 9 min 9 sec) 
Heartbeat CPU 0 instructions: 250000000 cycles: 242522106 heartbeat IPC: 1.14203 cumulative IPC: 0.815285 (Simulation time: 0 hr 9 min 31 sec) 
Heartbeat CPU 0 instructions: 260000000 cycles: 251664027 heartbeat IPC: 1.09386 cumulative IPC: 0.828472 (Simulation time: 0 hr 9 min 52 sec) 
Heartbeat CPU 0 instructions: 270000000 cycles: 261314195 heartbeat IPC: 1.03625 cumulative IPC: 0.83836 (Simulation time: 0 hr 10 min 15 sec) 
Heartbeat CPU 0 instructions: 280000000 cycles: 271079893 heartbeat IPC: 1.02399 cumulative IPC: 0.846889 (Simulation time: 0 hr 10 min 39 sec) 
Heartbeat CPU 0 instructions: 290000000 cycles: 281239489 heartbeat IPC: 0.984291 cumulative IPC: 0.853158 (Simulation time: 0 hr 11 min 4 sec) 
Heartbeat CPU 0 instructions: 300000000 cycles: 290110221 heartbeat IPC: 1.1273 cumulative IPC: 0.863659 (Simulation time: 0 hr 11 min 27 sec) 
Heartbeat CPU 0 instructions: 310000002 cycles: 304464355 heartbeat IPC: 0.696664 cumulative IPC: 0.853912 (Simulation time: 0 hr 11 min 53 sec) 
Heartbeat CPU 0 instructions: 320000000 cycles: 320621649 heartbeat IPC: 0.618915 cumulative IPC: 0.839425 (Simulation time: 0 hr 12 min 22 sec) 
Heartbeat CPU 0 instructions: 330000002 cycles: 331255204 heartbeat IPC: 0.940419 cumulative IPC: 0.843363 (Simulation time: 0 hr 12 min 46 sec) 
Heartbeat CPU 0 instructions: 340000000 cycles: 341716644 heartbeat IPC: 0.955891 cumulative IPC: 0.84752 (Simulation time: 0 hr 13 min 10 sec) 
Heartbeat CPU 0 instructions: 350000002 cycles: 354757074 heartbeat IPC: 0.766846 cumulative IPC: 0.843968 (Simulation time: 0 hr 13 min 36 sec) 
Heartbeat CPU 0 instructions: 360000000 cycles: 365916273 heartbeat IPC: 0.896122 cumulative IPC: 0.845862 (Simulation time: 0 hr 14 min 0 sec) 
Heartbeat CPU 0 instructions: 370000002 cycles: 376646087 heartbeat IPC: 0.931983 cumulative IPC: 0.848767 (Simulation time: 0 hr 14 min 25 sec) 
Heartbeat CPU 0 instructions: 380000000 cycles: 387148195 heartbeat IPC: 0.95219 cumulative IPC: 0.852072 (Simulation time: 0 hr 14 min 49 sec) 
Heartbeat CPU 0 instructions: 390000003 cycles: 404516429 heartbeat IPC: 0.575764 cumulative IPC: 0.838201 (Simulation time: 0 hr 15 min 18 sec) 
Heartbeat CPU 0 instructions: 400000000 cycles: 415064111 heartbeat IPC: 0.948075 cumulative IPC: 0.841452 (Simulation time: 0 hr 15 min 41 sec) 
Heartbeat CPU 0 instructions: 410000002 cycles: 424890327 heartbeat IPC: 1.01769 cumulative IPC: 0.846179 (Simulation time: 0 hr 16 min 3 sec) 
Heartbeat CPU 0 instructions: 420000000 cycles: 434527970 heartbeat IPC: 1.0376 cumulative IPC: 0.851085 (Simulation time: 0 hr 16 min 25 sec) 
Heartbeat CPU 0 instructions: 430000001 cycles: 444254168 heartbeat IPC: 1.02815 cumulative IPC: 0.85555 (Simulation time: 0 hr 16 min 47 sec) 
Heartbeat CPU 0 instructions: 440000000 cycles: 455705880 heartbeat IPC: 0.873232 cumulative IPC: 0.85606 (Simulation time: 0 hr 17 min 10 sec) 
Heartbeat CPU 0 instructions: 450000002 cycles: 470789518 heartbeat IPC: 0.66297 cumulative IPC: 0.848995 (Simulation time: 0 hr 17 min 34 sec) 
Heartbeat CPU 0 instructions: 460000000 cycles: 485854404 heartbeat IPC: 0.663795 cumulative IPC: 0.842466 (Simulation time: 0 hr 17 min 58 sec) 
Heartbeat CPU 0 instructions: 470000003 cycles: 500910515 heartbeat IPC: 0.664182 cumulative IPC: 0.836398 (Simulation time: 0 hr 18 min 22 sec) 
Heartbeat CPU 0 instructions: 480000000 cycles: 516871932 heartbeat IPC: 0.626511 cumulative IPC: 0.829089 (Simulation time: 0 hr 18 min 49 sec) 
Heartbeat CPU 0 instructions: 490000002 cycles: 535564948 heartbeat IPC: 0.534959 cumulative IPC: 0.817563 (Simulation time: 0 hr 19 min 18 sec) 
Heartbeat CPU 0 instructions: 500000000 cycles: 544665075 heartbeat IPC: 1.09889 cumulative IPC: 0.822829 (Simulation time: 0 hr 19 min 40 sec) 
Heartbeat CPU 0 instructions: 510000002 cycles: 553476880 heartbeat IPC: 1.13484 cumulative IPC: 0.828384 (Simulation time: 0 hr 20 min 1 sec) 
Heartbeat CPU 0 instructions: 520000000 cycles: 562625877 heartbeat IPC: 1.09302 cumulative IPC: 0.833187 (Simulation time: 0 hr 20 min 23 sec) 
Heartbeat CPU 0 instructions: 530000002 cycles: 572278348 heartbeat IPC: 1.036 cumulative IPC: 0.836998 (Simulation time: 0 hr 20 min 46 sec) 
Heartbeat CPU 0 instructions: 540000000 cycles: 581985412 heartbeat IPC: 1.03018 cumulative IPC: 0.84058 (Simulation time: 0 hr 21 min 10 sec) 
Heartbeat CPU 0 instructions: 550000002 cycles: 592176452 heartbeat IPC: 0.981254 cumulative IPC: 0.843267 (Simulation time: 0 hr 21 min 35 sec) 
Heartbeat CPU 0 instructions: 560000000 cycles: 601036780 heartbeat IPC: 1.12863 cumulative IPC: 0.847927 (Simulation time: 0 hr 21 min 57 sec) 
Heartbeat CPU 0 instructions: 570000003 cycles: 615239653 heartbeat IPC: 0.704083 cumulative IPC: 0.844257 (Simulation time: 0 hr 22 min 24 sec) 
Heartbeat CPU 0 instructions: 580000000 cycles: 631511247 heartbeat IPC: 0.614568 cumulative IPC: 0.837735 (Simulation time: 0 hr 22 min 52 sec) 
Heartbeat CPU 0 instructions: 590000002 cycles: 641742774 heartbeat IPC: 0.977371 cumulative IPC: 0.840184 (Simulation time: 0 hr 23 min 16 sec) 
Heartbeat CPU 0 instructions: 600000000 cycles: 652610818 heartbeat IPC: 0.920129 cumulative IPC: 0.841647 (Simulation time: 0 hr 23 min 40 sec) 
Finished CPU 0 instructions: 500000000 cycles: 594073423 cumulative IPC: 0.841647 (Simulation time: 0 hr 23 min 40 sec) 

CPU 0 Branch Prediction Accuracy: 99.5219% MPKI: 0.251582
Number of Branches: 26312578 Number of Mispredictions: 125791
Number of LOAD Instructions: 235643083
Number of LOAD Instructions (ROI): 235643083
Number of STORE Instructions: 37593550
Number of STORE Instructions (ROI): 37593550
Total Destination Memory Operands: 40480968
Total Destination Memory Operands (ROI): 40480968
Total Source Memory Operands: 235643083
Total Source Memory Operands (ROI): 235643083
Number of DEPENDED LOADS: 6698826
Number of DEPENDED LOADS (ROI): 6698826
Number of SQ_ADDED: 40480950
Number of SQ_ADDED (ROI): 40480950
Number of LQ_ADDED: 388660199
Number of LQ_ADDED (ROI): 388660199
Number of Instructions read from trace: 600000259

ChampSim completed all CPUs

Region of Interest Statistics

CPU 0 cumulative IPC: 0.841647 instructions: 500000000 cycles: 594073423
ITLB TOTAL     ACCESS:  109318924  HIT:  109318411  MISS:        513
ITLB LOAD      ACCESS:  109318924  HIT:  109318411  MISS:        513
ITLB RFO       ACCESS:          0  HIT:          0  MISS:          0
ITLB PREFETCH  ACCESS:          0  HIT:          0  MISS:          0
ITLB WRITEBACK ACCESS:          0  HIT:          0  MISS:          0
ITLB PREFETCH  REQUESTED:          0  ISSUED:          0  USEFUL:          0  USELESS:          0
ITLB TOTAL MSHR MERGED:        972
ITLB LOAD MSHR MERGED:        972
ITLB RFO MSHR MERGED:          0
ITLB PREFETCH MSHR MERGED:          0
ITLB WRITEBACK MSHR MERGED:          0
ITLB TOTAL ACCESSES:  109319896 HITS:  109318411 MISSES:       1485
ITLB LOAD ACCESSES:  109319896 HITS:  109318411 MISSES:       1485
ITLB RFO ACCESSES:          0 HITS:          0 MISSES:          0
ITLB PREFETCH ACCESSES:          0 HITS:          0 MISSES:          0
ITLB WRITEBACK ACCESSES:          0 HITS:          0 MISSES:          0
ITLB RQ ACCESS:  500000003
ITLB RQ TO_CACHE:  109319896
ITLB RQ MERGED:  390680107
ITLB RQ FORWARD:          0
ITLB WQ ACCESS:          0
ITLB WQ TO_CACHE:          0
ITLB WQ MERGED:          0
ITLB WQ FORWARD:          0
DTLB TOTAL     ACCESS:  130433369  HIT:  130175690  MISS:     257679
DTLB LOAD      ACCESS:  109031055  HIT:  108810234  MISS:     220821
DTLB RFO       ACCESS:   21402314  HIT:   21365456  MISS:      36858
DTLB PREFETCH  ACCESS:          0  HIT:          0  MISS:          0
DTLB WRITEBACK ACCESS:          0  HIT:          0  MISS:          0
DTLB PREFETCH  REQUESTED:          0  ISSUED:          0  USEFUL:          0  USELESS:          0
DTLB TOTAL MSHR MERGED:     122274
DTLB LOAD MSHR MERGED:      84252
DTLB RFO MSHR MERGED:      38022
DTLB PREFETCH MSHR MERGED:          0
DTLB WRITEBACK MSHR MERGED:          0
DTLB TOTAL ACCESSES:  130555643 HITS:  130175690 MISSES:     379953
DTLB LOAD ACCESSES:  109115307 HITS:  108810234 MISSES:     305073
DTLB RFO ACCESSES:   21440336 HITS:   21365456 MISSES:      74880
DTLB PREFETCH ACCESSES:          0 HITS:          0 MISSES:          0
DTLB WRITEBACK ACCESSES:          0 HITS:          0 MISSES:          0
DTLB RQ ACCESS:  218635576
DTLB RQ TO_CACHE:  130555644
DTLB RQ MERGED:   88079932
DTLB RQ FORWARD:          0
DTLB WQ ACCESS:          0
DTLB WQ TO_CACHE:          0
DTLB WQ MERGED:          0
DTLB WQ FORWARD:          0
L1D TOTAL     ACCESS:  204703602  HIT:  193632074  MISS:   11071528
L1D LOAD      ACCESS:  106318084  HIT:  103162272  MISS:    3155812
L1D RFO       ACCESS:   26962618  HIT:   25212417  MISS:    1750201
L1D PREFETCH  ACCESS:   71422900  HIT:   65257385  MISS:    6165515
L1D WRITEBACK ACCESS:          0  HIT:          0  MISS:          0
L1D PREFETCH  REQUESTED:  108921337  ISSUED:  107258651  USEFUL:    5711232  USELESS:     454277
L1D TOTAL MSHR MERGED:   18235486
L1D LOAD MSHR MERGED:    4595034
L1D RFO MSHR MERGED:    6479860
L1D PREFETCH MSHR MERGED:    7160592
L1D WRITEBACK MSHR MERGED:          0
L1D TOTAL ACCESSES:  222998186 HITS:  193691172 MISSES:   29307014
L1D LOAD ACCESSES:  108944775 HITS:  103185710 MISSES:    5759065
L1D RFO ACCESSES:   33440309 HITS:   25212417 MISSES:    8227892
L1D PREFETCH ACCESSES:   80613102 HITS:   65293045 MISSES:   15320057
L1D WRITEBACK ACCESSES:          0 HITS:          0 MISSES:          0
L1D RQ ACCESS:  184992138
L1D RQ TO_CACHE:  108921337
L1D RQ MERGED:   76047363
L1D RQ FORWARD:          0
L1D WQ ACCESS:   33643426
L1D WQ TO_CACHE:   33440308
L1D WQ MERGED:     203118
L1D WQ FORWARD:      59098
L1I TOTAL     ACCESS:  134005317  HIT:  133980739  MISS:      24578
L1I LOAD      ACCESS:  134005317  HIT:  133980739  MISS:      24578
L1I RFO       ACCESS:          0  HIT:          0  MISS:          0
L1I PREFETCH  ACCESS:          0  HIT:          0  MISS:          0
L1I WRITEBACK ACCESS:          0  HIT:          0  MISS:          0
L1I PREFETCH  REQUESTED:          0  ISSUED:          0  USEFUL:          0  USELESS:          0
L1I TOTAL MSHR MERGED:      30543
L1I LOAD MSHR MERGED:      30543
L1I RFO MSHR MERGED:          0
L1I PREFETCH MSHR MERGED:          0
L1I WRITEBACK MSHR MERGED:          0
L1I TOTAL ACCESSES:  134035860 HITS:  133980739 MISSES:      55121
L1I LOAD ACCESSES:  134035860 HITS:  133980739 MISSES:      55121
L1I RFO ACCESSES:          0 HITS:          0 MISSES:          0
L1I PREFETCH ACCESSES:          0 HITS:          0 MISSES:          0
L1I WRITEBACK ACCESSES:          0 HITS:          0 MISSES:          0
L1I RQ ACCESS:  500000005
L1I RQ TO_CACHE:  134035860
L1I RQ MERGED:  365964145
L1I RQ FORWARD:          0
L1I WQ ACCESS:          0
L1I WQ TO_CACHE:          0
L1I WQ MERGED:          0
L1I WQ FORWARD:          0
L2C TOTAL     ACCESS:   14942492  HIT:    6945230  MISS:    7997262
L2C LOAD      ACCESS:    1188414  HIT:     299430  MISS:     888984
L2C RFO       ACCESS:    1747812  HIT:     369375  MISS:    1378437
L2C PREFETCH  ACCESS:    8324396  HIT:    2603248  MISS:    5721148
L2C WRITEBACK ACCESS:    3681870  HIT:    3673177  MISS:       8693
L2C PREFETCH  REQUESTED:     390058  ISSUED:     390051  USEFUL:     114928  USELESS:    5607054
L2C TOTAL MSHR MERGED:      42071
L2C LOAD MSHR MERGED:       2293
L2C RFO MSHR MERGED:       1462
L2C PREFETCH MSHR MERGED:      38316
L2C WRITEBACK MSHR MERGED:          0
L2C TOTAL ACCESSES:   15103557 HITS:    6945932 MISSES:    8157625
L2C LOAD ACCESSES:    1188609 HITS:     299625 MISSES:     888984
L2C RFO ACCESSES:    1748032 HITS:     369595 MISSES:    1378437
L2C PREFETCH ACCESSES:    8485046 HITS:    2603535 MISSES:    5881511
L2C WRITEBACK ACCESSES:    3681870 HITS:    3673177 MISSES:       8693
L2C RQ ACCESS:    2936641
L2C RQ TO_CACHE:    2936226
L2C RQ MERGED:          0
L2C RQ FORWARD:          0
L2C WQ ACCESS:    3681870
L2C WQ TO_CACHE:    3681870
L2C WQ MERGED:          0
L2C WQ FORWARD:        702
LLC TOTAL     ACCESS:   11182807  HIT:    3065341  MISS:    8117466
LLC LOAD      ACCESS:     886686  HIT:     313386  MISS:     573300
LLC RFO       ACCESS:    1376974  HIT:     249162  MISS:    1127812
LLC PREFETCH  ACCESS:    5814369  HIT:    1182578  MISS:    4631791
LLC WRITEBACK ACCESS:    3104778  HIT:    1320215  MISS:    1784563
LLC PREFETCH  REQUESTED:          0  ISSUED:          0  USEFUL:      30720  USELESS:    4600549
LLC TOTAL MSHR MERGED:      21817
LLC LOAD MSHR MERGED:       6622
LLC RFO MSHR MERGED:        618
LLC PREFETCH MSHR MERGED:      14577
LLC WRITEBACK MSHR MERGED:          0
LLC TOTAL ACCESSES:   11204644 HITS:    3065361 MISSES:    8139283
LLC LOAD ACCESSES:     886691 HITS:     313391 MISSES:     573300
LLC RFO ACCESSES:    1376975 HITS:     249163 MISSES:    1127812
LLC PREFETCH ACCESSES:    5836200 HITS:    1182592 MISSES:    4653608
LLC WRITEBACK ACCESSES:    3104778 HITS:    1320215 MISSES:    1784563
LLC 0 RQ ACCESS:    2263666
LLC 0 RQ TO_CACHE:    2263660
LLC 0 RQ MERGED:          0
LLC 0 RQ FORWARD:          0
LLC WQ ACCESS:    3104778
LLC WQ TO_CACHE:    3104778
LLC WQ MERGED:          0
LLC WQ FORWARD:         20
Major fault: 0 Minor fault: 11519
CPU 0 L1D next line prefetcher final stats
CPU 0 L2C PC-based stride prefetcher final stats
All Misses: 10229670
All Hits: 3564198
SD Algo Stats - Switches: 0 SRR-Repls: 645074 BRR-Repls: 0

DRAM Statistics
 CHANNEL 0
 RQ ROW_BUFFER_HIT:    3865892  ROW_BUFFER_MISS:    2466168
 DBUS_CONGESTED:    4339175
 WQ ROW_BUFFER_HIT:     375321  ROW_BUFFER_MISS:    1757219  FULL:        179

 AVG_CONGESTED_CYCLE: 13
LOADS RETIRED: 190375692
INSTR RETIRED: 500000000
