
*** ChampSim Multicore Out-of-Order Simulator ***

Warmup Instructions: 100000000
Simulation Instructions: 500000000
Number of CPUs: 1
LLC sets: 2048
LLC ways: 16
Clean RRIP Policies: 1213230112132301 Dirty RRIP Policies: 2203130122031301 PSEL Width: 10 Track Set: 4294967295 PSEL Mask: 1 Demote Mask: 3040100230401002DS Algo: 0Window size: 0
Off-chip DRAM Size: 4096 MB Channels: 1 Width: 64-bit Data Rate: 1600 MT/s

CPU 0 runs /mnt/beegfs/iconst01/spec2017/Wrf.trace.gz
NOT SORTED
TRACE STRING: /mnt/beegfs/iconst01/spec2017/Wrf.trace.gz
SORTED
TRACE STRING: /mnt/beegfs/iconst01/spec2017/Wrf.trace.gz
INITIAL
TRACE STRING: /mnt/beegfs/iconst01/spec2017/Wrf.trace.gz

champsim_seed used: 303

CPU 0 L1D next line prefetcher
CPU 0 L2C IP-based stride prefetcher
Initialize DRRIP state
Assign rand_sets[0]: 454  LLC: 2048
rand_sets[0]: 454
Assign rand_sets[1]: 1662  LLC: 2048
rand_sets[1]: 1662
Assign rand_sets[2]: 1921  LLC: 2048
rand_sets[2]: 1921
Assign rand_sets[3]: 1131  LLC: 2048
rand_sets[3]: 1131
Assign rand_sets[4]: 331  LLC: 2048
rand_sets[4]: 331
Assign rand_sets[5]: 1531  LLC: 2048
rand_sets[5]: 1531
Assign rand_sets[6]: 482  LLC: 2048
rand_sets[6]: 482
Assign rand_sets[7]: 1275  LLC: 2048
rand_sets[7]: 1275
Assign rand_sets[8]: 1876  LLC: 2048
rand_sets[8]: 1876
Assign rand_sets[9]: 2038  LLC: 2048
rand_sets[9]: 2038
Assign rand_sets[10]: 701  LLC: 2048
rand_sets[10]: 701
Assign rand_sets[11]: 479  LLC: 2048
rand_sets[11]: 479
Assign rand_sets[12]: 892  LLC: 2048
rand_sets[12]: 892
Assign rand_sets[13]: 1820  LLC: 2048
rand_sets[13]: 1820
Assign rand_sets[14]: 1505  LLC: 2048
rand_sets[14]: 1505
Assign rand_sets[15]: 1159  LLC: 2048
rand_sets[15]: 1159
Assign rand_sets[16]: 513  LLC: 2048
rand_sets[16]: 513
Assign rand_sets[17]: 703  LLC: 2048
rand_sets[17]: 703
Assign rand_sets[18]: 561  LLC: 2048
rand_sets[18]: 561
Assign rand_sets[19]: 990  LLC: 2048
rand_sets[19]: 990
Assign rand_sets[20]: 342  LLC: 2048
rand_sets[20]: 342
Assign rand_sets[21]: 882  LLC: 2048
rand_sets[21]: 882
Assign rand_sets[22]: 15  LLC: 2048
rand_sets[22]: 15
Assign rand_sets[23]: 71  LLC: 2048
rand_sets[23]: 71
Assign rand_sets[24]: 1127  LLC: 2048
rand_sets[24]: 1127
Assign rand_sets[25]: 1382  LLC: 2048
rand_sets[25]: 1382
Assign rand_sets[26]: 647  LLC: 2048
rand_sets[26]: 647
Assign rand_sets[27]: 857  LLC: 2048
rand_sets[27]: 857
Assign rand_sets[28]: 1450  LLC: 2048
rand_sets[28]: 1450
Assign rand_sets[29]: 1160  LLC: 2048
rand_sets[29]: 1160
Assign rand_sets[30]: 1852  LLC: 2048
rand_sets[30]: 1852
Assign rand_sets[31]: 1881  LLC: 2048
rand_sets[31]: 1881
Assign rand_sets[32]: 1770  LLC: 2048
rand_sets[32]: 1770
Assign rand_sets[33]: 1622  LLC: 2048
rand_sets[33]: 1622
Assign rand_sets[34]: 275  LLC: 2048
rand_sets[34]: 275
Assign rand_sets[35]: 635  LLC: 2048
rand_sets[35]: 635
Assign rand_sets[36]: 466  LLC: 2048
rand_sets[36]: 466
Assign rand_sets[37]: 1413  LLC: 2048
rand_sets[37]: 1413
Assign rand_sets[38]: 417  LLC: 2048
rand_sets[38]: 417
Assign rand_sets[39]: 472  LLC: 2048
rand_sets[39]: 472
Assign rand_sets[40]: 1340  LLC: 2048
rand_sets[40]: 1340
Assign rand_sets[41]: 852  LLC: 2048
rand_sets[41]: 852
Assign rand_sets[42]: 1365  LLC: 2048
rand_sets[42]: 1365
Assign rand_sets[43]: 47  LLC: 2048
rand_sets[43]: 47
Assign rand_sets[44]: 823  LLC: 2048
rand_sets[44]: 823
Assign rand_sets[45]: 686  LLC: 2048
rand_sets[45]: 686
Assign rand_sets[46]: 1637  LLC: 2048
rand_sets[46]: 1637
Assign rand_sets[47]: 1115  LLC: 2048
rand_sets[47]: 1115
Assign rand_sets[48]: 986  LLC: 2048
rand_sets[48]: 986
Assign rand_sets[49]: 258  LLC: 2048
rand_sets[49]: 258
Assign rand_sets[50]: 633  LLC: 2048
rand_sets[50]: 633
Assign rand_sets[51]: 920  LLC: 2048
rand_sets[51]: 920
Assign rand_sets[52]: 204  LLC: 2048
rand_sets[52]: 204
Assign rand_sets[53]: 227  LLC: 2048
rand_sets[53]: 227
Assign rand_sets[54]: 1818  LLC: 2048
rand_sets[54]: 1818
Assign rand_sets[55]: 886  LLC: 2048
rand_sets[55]: 886
Assign rand_sets[56]: 1422  LLC: 2048
rand_sets[56]: 1422
Assign rand_sets[57]: 607  LLC: 2048
rand_sets[57]: 607
Assign rand_sets[58]: 217  LLC: 2048
rand_sets[58]: 217
Assign rand_sets[59]: 1945  LLC: 2048
rand_sets[59]: 1945
Assign rand_sets[60]: 143  LLC: 2048
rand_sets[60]: 143
Assign rand_sets[61]: 1311  LLC: 2048
rand_sets[61]: 1311
Assign rand_sets[62]: 319  LLC: 2048
rand_sets[62]: 319
Assign rand_sets[63]: 1846  LLC: 2048
rand_sets[63]: 1846
 CLEAN-RRIP-POLICY-1: 1-2-1-3-2-3-0-1- CLEAN-RRIP-POLICY-2: 1-2-1-3-2-3-0-1-
 DIRTY-RRIP-POLICY-1: 2-2-0-3-1-3-0-1- DIRTY-RRIP-POLICY-2: 2-2-0-3-1-3-0-1-
 PSEL width: 10
Heartbeat CPU 0 instructions: 10000002 cycles: 6559553 heartbeat IPC: 1.52449 cumulative IPC: 1.52449 (Simulation time: 0 hr 0 min 23 sec) 
Heartbeat CPU 0 instructions: 20000000 cycles: 12222100 heartbeat IPC: 1.76599 cumulative IPC: 1.63638 (Simulation time: 0 hr 0 min 44 sec) 
Heartbeat CPU 0 instructions: 30000003 cycles: 18203870 heartbeat IPC: 1.67175 cumulative IPC: 1.648 (Simulation time: 0 hr 1 min 6 sec) 
Heartbeat CPU 0 instructions: 40000000 cycles: 24059212 heartbeat IPC: 1.70784 cumulative IPC: 1.66256 (Simulation time: 0 hr 1 min 28 sec) 
Heartbeat CPU 0 instructions: 50000000 cycles: 29527552 heartbeat IPC: 1.82871 cumulative IPC: 1.69333 (Simulation time: 0 hr 1 min 49 sec) 
Heartbeat CPU 0 instructions: 60000000 cycles: 35640345 heartbeat IPC: 1.63591 cumulative IPC: 1.68349 (Simulation time: 0 hr 2 min 11 sec) 
Heartbeat CPU 0 instructions: 70000000 cycles: 41360034 heartbeat IPC: 1.74835 cumulative IPC: 1.69246 (Simulation time: 0 hr 2 min 32 sec) 
Heartbeat CPU 0 instructions: 80000000 cycles: 47230984 heartbeat IPC: 1.7033 cumulative IPC: 1.6938 (Simulation time: 0 hr 2 min 53 sec) 
Heartbeat CPU 0 instructions: 90000000 cycles: 52984507 heartbeat IPC: 1.73807 cumulative IPC: 1.69861 (Simulation time: 0 hr 3 min 15 sec) 
Heartbeat CPU 0 instructions: 100000000 cycles: 58537402 heartbeat IPC: 1.80086 cumulative IPC: 1.70831 (Simulation time: 0 hr 3 min 36 sec) 

Warmup complete CPU 0 instructions: 100000004 cycles: 58537404 (Simulation time: 0 hr 3 min 36 sec) 

Heartbeat CPU 0 instructions: 110000001 cycles: 72388966 heartbeat IPC: 0.72194 cumulative IPC: 0.72194 (Simulation time: 0 hr 4 min 2 sec) 
Heartbeat CPU 0 instructions: 120000000 cycles: 83106486 heartbeat IPC: 0.933052 cumulative IPC: 0.814031 (Simulation time: 0 hr 4 min 26 sec) 
Heartbeat CPU 0 instructions: 130000000 cycles: 92810867 heartbeat IPC: 1.03046 cumulative IPC: 0.875313 (Simulation time: 0 hr 4 min 49 sec) 
Heartbeat CPU 0 instructions: 140000000 cycles: 103314999 heartbeat IPC: 0.952006 cumulative IPC: 0.893304 (Simulation time: 0 hr 5 min 12 sec) 
Heartbeat CPU 0 instructions: 150000002 cycles: 114164183 heartbeat IPC: 0.921728 cumulative IPC: 0.898848 (Simulation time: 0 hr 5 min 36 sec) 
Heartbeat CPU 0 instructions: 160000000 cycles: 123053505 heartbeat IPC: 1.12494 cumulative IPC: 0.93 (Simulation time: 0 hr 5 min 58 sec) 
Heartbeat CPU 0 instructions: 170000003 cycles: 133341543 heartbeat IPC: 0.972003 cumulative IPC: 0.935777 (Simulation time: 0 hr 6 min 21 sec) 
Heartbeat CPU 0 instructions: 180000000 cycles: 145882414 heartbeat IPC: 0.797393 cumulative IPC: 0.915908 (Simulation time: 0 hr 6 min 46 sec) 
Heartbeat CPU 0 instructions: 190000000 cycles: 160957481 heartbeat IPC: 0.663347 cumulative IPC: 0.878734 (Simulation time: 0 hr 7 min 11 sec) 
Heartbeat CPU 0 instructions: 200000000 cycles: 175995780 heartbeat IPC: 0.664969 cumulative IPC: 0.851365 (Simulation time: 0 hr 7 min 35 sec) 
Heartbeat CPU 0 instructions: 210000000 cycles: 191024438 heartbeat IPC: 0.665395 cumulative IPC: 0.83027 (Simulation time: 0 hr 7 min 59 sec) 
Heartbeat CPU 0 instructions: 220000000 cycles: 206960854 heartbeat IPC: 0.627494 cumulative IPC: 0.808498 (Simulation time: 0 hr 8 min 26 sec) 
Heartbeat CPU 0 instructions: 230000003 cycles: 225370214 heartbeat IPC: 0.543202 cumulative IPC: 0.779223 (Simulation time: 0 hr 8 min 55 sec) 
Heartbeat CPU 0 instructions: 240000000 cycles: 234521334 heartbeat IPC: 1.09276 cumulative IPC: 0.795527 (Simulation time: 0 hr 9 min 17 sec) 
Heartbeat CPU 0 instructions: 250000000 cycles: 243238225 heartbeat IPC: 1.1472 cumulative IPC: 0.812124 (Simulation time: 0 hr 9 min 39 sec) 
Heartbeat CPU 0 instructions: 260000000 cycles: 252319621 heartbeat IPC: 1.10115 cumulative IPC: 0.825669 (Simulation time: 0 hr 10 min 1 sec) 
Heartbeat CPU 0 instructions: 270000000 cycles: 261936491 heartbeat IPC: 1.03984 cumulative IPC: 0.835795 (Simulation time: 0 hr 10 min 24 sec) 
Heartbeat CPU 0 instructions: 280000000 cycles: 271733312 heartbeat IPC: 1.02074 cumulative IPC: 0.844294 (Simulation time: 0 hr 10 min 48 sec) 
Heartbeat CPU 0 instructions: 290000000 cycles: 281818570 heartbeat IPC: 0.991546 cumulative IPC: 0.850945 (Simulation time: 0 hr 11 min 13 sec) 
Heartbeat CPU 0 instructions: 300000000 cycles: 290648246 heartbeat IPC: 1.13254 cumulative IPC: 0.861657 (Simulation time: 0 hr 11 min 35 sec) 
Heartbeat CPU 0 instructions: 310000002 cycles: 305114707 heartbeat IPC: 0.691254 cumulative IPC: 0.85166 (Simulation time: 0 hr 12 min 2 sec) 
Heartbeat CPU 0 instructions: 320000000 cycles: 321233250 heartbeat IPC: 0.620403 cumulative IPC: 0.83747 (Simulation time: 0 hr 12 min 31 sec) 
Heartbeat CPU 0 instructions: 330000002 cycles: 331891519 heartbeat IPC: 0.938239 cumulative IPC: 0.841399 (Simulation time: 0 hr 12 min 55 sec) 
Heartbeat CPU 0 instructions: 340000000 cycles: 342361769 heartbeat IPC: 0.955087 cumulative IPC: 0.845593 (Simulation time: 0 hr 13 min 19 sec) 
Heartbeat CPU 0 instructions: 350000002 cycles: 355330415 heartbeat IPC: 0.771091 cumulative IPC: 0.842338 (Simulation time: 0 hr 13 min 46 sec) 
Heartbeat CPU 0 instructions: 360000000 cycles: 366518920 heartbeat IPC: 0.893774 cumulative IPC: 0.844207 (Simulation time: 0 hr 14 min 10 sec) 
Heartbeat CPU 0 instructions: 370000000 cycles: 377265359 heartbeat IPC: 0.930541 cumulative IPC: 0.847117 (Simulation time: 0 hr 14 min 34 sec) 
Heartbeat CPU 0 instructions: 380000000 cycles: 387808960 heartbeat IPC: 0.948443 cumulative IPC: 0.850362 (Simulation time: 0 hr 14 min 59 sec) 
Heartbeat CPU 0 instructions: 390000003 cycles: 405182653 heartbeat IPC: 0.575583 cumulative IPC: 0.83659 (Simulation time: 0 hr 15 min 28 sec) 
Heartbeat CPU 0 instructions: 400000000 cycles: 415805949 heartbeat IPC: 0.941327 cumulative IPC: 0.839704 (Simulation time: 0 hr 15 min 51 sec) 
Heartbeat CPU 0 instructions: 410000002 cycles: 425809291 heartbeat IPC: 0.999666 cumulative IPC: 0.844061 (Simulation time: 0 hr 16 min 13 sec) 
Heartbeat CPU 0 instructions: 420000000 cycles: 435546689 heartbeat IPC: 1.02697 cumulative IPC: 0.848785 (Simulation time: 0 hr 16 min 35 sec) 
Heartbeat CPU 0 instructions: 430000001 cycles: 445372620 heartbeat IPC: 1.01772 cumulative IPC: 0.853076 (Simulation time: 0 hr 16 min 57 sec) 
Heartbeat CPU 0 instructions: 440000000 cycles: 456921138 heartbeat IPC: 0.865912 cumulative IPC: 0.853449 (Simulation time: 0 hr 17 min 20 sec) 
Heartbeat CPU 0 instructions: 450000002 cycles: 472003697 heartbeat IPC: 0.663018 cumulative IPC: 0.846502 (Simulation time: 0 hr 17 min 45 sec) 
Heartbeat CPU 0 instructions: 460000000 cycles: 487052462 heartbeat IPC: 0.664506 cumulative IPC: 0.84011 (Simulation time: 0 hr 18 min 9 sec) 
Heartbeat CPU 0 instructions: 470000003 cycles: 502093130 heartbeat IPC: 0.664864 cumulative IPC: 0.834168 (Simulation time: 0 hr 18 min 33 sec) 
Heartbeat CPU 0 instructions: 480000000 cycles: 518056366 heartbeat IPC: 0.626439 cumulative IPC: 0.826952 (Simulation time: 0 hr 18 min 59 sec) 
Heartbeat CPU 0 instructions: 490000002 cycles: 536576450 heartbeat IPC: 0.539954 cumulative IPC: 0.815833 (Simulation time: 0 hr 19 min 28 sec) 
Heartbeat CPU 0 instructions: 500000000 cycles: 545678000 heartbeat IPC: 1.09871 cumulative IPC: 0.821118 (Simulation time: 0 hr 19 min 50 sec) 
Heartbeat CPU 0 instructions: 510000002 cycles: 554446008 heartbeat IPC: 1.14051 cumulative IPC: 0.826765 (Simulation time: 0 hr 20 min 12 sec) 
Heartbeat CPU 0 instructions: 520000000 cycles: 563510241 heartbeat IPC: 1.10324 cumulative IPC: 0.831728 (Simulation time: 0 hr 20 min 33 sec) 
Heartbeat CPU 0 instructions: 530000002 cycles: 573128691 heartbeat IPC: 1.03967 cumulative IPC: 0.835615 (Simulation time: 0 hr 20 min 56 sec) 
Heartbeat CPU 0 instructions: 540000000 cycles: 582871359 heartbeat IPC: 1.02641 cumulative IPC: 0.83916 (Simulation time: 0 hr 21 min 20 sec) 
Heartbeat CPU 0 instructions: 550000002 cycles: 592989360 heartbeat IPC: 0.988338 cumulative IPC: 0.841984 (Simulation time: 0 hr 21 min 45 sec) 
Heartbeat CPU 0 instructions: 560000000 cycles: 601820905 heartbeat IPC: 1.1323 cumulative IPC: 0.846703 (Simulation time: 0 hr 22 min 7 sec) 
Heartbeat CPU 0 instructions: 570000003 cycles: 616132032 heartbeat IPC: 0.698757 cumulative IPC: 0.842906 (Simulation time: 0 hr 22 min 34 sec) 
Heartbeat CPU 0 instructions: 580000000 cycles: 632393029 heartbeat IPC: 0.614968 cumulative IPC: 0.836447 (Simulation time: 0 hr 23 min 3 sec) 
Heartbeat CPU 0 instructions: 590000002 cycles: 642635853 heartbeat IPC: 0.976293 cumulative IPC: 0.8389 (Simulation time: 0 hr 23 min 26 sec) 
Heartbeat CPU 0 instructions: 600000000 cycles: 653514786 heartbeat IPC: 0.919208 cumulative IPC: 0.840368 (Simulation time: 0 hr 23 min 50 sec) 
Finished CPU 0 instructions: 500000000 cycles: 594977401 cumulative IPC: 0.840368 (Simulation time: 0 hr 23 min 50 sec) 

CPU 0 Branch Prediction Accuracy: 99.5219% MPKI: 0.251582
Number of Branches: 26312578 Number of Mispredictions: 125791
Number of LOAD Instructions: 235643083
Number of LOAD Instructions (ROI): 235643083
Number of STORE Instructions: 37593550
Number of STORE Instructions (ROI): 37593550
Total Destination Memory Operands: 40480968
Total Destination Memory Operands (ROI): 40480968
Total Source Memory Operands: 235643083
Total Source Memory Operands (ROI): 235643083
Number of DEPENDED LOADS: 6699062
Number of DEPENDED LOADS (ROI): 6699062
Number of SQ_ADDED: 40480950
Number of SQ_ADDED (ROI): 40480950
Number of LQ_ADDED: 388980405
Number of LQ_ADDED (ROI): 388980405
Number of Instructions read from trace: 600000259

ChampSim completed all CPUs

Region of Interest Statistics

CPU 0 cumulative IPC: 0.840368 instructions: 500000000 cycles: 594977401
ITLB TOTAL     ACCESS:  109323945  HIT:  109323432  MISS:        513
ITLB LOAD      ACCESS:  109323945  HIT:  109323432  MISS:        513
ITLB RFO       ACCESS:          0  HIT:          0  MISS:          0
ITLB PREFETCH  ACCESS:          0  HIT:          0  MISS:          0
ITLB WRITEBACK ACCESS:          0  HIT:          0  MISS:          0
ITLB PREFETCH  REQUESTED:          0  ISSUED:          0  USEFUL:          0  USELESS:          0
ITLB TOTAL MSHR MERGED:        968
ITLB LOAD MSHR MERGED:        968
ITLB RFO MSHR MERGED:          0
ITLB PREFETCH MSHR MERGED:          0
ITLB WRITEBACK MSHR MERGED:          0
ITLB TOTAL ACCESSES:  109324913 HITS:  109323432 MISSES:       1481
ITLB LOAD ACCESSES:  109324913 HITS:  109323432 MISSES:       1481
ITLB RFO ACCESSES:          0 HITS:          0 MISSES:          0
ITLB PREFETCH ACCESSES:          0 HITS:          0 MISSES:          0
ITLB WRITEBACK ACCESSES:          0 HITS:          0 MISSES:          0
ITLB RQ ACCESS:  500000003
ITLB RQ TO_CACHE:  109324913
ITLB RQ MERGED:  390675090
ITLB RQ FORWARD:          0
ITLB WQ ACCESS:          0
ITLB WQ TO_CACHE:          0
ITLB WQ MERGED:          0
ITLB WQ FORWARD:          0
DTLB TOTAL     ACCESS:  130442372  HIT:  130184725  MISS:     257647
DTLB LOAD      ACCESS:  109038512  HIT:  108817713  MISS:     220799
DTLB RFO       ACCESS:   21403860  HIT:   21367012  MISS:      36848
DTLB PREFETCH  ACCESS:          0  HIT:          0  MISS:          0
DTLB WRITEBACK ACCESS:          0  HIT:          0  MISS:          0
DTLB PREFETCH  REQUESTED:          0  ISSUED:          0  USEFUL:          0  USELESS:          0
DTLB TOTAL MSHR MERGED:     122204
DTLB LOAD MSHR MERGED:      84128
DTLB RFO MSHR MERGED:      38076
DTLB PREFETCH MSHR MERGED:          0
DTLB WRITEBACK MSHR MERGED:          0
DTLB TOTAL ACCESSES:  130564576 HITS:  130184725 MISSES:     379851
DTLB LOAD ACCESSES:  109122640 HITS:  108817713 MISSES:     304927
DTLB RFO ACCESSES:   21441936 HITS:   21367012 MISSES:      74924
DTLB PREFETCH ACCESSES:          0 HITS:          0 MISSES:          0
DTLB WRITEBACK ACCESSES:          0 HITS:          0 MISSES:          0
DTLB RQ ACCESS:  218635372
DTLB RQ TO_CACHE:  130564577
DTLB RQ MERGED:   88070795
DTLB RQ FORWARD:          0
DTLB WQ ACCESS:          0
DTLB WQ TO_CACHE:          0
DTLB WQ MERGED:          0
DTLB WQ FORWARD:          0
L1D TOTAL     ACCESS:  204695194  HIT:  193621203  MISS:   11073991
L1D LOAD      ACCESS:  106320409  HIT:  103163907  MISS:    3156502
L1D RFO       ACCESS:   26959907  HIT:   25209786  MISS:    1750121
L1D PREFETCH  ACCESS:   71414878  HIT:   65247510  MISS:    6167368
L1D WRITEBACK ACCESS:          0  HIT:          0  MISS:          0
L1D PREFETCH  REQUESTED:  108924757  ISSUED:  107264466  USEFUL:    5710681  USELESS:     456681
L1D TOTAL MSHR MERGED:   18250163
L1D LOAD MSHR MERGED:    4596631
L1D RFO MSHR MERGED:    6481347
L1D PREFETCH MSHR MERGED:    7172185
L1D WRITEBACK MSHR MERGED:          0
L1D TOTAL ACCESSES:  223004686 HITS:  193680532 MISSES:   29324154
L1D LOAD ACCESSES:  108948486 HITS:  103187636 MISSES:    5760850
L1D RFO ACCESSES:   33439205 HITS:   25209786 MISSES:    8229419
L1D PREFETCH ACCESSES:   80616995 HITS:   65283110 MISSES:   15333885
L1D WRITEBACK ACCESSES:          0 HITS:          0 MISSES:          0
L1D RQ ACCESS:  184991934
L1D RQ TO_CACHE:  108924757
L1D RQ MERGED:   76043448
L1D RQ FORWARD:          0
L1D WQ ACCESS:   33643426
L1D WQ TO_CACHE:   33439204
L1D WQ MERGED:     204222
L1D WQ FORWARD:      59329
L1I TOTAL     ACCESS:  134009355  HIT:  133984778  MISS:      24577
L1I LOAD      ACCESS:  134009355  HIT:  133984778  MISS:      24577
L1I RFO       ACCESS:          0  HIT:          0  MISS:          0
L1I PREFETCH  ACCESS:          0  HIT:          0  MISS:          0
L1I WRITEBACK ACCESS:          0  HIT:          0  MISS:          0
L1I PREFETCH  REQUESTED:          0  ISSUED:          0  USEFUL:          0  USELESS:          0
L1I TOTAL MSHR MERGED:      30591
L1I LOAD MSHR MERGED:      30591
L1I RFO MSHR MERGED:          0
L1I PREFETCH MSHR MERGED:          0
L1I WRITEBACK MSHR MERGED:          0
L1I TOTAL ACCESSES:  134039946 HITS:  133984778 MISSES:      55168
L1I LOAD ACCESSES:  134039946 HITS:  133984778 MISSES:      55168
L1I RFO ACCESSES:          0 HITS:          0 MISSES:          0
L1I PREFETCH ACCESSES:          0 HITS:          0 MISSES:          0
L1I WRITEBACK ACCESSES:          0 HITS:          0 MISSES:          0
L1I RQ ACCESS:  500000005
L1I RQ TO_CACHE:  134039946
L1I RQ MERGED:  365960059
L1I RQ FORWARD:          0
L1I WQ ACCESS:          0
L1I WQ TO_CACHE:          0
L1I WQ MERGED:          0
L1I WQ FORWARD:          0
L2C TOTAL     ACCESS:   14944300  HIT:    6946141  MISS:    7998159
L2C LOAD      ACCESS:    1188604  HIT:     299421  MISS:     889183
L2C RFO       ACCESS:    1747860  HIT:     369486  MISS:    1378374
L2C PREFETCH  ACCESS:    8325954  HIT:    2604040  MISS:    5721914
L2C WRITEBACK ACCESS:    3681882  HIT:    3673194  MISS:       8688
L2C PREFETCH  REQUESTED:     390177  ISSUED:     390173  USEFUL:     114764  USELESS:    5607985
L2C TOTAL MSHR MERGED:      41875
L2C LOAD MSHR MERGED:       2303
L2C RFO MSHR MERGED:       1339
L2C PREFETCH MSHR MERGED:      38233
L2C WRITEBACK MSHR MERGED:          0
L2C TOTAL ACCESSES:   15106252 HITS:    6946832 MISSES:    8159420
L2C LOAD ACCESSES:    1188796 HITS:     299613 MISSES:     889183
L2C RFO ACCESSES:    1748072 HITS:     369698 MISSES:    1378374
L2C PREFETCH ACCESSES:    8487502 HITS:    2604327 MISSES:    5883175
L2C WRITEBACK ACCESSES:    3681882 HITS:    3673194 MISSES:       8688
L2C RQ ACCESS:    2936868
L2C RQ TO_CACHE:    2936464
L2C RQ MERGED:          0
L2C RQ FORWARD:          0
L2C WQ ACCESS:    3681882
L2C WQ TO_CACHE:    3681882
L2C WQ MERGED:          0
L2C WQ FORWARD:        691
LLC TOTAL     ACCESS:   11184538  HIT:    3043717  MISS:    8140821
LLC LOAD      ACCESS:     886872  HIT:     315048  MISS:     571824
LLC RFO       ACCESS:    1377033  HIT:     239441  MISS:    1137592
LLC PREFETCH  ACCESS:    5816028  HIT:    1179997  MISS:    4636031
LLC WRITEBACK ACCESS:    3104605  HIT:    1309231  MISS:    1795374
LLC PREFETCH  REQUESTED:          0  ISSUED:          0  USEFUL:      32904  USELESS:    4602422
LLC TOTAL MSHR MERGED:      21879
LLC LOAD MSHR MERGED:       6682
LLC RFO MSHR MERGED:        607
LLC PREFETCH MSHR MERGED:      14590
LLC WRITEBACK MSHR MERGED:          0
LLC TOTAL ACCESSES:   11206432 HITS:    3043732 MISSES:    8162700
LLC LOAD ACCESSES:     886880 HITS:     315056 MISSES:     571824
LLC RFO ACCESSES:    1377035 HITS:     239443 MISSES:    1137592
LLC PREFETCH ACCESSES:    5837912 HITS:    1180002 MISSES:    4657910
LLC WRITEBACK ACCESSES:    3104605 HITS:    1309231 MISSES:    1795374
LLC 0 RQ ACCESS:    2263915
LLC 0 RQ TO_CACHE:    2263905
LLC 0 RQ MERGED:          0
LLC 0 RQ FORWARD:          0
LLC WQ ACCESS:    3104605
LLC WQ TO_CACHE:    3104605
LLC WQ MERGED:          0
LLC WQ FORWARD:         15
Major fault: 0 Minor fault: 11519
CPU 0 L1D next line prefetcher final stats
CPU 0 L2C PC-based stride prefetcher final stats
All Misses: 10251155
All Hits: 3544475
SD Algo Stats - Switches: 0 SRR-Repls: 642501 BRR-Repls: 0

DRAM Statistics
 CHANNEL 0
 RQ ROW_BUFFER_HIT:    3867572  ROW_BUFFER_MISS:    2477026
 DBUS_CONGESTED:    4360476
 WQ ROW_BUFFER_HIT:     363622  ROW_BUFFER_MISS:    1788212  FULL:        298

 AVG_CONGESTED_CYCLE: 13
LOADS RETIRED: 190375692
INSTR RETIRED: 500000000
