
*** ChampSim Multicore Out-of-Order Simulator ***

Warmup Instructions: 100000000
Simulation Instructions: 500000000
Number of CPUs: 1
LLC sets: 2048
LLC ways: 16
Clean RRIP Policies: 2213230222132302 Dirty RRIP Policies: 1203130212031302 PSEL Width: 10 Track Set: 4294967295 PSEL Mask: 1 Demote Mask: 3030100030301000DS Algo: 0Window size: 0
Off-chip DRAM Size: 4096 MB Channels: 1 Width: 64-bit Data Rate: 1600 MT/s

CPU 0 runs /mnt/beegfs/iconst01/spec2017/Parest.trace.gz
NOT SORTED
TRACE STRING: /mnt/beegfs/iconst01/spec2017/Parest.trace.gz
SORTED
TRACE STRING: /mnt/beegfs/iconst01/spec2017/Parest.trace.gz
INITIAL
TRACE STRING: /mnt/beegfs/iconst01/spec2017/Parest.trace.gz

champsim_seed used: 623

CPU 0 L1D next line prefetcher
CPU 0 L2C IP-based stride prefetcher
Initialize DRRIP state
Assign rand_sets[0]: 454  LLC: 2048
rand_sets[0]: 454
Assign rand_sets[1]: 1662  LLC: 2048
rand_sets[1]: 1662
Assign rand_sets[2]: 1921  LLC: 2048
rand_sets[2]: 1921
Assign rand_sets[3]: 1131  LLC: 2048
rand_sets[3]: 1131
Assign rand_sets[4]: 331  LLC: 2048
rand_sets[4]: 331
Assign rand_sets[5]: 1531  LLC: 2048
rand_sets[5]: 1531
Assign rand_sets[6]: 482  LLC: 2048
rand_sets[6]: 482
Assign rand_sets[7]: 1275  LLC: 2048
rand_sets[7]: 1275
Assign rand_sets[8]: 1876  LLC: 2048
rand_sets[8]: 1876
Assign rand_sets[9]: 2038  LLC: 2048
rand_sets[9]: 2038
Assign rand_sets[10]: 701  LLC: 2048
rand_sets[10]: 701
Assign rand_sets[11]: 479  LLC: 2048
rand_sets[11]: 479
Assign rand_sets[12]: 892  LLC: 2048
rand_sets[12]: 892
Assign rand_sets[13]: 1820  LLC: 2048
rand_sets[13]: 1820
Assign rand_sets[14]: 1505  LLC: 2048
rand_sets[14]: 1505
Assign rand_sets[15]: 1159  LLC: 2048
rand_sets[15]: 1159
Assign rand_sets[16]: 513  LLC: 2048
rand_sets[16]: 513
Assign rand_sets[17]: 703  LLC: 2048
rand_sets[17]: 703
Assign rand_sets[18]: 561  LLC: 2048
rand_sets[18]: 561
Assign rand_sets[19]: 990  LLC: 2048
rand_sets[19]: 990
Assign rand_sets[20]: 342  LLC: 2048
rand_sets[20]: 342
Assign rand_sets[21]: 882  LLC: 2048
rand_sets[21]: 882
Assign rand_sets[22]: 15  LLC: 2048
rand_sets[22]: 15
Assign rand_sets[23]: 71  LLC: 2048
rand_sets[23]: 71
Assign rand_sets[24]: 1127  LLC: 2048
rand_sets[24]: 1127
Assign rand_sets[25]: 1382  LLC: 2048
rand_sets[25]: 1382
Assign rand_sets[26]: 647  LLC: 2048
rand_sets[26]: 647
Assign rand_sets[27]: 857  LLC: 2048
rand_sets[27]: 857
Assign rand_sets[28]: 1450  LLC: 2048
rand_sets[28]: 1450
Assign rand_sets[29]: 1160  LLC: 2048
rand_sets[29]: 1160
Assign rand_sets[30]: 1852  LLC: 2048
rand_sets[30]: 1852
Assign rand_sets[31]: 1881  LLC: 2048
rand_sets[31]: 1881
Assign rand_sets[32]: 1770  LLC: 2048
rand_sets[32]: 1770
Assign rand_sets[33]: 1622  LLC: 2048
rand_sets[33]: 1622
Assign rand_sets[34]: 275  LLC: 2048
rand_sets[34]: 275
Assign rand_sets[35]: 635  LLC: 2048
rand_sets[35]: 635
Assign rand_sets[36]: 466  LLC: 2048
rand_sets[36]: 466
Assign rand_sets[37]: 1413  LLC: 2048
rand_sets[37]: 1413
Assign rand_sets[38]: 417  LLC: 2048
rand_sets[38]: 417
Assign rand_sets[39]: 472  LLC: 2048
rand_sets[39]: 472
Assign rand_sets[40]: 1340  LLC: 2048
rand_sets[40]: 1340
Assign rand_sets[41]: 852  LLC: 2048
rand_sets[41]: 852
Assign rand_sets[42]: 1365  LLC: 2048
rand_sets[42]: 1365
Assign rand_sets[43]: 47  LLC: 2048
rand_sets[43]: 47
Assign rand_sets[44]: 823  LLC: 2048
rand_sets[44]: 823
Assign rand_sets[45]: 686  LLC: 2048
rand_sets[45]: 686
Assign rand_sets[46]: 1637  LLC: 2048
rand_sets[46]: 1637
Assign rand_sets[47]: 1115  LLC: 2048
rand_sets[47]: 1115
Assign rand_sets[48]: 986  LLC: 2048
rand_sets[48]: 986
Assign rand_sets[49]: 258  LLC: 2048
rand_sets[49]: 258
Assign rand_sets[50]: 633  LLC: 2048
rand_sets[50]: 633
Assign rand_sets[51]: 920  LLC: 2048
rand_sets[51]: 920
Assign rand_sets[52]: 204  LLC: 2048
rand_sets[52]: 204
Assign rand_sets[53]: 227  LLC: 2048
rand_sets[53]: 227
Assign rand_sets[54]: 1818  LLC: 2048
rand_sets[54]: 1818
Assign rand_sets[55]: 886  LLC: 2048
rand_sets[55]: 886
Assign rand_sets[56]: 1422  LLC: 2048
rand_sets[56]: 1422
Assign rand_sets[57]: 607  LLC: 2048
rand_sets[57]: 607
Assign rand_sets[58]: 217  LLC: 2048
rand_sets[58]: 217
Assign rand_sets[59]: 1945  LLC: 2048
rand_sets[59]: 1945
Assign rand_sets[60]: 143  LLC: 2048
rand_sets[60]: 143
Assign rand_sets[61]: 1311  LLC: 2048
rand_sets[61]: 1311
Assign rand_sets[62]: 319  LLC: 2048
rand_sets[62]: 319
Assign rand_sets[63]: 1846  LLC: 2048
rand_sets[63]: 1846
 CLEAN-RRIP-POLICY-1: 2-2-1-3-2-3-0-2- CLEAN-RRIP-POLICY-2: 2-2-1-3-2-3-0-2-
 DIRTY-RRIP-POLICY-1: 1-2-0-3-1-3-0-2- DIRTY-RRIP-POLICY-2: 1-2-0-3-1-3-0-2-
 PSEL width: 10
Heartbeat CPU 0 instructions: 10000001 cycles: 4387143 heartbeat IPC: 2.27939 cumulative IPC: 2.27939 (Simulation time: 0 hr 0 min 14 sec) 
Heartbeat CPU 0 instructions: 20000000 cycles: 8781328 heartbeat IPC: 2.27573 cumulative IPC: 2.27756 (Simulation time: 0 hr 0 min 28 sec) 
Heartbeat CPU 0 instructions: 30000003 cycles: 13213265 heartbeat IPC: 2.25635 cumulative IPC: 2.27045 (Simulation time: 0 hr 0 min 42 sec) 
Heartbeat CPU 0 instructions: 40000000 cycles: 17643898 heartbeat IPC: 2.25701 cumulative IPC: 2.26707 (Simulation time: 0 hr 0 min 56 sec) 
Heartbeat CPU 0 instructions: 50000000 cycles: 22052171 heartbeat IPC: 2.26846 cumulative IPC: 2.26735 (Simulation time: 0 hr 1 min 9 sec) 
Heartbeat CPU 0 instructions: 60000000 cycles: 26457914 heartbeat IPC: 2.26976 cumulative IPC: 2.26775 (Simulation time: 0 hr 1 min 23 sec) 
Heartbeat CPU 0 instructions: 70000000 cycles: 30858834 heartbeat IPC: 2.27225 cumulative IPC: 2.26839 (Simulation time: 0 hr 1 min 37 sec) 
Heartbeat CPU 0 instructions: 80000000 cycles: 35254440 heartbeat IPC: 2.275 cumulative IPC: 2.26922 (Simulation time: 0 hr 1 min 51 sec) 
Heartbeat CPU 0 instructions: 90000000 cycles: 39648740 heartbeat IPC: 2.27568 cumulative IPC: 2.26993 (Simulation time: 0 hr 2 min 5 sec) 
Heartbeat CPU 0 instructions: 100000000 cycles: 44046082 heartbeat IPC: 2.2741 cumulative IPC: 2.27035 (Simulation time: 0 hr 2 min 19 sec) 

Warmup complete CPU 0 instructions: 100000002 cycles: 44046092 (Simulation time: 0 hr 2 min 19 sec) 

Heartbeat CPU 0 instructions: 110000000 cycles: 54000367 heartbeat IPC: 1.00459 cumulative IPC: 1.00459 (Simulation time: 0 hr 2 min 37 sec) 
Heartbeat CPU 0 instructions: 120000000 cycles: 62979894 heartbeat IPC: 1.11364 cumulative IPC: 1.05631 (Simulation time: 0 hr 2 min 54 sec) 
Heartbeat CPU 0 instructions: 130000001 cycles: 72006495 heartbeat IPC: 1.10784 cumulative IPC: 1.07295 (Simulation time: 0 hr 3 min 11 sec) 
Heartbeat CPU 0 instructions: 140000000 cycles: 81189694 heartbeat IPC: 1.08895 cumulative IPC: 1.0769 (Simulation time: 0 hr 3 min 29 sec) 
Heartbeat CPU 0 instructions: 150000000 cycles: 92283693 heartbeat IPC: 0.901388 cumulative IPC: 1.03654 (Simulation time: 0 hr 3 min 47 sec) 
Heartbeat CPU 0 instructions: 160000000 cycles: 102350169 heartbeat IPC: 0.993396 cumulative IPC: 1.02909 (Simulation time: 0 hr 4 min 5 sec) 
Heartbeat CPU 0 instructions: 170000003 cycles: 112174477 heartbeat IPC: 1.01788 cumulative IPC: 1.02747 (Simulation time: 0 hr 4 min 22 sec) 
Heartbeat CPU 0 instructions: 180000000 cycles: 121840732 heartbeat IPC: 1.03453 cumulative IPC: 1.02835 (Simulation time: 0 hr 4 min 40 sec) 
Heartbeat CPU 0 instructions: 190000002 cycles: 131629414 heartbeat IPC: 1.02159 cumulative IPC: 1.02759 (Simulation time: 0 hr 4 min 57 sec) 
Heartbeat CPU 0 instructions: 200000000 cycles: 140862352 heartbeat IPC: 1.08308 cumulative IPC: 1.03288 (Simulation time: 0 hr 5 min 15 sec) 
Heartbeat CPU 0 instructions: 210000000 cycles: 150494385 heartbeat IPC: 1.0382 cumulative IPC: 1.03337 (Simulation time: 0 hr 5 min 32 sec) 
Heartbeat CPU 0 instructions: 220000000 cycles: 159411649 heartbeat IPC: 1.12142 cumulative IPC: 1.04017 (Simulation time: 0 hr 5 min 50 sec) 
Heartbeat CPU 0 instructions: 230000001 cycles: 171556222 heartbeat IPC: 0.823413 cumulative IPC: 1.01953 (Simulation time: 0 hr 6 min 9 sec) 
Heartbeat CPU 0 instructions: 240000000 cycles: 182025084 heartbeat IPC: 0.955214 cumulative IPC: 1.01465 (Simulation time: 0 hr 6 min 27 sec) 
Heartbeat CPU 0 instructions: 250000002 cycles: 191886498 heartbeat IPC: 1.01405 cumulative IPC: 1.01461 (Simulation time: 0 hr 6 min 44 sec) 
Heartbeat CPU 0 instructions: 260000000 cycles: 201462329 heartbeat IPC: 1.0443 cumulative IPC: 1.01641 (Simulation time: 0 hr 7 min 2 sec) 
Heartbeat CPU 0 instructions: 270000001 cycles: 210857529 heartbeat IPC: 1.06437 cumulative IPC: 1.01911 (Simulation time: 0 hr 7 min 19 sec) 
Heartbeat CPU 0 instructions: 280000000 cycles: 220560277 heartbeat IPC: 1.03064 cumulative IPC: 1.01975 (Simulation time: 0 hr 7 min 37 sec) 
Heartbeat CPU 0 instructions: 290000002 cycles: 229630615 heartbeat IPC: 1.10249 cumulative IPC: 1.02379 (Simulation time: 0 hr 7 min 54 sec) 
Heartbeat CPU 0 instructions: 300000000 cycles: 239174282 heartbeat IPC: 1.04782 cumulative IPC: 1.02497 (Simulation time: 0 hr 8 min 12 sec) 
Heartbeat CPU 0 instructions: 310000000 cycles: 248167402 heartbeat IPC: 1.11196 cumulative IPC: 1.0288 (Simulation time: 0 hr 8 min 29 sec) 
Heartbeat CPU 0 instructions: 320000000 cycles: 257272221 heartbeat IPC: 1.09832 cumulative IPC: 1.03177 (Simulation time: 0 hr 8 min 47 sec) 
Heartbeat CPU 0 instructions: 330000003 cycles: 266551883 heartbeat IPC: 1.07763 cumulative IPC: 1.03368 (Simulation time: 0 hr 9 min 4 sec) 
Heartbeat CPU 0 instructions: 340000000 cycles: 276469316 heartbeat IPC: 1.00833 cumulative IPC: 1.0326 (Simulation time: 0 hr 9 min 22 sec) 
Heartbeat CPU 0 instructions: 350000000 cycles: 286804210 heartbeat IPC: 0.967596 cumulative IPC: 1.02983 (Simulation time: 0 hr 9 min 40 sec) 
Heartbeat CPU 0 instructions: 360000000 cycles: 296583527 heartbeat IPC: 1.02257 cumulative IPC: 1.02955 (Simulation time: 0 hr 9 min 57 sec) 
Heartbeat CPU 0 instructions: 370000000 cycles: 306085325 heartbeat IPC: 1.05243 cumulative IPC: 1.03038 (Simulation time: 0 hr 10 min 15 sec) 
Heartbeat CPU 0 instructions: 380000000 cycles: 315405810 heartbeat IPC: 1.07291 cumulative IPC: 1.03184 (Simulation time: 0 hr 10 min 32 sec) 
Heartbeat CPU 0 instructions: 390000002 cycles: 324498316 heartbeat IPC: 1.09981 cumulative IPC: 1.03404 (Simulation time: 0 hr 10 min 49 sec) 
Heartbeat CPU 0 instructions: 400000000 cycles: 334012389 heartbeat IPC: 1.05107 cumulative IPC: 1.0346 (Simulation time: 0 hr 11 min 7 sec) 
Heartbeat CPU 0 instructions: 410000000 cycles: 342891104 heartbeat IPC: 1.12629 cumulative IPC: 1.03733 (Simulation time: 0 hr 11 min 24 sec) 
Heartbeat CPU 0 instructions: 420000000 cycles: 353704809 heartbeat IPC: 0.924752 cumulative IPC: 1.0334 (Simulation time: 0 hr 11 min 42 sec) 
Heartbeat CPU 0 instructions: 430000000 cycles: 364557894 heartbeat IPC: 0.921397 cumulative IPC: 1.0296 (Simulation time: 0 hr 12 min 0 sec) 
Heartbeat CPU 0 instructions: 440000000 cycles: 374432856 heartbeat IPC: 1.01266 cumulative IPC: 1.0291 (Simulation time: 0 hr 12 min 18 sec) 
Heartbeat CPU 0 instructions: 450000000 cycles: 384200355 heartbeat IPC: 1.0238 cumulative IPC: 1.02894 (Simulation time: 0 hr 12 min 35 sec) 
Heartbeat CPU 0 instructions: 460000000 cycles: 393900104 heartbeat IPC: 1.03095 cumulative IPC: 1.029 (Simulation time: 0 hr 12 min 53 sec) 
Heartbeat CPU 0 instructions: 470000001 cycles: 403658076 heartbeat IPC: 1.0248 cumulative IPC: 1.02889 (Simulation time: 0 hr 13 min 10 sec) 
Heartbeat CPU 0 instructions: 480000000 cycles: 412837826 heartbeat IPC: 1.08935 cumulative IPC: 1.03039 (Simulation time: 0 hr 13 min 28 sec) 
Heartbeat CPU 0 instructions: 490000002 cycles: 422524415 heartbeat IPC: 1.03236 cumulative IPC: 1.03044 (Simulation time: 0 hr 13 min 45 sec) 
Heartbeat CPU 0 instructions: 500000000 cycles: 431810053 heartbeat IPC: 1.07693 cumulative IPC: 1.03156 (Simulation time: 0 hr 14 min 3 sec) 
Heartbeat CPU 0 instructions: 510000000 cycles: 440890451 heartbeat IPC: 1.10127 cumulative IPC: 1.03315 (Simulation time: 0 hr 14 min 20 sec) 
Heartbeat CPU 0 instructions: 520000000 cycles: 450266872 heartbeat IPC: 1.0665 cumulative IPC: 1.03392 (Simulation time: 0 hr 14 min 37 sec) 
Heartbeat CPU 0 instructions: 530000001 cycles: 460433008 heartbeat IPC: 0.983658 cumulative IPC: 1.03269 (Simulation time: 0 hr 14 min 55 sec) 
Heartbeat CPU 0 instructions: 540000000 cycles: 470945845 heartbeat IPC: 0.951218 cumulative IPC: 1.03069 (Simulation time: 0 hr 15 min 13 sec) 
Heartbeat CPU 0 instructions: 550000003 cycles: 480919780 heartbeat IPC: 1.00261 cumulative IPC: 1.03005 (Simulation time: 0 hr 15 min 30 sec) 
Heartbeat CPU 0 instructions: 560000000 cycles: 490618230 heartbeat IPC: 1.03109 cumulative IPC: 1.03007 (Simulation time: 0 hr 15 min 48 sec) 
Heartbeat CPU 0 instructions: 570000002 cycles: 500115769 heartbeat IPC: 1.0529 cumulative IPC: 1.03054 (Simulation time: 0 hr 16 min 5 sec) 
Heartbeat CPU 0 instructions: 580000000 cycles: 509413726 heartbeat IPC: 1.0755 cumulative IPC: 1.03144 (Simulation time: 0 hr 16 min 23 sec) 
Heartbeat CPU 0 instructions: 590000001 cycles: 519054448 heartbeat IPC: 1.03727 cumulative IPC: 1.03156 (Simulation time: 0 hr 16 min 40 sec) 
Heartbeat CPU 0 instructions: 600000000 cycles: 528224855 heartbeat IPC: 1.09046 cumulative IPC: 1.03268 (Simulation time: 0 hr 16 min 57 sec) 
Finished CPU 0 instructions: 500000000 cycles: 484178777 cumulative IPC: 1.03268 (Simulation time: 0 hr 16 min 57 sec) 

CPU 0 Branch Prediction Accuracy: 97.8526% MPKI: 2.66709
Number of Branches: 62099103 Number of Mispredictions: 1333545
Number of LOAD Instructions: 210576465
Number of LOAD Instructions (ROI): 210576465
Number of STORE Instructions: 16915507
Number of STORE Instructions (ROI): 16915507
Total Destination Memory Operands: 16918869
Total Destination Memory Operands (ROI): 16918869
Total Source Memory Operands: 210576465
Total Source Memory Operands (ROI): 210576465
Number of DEPENDED LOADS: 345283
Number of DEPENDED LOADS (ROI): 345283
Number of SQ_ADDED: 16918826
Number of SQ_ADDED (ROI): 16918826
Number of LQ_ADDED: 210608143
Number of LQ_ADDED (ROI): 210608143
Number of Instructions read from trace: 600000257

ChampSim completed all CPUs

Region of Interest Statistics

CPU 0 cumulative IPC: 1.03268 instructions: 500000000 cycles: 484178777
ITLB TOTAL     ACCESS:   76352850  HIT:   76352812  MISS:         38
ITLB LOAD      ACCESS:   76352850  HIT:   76352812  MISS:         38
ITLB RFO       ACCESS:          0  HIT:          0  MISS:          0
ITLB PREFETCH  ACCESS:          0  HIT:          0  MISS:          0
ITLB WRITEBACK ACCESS:          0  HIT:          0  MISS:          0
ITLB PREFETCH  REQUESTED:          0  ISSUED:          0  USEFUL:          0  USELESS:          0
ITLB TOTAL MSHR MERGED:         37
ITLB LOAD MSHR MERGED:         37
ITLB RFO MSHR MERGED:          0
ITLB PREFETCH MSHR MERGED:          0
ITLB WRITEBACK MSHR MERGED:          0
ITLB TOTAL ACCESSES:   76352887 HITS:   76352812 MISSES:         75
ITLB LOAD ACCESSES:   76352887 HITS:   76352812 MISSES:         75
ITLB RFO ACCESSES:          0 HITS:          0 MISSES:          0
ITLB PREFETCH ACCESSES:          0 HITS:          0 MISSES:          0
ITLB WRITEBACK ACCESSES:          0 HITS:          0 MISSES:          0
ITLB RQ ACCESS:  500000188
ITLB RQ TO_CACHE:   76352888
ITLB RQ MERGED:  423647300
ITLB RQ FORWARD:          0
ITLB WQ ACCESS:          0
ITLB WQ TO_CACHE:          0
ITLB WQ MERGED:          0
ITLB WQ FORWARD:          0
DTLB TOTAL     ACCESS:  136719795  HIT:  136517000  MISS:     202795
DTLB LOAD      ACCESS:  128657661  HIT:  128457587  MISS:     200074
DTLB RFO       ACCESS:    8062134  HIT:    8059413  MISS:       2721
DTLB PREFETCH  ACCESS:          0  HIT:          0  MISS:          0
DTLB WRITEBACK ACCESS:          0  HIT:          0  MISS:          0
DTLB PREFETCH  REQUESTED:          0  ISSUED:          0  USEFUL:          0  USELESS:          0
DTLB TOTAL MSHR MERGED:     448646
DTLB LOAD MSHR MERGED:     444913
DTLB RFO MSHR MERGED:       3733
DTLB PREFETCH MSHR MERGED:          0
DTLB WRITEBACK MSHR MERGED:          0
DTLB TOTAL ACCESSES:  137168441 HITS:  136517000 MISSES:     651441
DTLB LOAD ACCESSES:  129102574 HITS:  128457587 MISSES:     644987
DTLB RFO ACCESSES:    8065867 HITS:    8059413 MISSES:       6454
DTLB PREFETCH ACCESSES:          0 HITS:          0 MISSES:          0
DTLB WRITEBACK ACCESSES:          0 HITS:          0 MISSES:          0
DTLB RQ ACCESS:  189419279
DTLB RQ TO_CACHE:  137168441
DTLB RQ MERGED:   52250838
DTLB RQ FORWARD:          0
DTLB WQ ACCESS:          0
DTLB WQ TO_CACHE:          0
DTLB WQ MERGED:          0
DTLB WQ FORWARD:          0
L1D TOTAL     ACCESS:  125173385  HIT:  107616315  MISS:   17557070
L1D LOAD      ACCESS:   72267198  HIT:   61989889  MISS:   10277309
L1D RFO       ACCESS:   14013624  HIT:   13860784  MISS:     152840
L1D PREFETCH  ACCESS:   38892563  HIT:   31765642  MISS:    7126921
L1D WRITEBACK ACCESS:          0  HIT:          0  MISS:          0
L1D PREFETCH  REQUESTED:   85473497  ISSUED:   84152494  USEFUL:    5867474  USELESS:    1259458
L1D TOTAL MSHR MERGED:   31648990
L1D LOAD MSHR MERGED:   18371346
L1D RFO MSHR MERGED:     266908
L1D PREFETCH MSHR MERGED:   13010736
L1D WRITEBACK MSHR MERGED:          0
L1D TOTAL ACCESSES:  156822869 HITS:  107616810 MISSES:   49206059
L1D LOAD ACCESSES:   85473507 HITS:   61989899 MISSES:   23483608
L1D RFO ACCESSES:   14280501 HITS:   13860784 MISSES:     419717
L1D PREFETCH ACCESSES:   57068861 HITS:   31766127 MISSES:   25302734
L1D WRITEBACK ACCESSES:          0 HITS:          0 MISSES:          0
L1D RQ ACCESS:  175130257
L1D RQ TO_CACHE:   85473497
L1D RQ MERGED:   89656750
L1D RQ FORWARD:          0
L1D WQ ACCESS:   14289037
L1D WQ TO_CACHE:   14280501
L1D WQ MERGED:       8536
L1D WQ FORWARD:        495
L1I TOTAL     ACCESS:   93381062  HIT:   93379266  MISS:       1796
L1I LOAD      ACCESS:   93381062  HIT:   93379266  MISS:       1796
L1I RFO       ACCESS:          0  HIT:          0  MISS:          0
L1I PREFETCH  ACCESS:          0  HIT:          0  MISS:          0
L1I WRITEBACK ACCESS:          0  HIT:          0  MISS:          0
L1I PREFETCH  REQUESTED:          0  ISSUED:          0  USEFUL:          0  USELESS:          0
L1I TOTAL MSHR MERGED:       2336
L1I LOAD MSHR MERGED:       2336
L1I RFO MSHR MERGED:          0
L1I PREFETCH MSHR MERGED:          0
L1I WRITEBACK MSHR MERGED:          0
L1I TOTAL ACCESSES:   93383398 HITS:   93379266 MISSES:       4132
L1I LOAD ACCESSES:   93383398 HITS:   93379266 MISSES:       4132
L1I RFO ACCESSES:          0 HITS:          0 MISSES:          0
L1I PREFETCH ACCESSES:          0 HITS:          0 MISSES:          0
L1I WRITEBACK ACCESSES:          0 HITS:          0 MISSES:          0
L1I RQ ACCESS:  500000187
L1I RQ TO_CACHE:   93383398
L1I RQ MERGED:  406616789
L1I RQ FORWARD:          0
L1I WQ ACCESS:          0
L1I WQ TO_CACHE:          0
L1I WQ MERGED:          0
L1I WQ FORWARD:          0
L2C TOTAL     ACCESS:   20903667  HIT:    8674531  MISS:   12229136
L2C LOAD      ACCESS:    5114036  HIT:    2146092  MISS:    2967944
L2C RFO       ACCESS:     152809  HIT:       6514  MISS:     146295
L2C PREFETCH  ACCESS:   13864069  HIT:    4749282  MISS:    9114787
L2C WRITEBACK ACCESS:    1772753  HIT:    1772643  MISS:        110
L2C PREFETCH  REQUESTED:    1815012  ISSUED:    1815012  USEFUL:    1066462  USELESS:    8049991
L2C TOTAL MSHR MERGED:      97710
L2C LOAD MSHR MERGED:      22330
L2C RFO MSHR MERGED:          0
L2C PREFETCH MSHR MERGED:      75380
L2C WRITEBACK MSHR MERGED:          0
L2C TOTAL ACCESSES:   21025640 HITS:    8674568 MISSES:   12351072
L2C LOAD ACCESSES:    5114058 HITS:    2146114 MISSES:    2967944
L2C RFO ACCESSES:     152809 HITS:       6514 MISSES:     146295
L2C PREFETCH ACCESSES:   13986020 HITS:    4749297 MISSES:    9236723
L2C WRITEBACK ACCESSES:    1772753 HITS:    1772643 MISSES:        110
L2C RQ ACCESS:    5266867
L2C RQ TO_CACHE:    5266845
L2C RQ MERGED:          0
L2C RQ FORWARD:          0
L2C WQ ACCESS:    1772753
L2C WQ TO_CACHE:    1772753
L2C WQ MERGED:          0
L2C WQ FORWARD:         37
LLC TOTAL     ACCESS:   12533835  HIT:    6806360  MISS:    5727475
LLC LOAD      ACCESS:    2945596  HIT:    2477021  MISS:     468575
LLC RFO       ACCESS:     146295  HIT:      81173  MISS:      65122
LLC PREFETCH  ACCESS:    9155964  HIT:    4010259  MISS:    5145705
LLC WRITEBACK ACCESS:     285980  HIT:     237907  MISS:      48073
LLC PREFETCH  REQUESTED:          0  ISSUED:          0  USEFUL:       6831  USELESS:    5138797
LLC TOTAL MSHR MERGED:        881
LLC LOAD MSHR MERGED:        147
LLC RFO MSHR MERGED:          0
LLC PREFETCH MSHR MERGED:        734
LLC WRITEBACK MSHR MERGED:          0
LLC TOTAL ACCESSES:   12534746 HITS:    6806390 MISSES:    5728356
LLC LOAD ACCESSES:    2945614 HITS:    2477039 MISSES:     468575
LLC RFO ACCESSES:     146295 HITS:      81173 MISSES:      65122
LLC PREFETCH ACCESSES:    9156857 HITS:    4010271 MISSES:    5146586
LLC WRITEBACK ACCESSES:     285980 HITS:     237907 MISSES:      48073
LLC 0 RQ ACCESS:    3091909
LLC 0 RQ TO_CACHE:    3091891
LLC 0 RQ MERGED:          0
LLC 0 RQ FORWARD:          0
LLC WQ ACCESS:     285980
LLC WQ TO_CACHE:     285980
LLC WQ MERGED:          0
LLC WQ FORWARD:         30
Major fault: 0 Minor fault: 6524
CPU 0 L1D next line prefetcher final stats
CPU 0 L2C PC-based stride prefetcher final stats
All Misses: 7526647
All Hits: 7532202
SD Algo Stats - Switches: 0 SRR-Repls: 498872 BRR-Repls: 0

DRAM Statistics
 CHANNEL 0
 RQ ROW_BUFFER_HIT:    4887223  ROW_BUFFER_MISS:     785315
 DBUS_CONGESTED:    2055755
 WQ ROW_BUFFER_HIT:      14043  ROW_BUFFER_MISS:      67097  FULL:          0

 AVG_CONGESTED_CYCLE: 12
LOADS RETIRED: 175418235
INSTR RETIRED: 500000000
