
*** ChampSim Multicore Out-of-Order Simulator ***

Warmup Instructions: 100000000
Simulation Instructions: 500000000
Number of CPUs: 1
LLC sets: 2048
LLC ways: 16
Clean RRIP Policies: 2213230222132302 Dirty RRIP Policies: 1203130212031302 PSEL Width: 10 Track Set: 4294967295 PSEL Mask: 1 Demote Mask: 3030100030301000DS Algo: 0Window size: 0
Off-chip DRAM Size: 4096 MB Channels: 1 Width: 64-bit Data Rate: 1600 MT/s

CPU 0 runs /mnt/beegfs/iconst01/spec2017/Xalancbmk.trace.gz
NOT SORTED
TRACE STRING: /mnt/beegfs/iconst01/spec2017/Xalancbmk.trace.gz
SORTED
TRACE STRING: /mnt/beegfs/iconst01/spec2017/Xalancbmk.trace.gz
INITIAL
TRACE STRING: /mnt/beegfs/iconst01/spec2017/Xalancbmk.trace.gz

champsim_seed used: 913

CPU 0 L1D next line prefetcher
CPU 0 L2C IP-based stride prefetcher
Initialize DRRIP state
Assign rand_sets[0]: 454  LLC: 2048
rand_sets[0]: 454
Assign rand_sets[1]: 1662  LLC: 2048
rand_sets[1]: 1662
Assign rand_sets[2]: 1921  LLC: 2048
rand_sets[2]: 1921
Assign rand_sets[3]: 1131  LLC: 2048
rand_sets[3]: 1131
Assign rand_sets[4]: 331  LLC: 2048
rand_sets[4]: 331
Assign rand_sets[5]: 1531  LLC: 2048
rand_sets[5]: 1531
Assign rand_sets[6]: 482  LLC: 2048
rand_sets[6]: 482
Assign rand_sets[7]: 1275  LLC: 2048
rand_sets[7]: 1275
Assign rand_sets[8]: 1876  LLC: 2048
rand_sets[8]: 1876
Assign rand_sets[9]: 2038  LLC: 2048
rand_sets[9]: 2038
Assign rand_sets[10]: 701  LLC: 2048
rand_sets[10]: 701
Assign rand_sets[11]: 479  LLC: 2048
rand_sets[11]: 479
Assign rand_sets[12]: 892  LLC: 2048
rand_sets[12]: 892
Assign rand_sets[13]: 1820  LLC: 2048
rand_sets[13]: 1820
Assign rand_sets[14]: 1505  LLC: 2048
rand_sets[14]: 1505
Assign rand_sets[15]: 1159  LLC: 2048
rand_sets[15]: 1159
Assign rand_sets[16]: 513  LLC: 2048
rand_sets[16]: 513
Assign rand_sets[17]: 703  LLC: 2048
rand_sets[17]: 703
Assign rand_sets[18]: 561  LLC: 2048
rand_sets[18]: 561
Assign rand_sets[19]: 990  LLC: 2048
rand_sets[19]: 990
Assign rand_sets[20]: 342  LLC: 2048
rand_sets[20]: 342
Assign rand_sets[21]: 882  LLC: 2048
rand_sets[21]: 882
Assign rand_sets[22]: 15  LLC: 2048
rand_sets[22]: 15
Assign rand_sets[23]: 71  LLC: 2048
rand_sets[23]: 71
Assign rand_sets[24]: 1127  LLC: 2048
rand_sets[24]: 1127
Assign rand_sets[25]: 1382  LLC: 2048
rand_sets[25]: 1382
Assign rand_sets[26]: 647  LLC: 2048
rand_sets[26]: 647
Assign rand_sets[27]: 857  LLC: 2048
rand_sets[27]: 857
Assign rand_sets[28]: 1450  LLC: 2048
rand_sets[28]: 1450
Assign rand_sets[29]: 1160  LLC: 2048
rand_sets[29]: 1160
Assign rand_sets[30]: 1852  LLC: 2048
rand_sets[30]: 1852
Assign rand_sets[31]: 1881  LLC: 2048
rand_sets[31]: 1881
Assign rand_sets[32]: 1770  LLC: 2048
rand_sets[32]: 1770
Assign rand_sets[33]: 1622  LLC: 2048
rand_sets[33]: 1622
Assign rand_sets[34]: 275  LLC: 2048
rand_sets[34]: 275
Assign rand_sets[35]: 635  LLC: 2048
rand_sets[35]: 635
Assign rand_sets[36]: 466  LLC: 2048
rand_sets[36]: 466
Assign rand_sets[37]: 1413  LLC: 2048
rand_sets[37]: 1413
Assign rand_sets[38]: 417  LLC: 2048
rand_sets[38]: 417
Assign rand_sets[39]: 472  LLC: 2048
rand_sets[39]: 472
Assign rand_sets[40]: 1340  LLC: 2048
rand_sets[40]: 1340
Assign rand_sets[41]: 852  LLC: 2048
rand_sets[41]: 852
Assign rand_sets[42]: 1365  LLC: 2048
rand_sets[42]: 1365
Assign rand_sets[43]: 47  LLC: 2048
rand_sets[43]: 47
Assign rand_sets[44]: 823  LLC: 2048
rand_sets[44]: 823
Assign rand_sets[45]: 686  LLC: 2048
rand_sets[45]: 686
Assign rand_sets[46]: 1637  LLC: 2048
rand_sets[46]: 1637
Assign rand_sets[47]: 1115  LLC: 2048
rand_sets[47]: 1115
Assign rand_sets[48]: 986  LLC: 2048
rand_sets[48]: 986
Assign rand_sets[49]: 258  LLC: 2048
rand_sets[49]: 258
Assign rand_sets[50]: 633  LLC: 2048
rand_sets[50]: 633
Assign rand_sets[51]: 920  LLC: 2048
rand_sets[51]: 920
Assign rand_sets[52]: 204  LLC: 2048
rand_sets[52]: 204
Assign rand_sets[53]: 227  LLC: 2048
rand_sets[53]: 227
Assign rand_sets[54]: 1818  LLC: 2048
rand_sets[54]: 1818
Assign rand_sets[55]: 886  LLC: 2048
rand_sets[55]: 886
Assign rand_sets[56]: 1422  LLC: 2048
rand_sets[56]: 1422
Assign rand_sets[57]: 607  LLC: 2048
rand_sets[57]: 607
Assign rand_sets[58]: 217  LLC: 2048
rand_sets[58]: 217
Assign rand_sets[59]: 1945  LLC: 2048
rand_sets[59]: 1945
Assign rand_sets[60]: 143  LLC: 2048
rand_sets[60]: 143
Assign rand_sets[61]: 1311  LLC: 2048
rand_sets[61]: 1311
Assign rand_sets[62]: 319  LLC: 2048
rand_sets[62]: 319
Assign rand_sets[63]: 1846  LLC: 2048
rand_sets[63]: 1846
 CLEAN-RRIP-POLICY-1: 2-2-1-3-2-3-0-2- CLEAN-RRIP-POLICY-2: 2-2-1-3-2-3-0-2-
 DIRTY-RRIP-POLICY-1: 1-2-0-3-1-3-0-2- DIRTY-RRIP-POLICY-2: 1-2-0-3-1-3-0-2-
 PSEL width: 10
Heartbeat CPU 0 instructions: 10000003 cycles: 4592534 heartbeat IPC: 2.17745 cumulative IPC: 2.17745 (Simulation time: 0 hr 0 min 15 sec) 
Heartbeat CPU 0 instructions: 20000000 cycles: 8984823 heartbeat IPC: 2.27672 cumulative IPC: 2.22598 (Simulation time: 0 hr 0 min 28 sec) 
Heartbeat CPU 0 instructions: 30000000 cycles: 13393780 heartbeat IPC: 2.26811 cumulative IPC: 2.23985 (Simulation time: 0 hr 0 min 42 sec) 
Heartbeat CPU 0 instructions: 40000000 cycles: 18021992 heartbeat IPC: 2.16066 cumulative IPC: 2.21951 (Simulation time: 0 hr 0 min 57 sec) 
Heartbeat CPU 0 instructions: 50000002 cycles: 22438068 heartbeat IPC: 2.26445 cumulative IPC: 2.22836 (Simulation time: 0 hr 1 min 10 sec) 
Heartbeat CPU 0 instructions: 60000000 cycles: 27093357 heartbeat IPC: 2.14809 cumulative IPC: 2.21457 (Simulation time: 0 hr 1 min 26 sec) 
Heartbeat CPU 0 instructions: 70000003 cycles: 31497976 heartbeat IPC: 2.27034 cumulative IPC: 2.22237 (Simulation time: 0 hr 1 min 39 sec) 
Heartbeat CPU 0 instructions: 80000000 cycles: 35918359 heartbeat IPC: 2.26225 cumulative IPC: 2.22727 (Simulation time: 0 hr 1 min 53 sec) 
Heartbeat CPU 0 instructions: 90000002 cycles: 40373452 heartbeat IPC: 2.24462 cumulative IPC: 2.22919 (Simulation time: 0 hr 2 min 7 sec) 
Heartbeat CPU 0 instructions: 100000000 cycles: 44845115 heartbeat IPC: 2.2363 cumulative IPC: 2.2299 (Simulation time: 0 hr 2 min 20 sec) 

Warmup complete CPU 0 instructions: 100000003 cycles: 44845116 (Simulation time: 0 hr 2 min 20 sec) 

Heartbeat CPU 0 instructions: 110000000 cycles: 71845242 heartbeat IPC: 0.370369 cumulative IPC: 0.370369 (Simulation time: 0 hr 2 min 50 sec) 
Heartbeat CPU 0 instructions: 120000000 cycles: 100405917 heartbeat IPC: 0.350132 cumulative IPC: 0.359966 (Simulation time: 0 hr 3 min 21 sec) 
Heartbeat CPU 0 instructions: 130000000 cycles: 123789848 heartbeat IPC: 0.427644 cumulative IPC: 0.380013 (Simulation time: 0 hr 3 min 49 sec) 
Heartbeat CPU 0 instructions: 140000000 cycles: 146410371 heartbeat IPC: 0.442076 cumulative IPC: 0.393835 (Simulation time: 0 hr 4 min 16 sec) 
Heartbeat CPU 0 instructions: 150000000 cycles: 170786182 heartbeat IPC: 0.410243 cumulative IPC: 0.397011 (Simulation time: 0 hr 4 min 44 sec) 
Heartbeat CPU 0 instructions: 160000000 cycles: 195734114 heartbeat IPC: 0.400835 cumulative IPC: 0.397643 (Simulation time: 0 hr 5 min 12 sec) 
Heartbeat CPU 0 instructions: 170000002 cycles: 217086903 heartbeat IPC: 0.468323 cumulative IPC: 0.406405 (Simulation time: 0 hr 5 min 38 sec) 
Heartbeat CPU 0 instructions: 180000000 cycles: 239518622 heartbeat IPC: 0.445797 cumulative IPC: 0.410944 (Simulation time: 0 hr 6 min 5 sec) 
Heartbeat CPU 0 instructions: 190000000 cycles: 258461986 heartbeat IPC: 0.527889 cumulative IPC: 0.421315 (Simulation time: 0 hr 6 min 29 sec) 
Heartbeat CPU 0 instructions: 200000000 cycles: 279394215 heartbeat IPC: 0.477732 cumulative IPC: 0.42635 (Simulation time: 0 hr 6 min 55 sec) 
Heartbeat CPU 0 instructions: 210000001 cycles: 305821993 heartbeat IPC: 0.37839 cumulative IPC: 0.421493 (Simulation time: 0 hr 7 min 25 sec) 
Heartbeat CPU 0 instructions: 220000000 cycles: 331613869 heartbeat IPC: 0.387719 cumulative IPC: 0.418456 (Simulation time: 0 hr 7 min 54 sec) 
Heartbeat CPU 0 instructions: 230000000 cycles: 353906897 heartbeat IPC: 0.448571 cumulative IPC: 0.420628 (Simulation time: 0 hr 8 min 21 sec) 
Heartbeat CPU 0 instructions: 240000000 cycles: 379716173 heartbeat IPC: 0.387458 cumulative IPC: 0.418071 (Simulation time: 0 hr 8 min 50 sec) 
Heartbeat CPU 0 instructions: 250000001 cycles: 404658670 heartbeat IPC: 0.400922 cumulative IPC: 0.416883 (Simulation time: 0 hr 9 min 18 sec) 
Heartbeat CPU 0 instructions: 260000000 cycles: 425552239 heartbeat IPC: 0.478616 cumulative IPC: 0.420271 (Simulation time: 0 hr 9 min 44 sec) 
Heartbeat CPU 0 instructions: 270000000 cycles: 447053027 heartbeat IPC: 0.465099 cumulative IPC: 0.422667 (Simulation time: 0 hr 10 min 10 sec) 
Heartbeat CPU 0 instructions: 280000000 cycles: 474973256 heartbeat IPC: 0.358163 cumulative IPC: 0.41848 (Simulation time: 0 hr 10 min 41 sec) 
Heartbeat CPU 0 instructions: 290000000 cycles: 496050235 heartbeat IPC: 0.474451 cumulative IPC: 0.421095 (Simulation time: 0 hr 11 min 6 sec) 
Heartbeat CPU 0 instructions: 300000000 cycles: 516461820 heartbeat IPC: 0.489918 cumulative IPC: 0.424073 (Simulation time: 0 hr 11 min 32 sec) 
Heartbeat CPU 0 instructions: 310000000 cycles: 535594036 heartbeat IPC: 0.522679 cumulative IPC: 0.427917 (Simulation time: 0 hr 11 min 56 sec) 
Heartbeat CPU 0 instructions: 320000000 cycles: 565093518 heartbeat IPC: 0.338989 cumulative IPC: 0.422875 (Simulation time: 0 hr 12 min 28 sec) 
Heartbeat CPU 0 instructions: 330000001 cycles: 584496224 heartbeat IPC: 0.515392 cumulative IPC: 0.426201 (Simulation time: 0 hr 12 min 52 sec) 
Heartbeat CPU 0 instructions: 340000000 cycles: 603740870 heartbeat IPC: 0.519625 cumulative IPC: 0.429418 (Simulation time: 0 hr 13 min 17 sec) 
Heartbeat CPU 0 instructions: 350000001 cycles: 628966893 heartbeat IPC: 0.396416 cumulative IPC: 0.427993 (Simulation time: 0 hr 13 min 45 sec) 
Heartbeat CPU 0 instructions: 360000000 cycles: 651268983 heartbeat IPC: 0.448388 cumulative IPC: 0.428743 (Simulation time: 0 hr 14 min 12 sec) 
Heartbeat CPU 0 instructions: 370000001 cycles: 676388707 heartbeat IPC: 0.398094 cumulative IPC: 0.427524 (Simulation time: 0 hr 14 min 40 sec) 
Heartbeat CPU 0 instructions: 380000000 cycles: 699542087 heartbeat IPC: 0.431902 cumulative IPC: 0.427679 (Simulation time: 0 hr 15 min 8 sec) 
Heartbeat CPU 0 instructions: 390000000 cycles: 718307130 heartbeat IPC: 0.532906 cumulative IPC: 0.430611 (Simulation time: 0 hr 15 min 32 sec) 
Heartbeat CPU 0 instructions: 400000000 cycles: 738095793 heartbeat IPC: 0.50534 cumulative IPC: 0.432744 (Simulation time: 0 hr 15 min 57 sec) 
Heartbeat CPU 0 instructions: 410000001 cycles: 764401042 heartbeat IPC: 0.380152 cumulative IPC: 0.430821 (Simulation time: 0 hr 16 min 26 sec) 
Heartbeat CPU 0 instructions: 420000000 cycles: 789033106 heartbeat IPC: 0.405975 cumulative IPC: 0.429999 (Simulation time: 0 hr 16 min 54 sec) 
Heartbeat CPU 0 instructions: 430000002 cycles: 810179913 heartbeat IPC: 0.472885 cumulative IPC: 0.431184 (Simulation time: 0 hr 17 min 20 sec) 
Heartbeat CPU 0 instructions: 440000000 cycles: 830322189 heartbeat IPC: 0.496468 cumulative IPC: 0.432858 (Simulation time: 0 hr 17 min 45 sec) 
Heartbeat CPU 0 instructions: 450000002 cycles: 857174657 heartbeat IPC: 0.372405 cumulative IPC: 0.43086 (Simulation time: 0 hr 18 min 15 sec) 
Heartbeat CPU 0 instructions: 460000000 cycles: 883248388 heartbeat IPC: 0.383528 cumulative IPC: 0.429388 (Simulation time: 0 hr 18 min 44 sec) 
Heartbeat CPU 0 instructions: 470000002 cycles: 909190264 heartbeat IPC: 0.385477 cumulative IPC: 0.42807 (Simulation time: 0 hr 19 min 13 sec) 
Heartbeat CPU 0 instructions: 480000000 cycles: 933454853 heartbeat IPC: 0.412123 cumulative IPC: 0.427634 (Simulation time: 0 hr 19 min 40 sec) 
Heartbeat CPU 0 instructions: 490000000 cycles: 954285287 heartbeat IPC: 0.480067 cumulative IPC: 0.428835 (Simulation time: 0 hr 20 min 6 sec) 
Heartbeat CPU 0 instructions: 500000000 cycles: 979144727 heartbeat IPC: 0.402262 cumulative IPC: 0.428128 (Simulation time: 0 hr 20 min 34 sec) 
Heartbeat CPU 0 instructions: 510000000 cycles: 1004192733 heartbeat IPC: 0.399233 cumulative IPC: 0.427374 (Simulation time: 0 hr 21 min 2 sec) 
Heartbeat CPU 0 instructions: 520000000 cycles: 1025182422 heartbeat IPC: 0.476424 cumulative IPC: 0.428424 (Simulation time: 0 hr 21 min 28 sec) 
Heartbeat CPU 0 instructions: 530000003 cycles: 1050890634 heartbeat IPC: 0.388981 cumulative IPC: 0.427416 (Simulation time: 0 hr 21 min 57 sec) 
Heartbeat CPU 0 instructions: 540000000 cycles: 1073828255 heartbeat IPC: 0.435965 cumulative IPC: 0.427607 (Simulation time: 0 hr 22 min 24 sec) 
Heartbeat CPU 0 instructions: 550000000 cycles: 1099394758 heartbeat IPC: 0.391137 cumulative IPC: 0.426722 (Simulation time: 0 hr 22 min 53 sec) 
Heartbeat CPU 0 instructions: 560000000 cycles: 1122465358 heartbeat IPC: 0.433452 cumulative IPC: 0.426867 (Simulation time: 0 hr 23 min 19 sec) 
Heartbeat CPU 0 instructions: 570000002 cycles: 1145897678 heartbeat IPC: 0.426761 cumulative IPC: 0.426864 (Simulation time: 0 hr 23 min 47 sec) 
Heartbeat CPU 0 instructions: 580000000 cycles: 1166791849 heartbeat IPC: 0.478602 cumulative IPC: 0.427828 (Simulation time: 0 hr 24 min 12 sec) 
Heartbeat CPU 0 instructions: 590000001 cycles: 1190729114 heartbeat IPC: 0.417759 cumulative IPC: 0.427617 (Simulation time: 0 hr 24 min 40 sec) 
Heartbeat CPU 0 instructions: 600000000 cycles: 1209844675 heartbeat IPC: 0.523134 cumulative IPC: 0.429185 (Simulation time: 0 hr 25 min 4 sec) 
Finished CPU 0 instructions: 500000000 cycles: 1164999580 cumulative IPC: 0.429185 (Simulation time: 0 hr 25 min 4 sec) 

CPU 0 Branch Prediction Accuracy: 99.5434% MPKI: 1.33026
Number of Branches: 145676990 Number of Mispredictions: 665128
Number of LOAD Instructions: 188863207
Number of LOAD Instructions (ROI): 188863207
Number of STORE Instructions: 7332002
Number of STORE Instructions (ROI): 7332002
Total Destination Memory Operands: 10029285
Total Destination Memory Operands (ROI): 10029285
Total Source Memory Operands: 188863207
Total Source Memory Operands (ROI): 188863207
Number of DEPENDED LOADS: 290134
Number of DEPENDED LOADS (ROI): 290134
Number of SQ_ADDED: 10029285
Number of SQ_ADDED (ROI): 10029285
Number of LQ_ADDED: 200493509
Number of LQ_ADDED (ROI): 200493509
Number of Instructions read from trace: 600000010

ChampSim completed all CPUs

Region of Interest Statistics

CPU 0 cumulative IPC: 0.429185 instructions: 500000000 cycles: 1164999580
ITLB TOTAL     ACCESS:  145830296  HIT:  145790769  MISS:      39527
ITLB LOAD      ACCESS:  145830296  HIT:  145790769  MISS:      39527
ITLB RFO       ACCESS:          0  HIT:          0  MISS:          0
ITLB PREFETCH  ACCESS:          0  HIT:          0  MISS:          0
ITLB WRITEBACK ACCESS:          0  HIT:          0  MISS:          0
ITLB PREFETCH  REQUESTED:          0  ISSUED:          0  USEFUL:          0  USELESS:          0
ITLB TOTAL MSHR MERGED:      57362
ITLB LOAD MSHR MERGED:      57362
ITLB RFO MSHR MERGED:          0
ITLB PREFETCH MSHR MERGED:          0
ITLB WRITEBACK MSHR MERGED:          0
ITLB TOTAL ACCESSES:  145887658 HITS:  145790769 MISSES:      96889
ITLB LOAD ACCESSES:  145887658 HITS:  145790769 MISSES:      96889
ITLB RFO ACCESSES:          0 HITS:          0 MISSES:          0
ITLB PREFETCH ACCESSES:          0 HITS:          0 MISSES:          0
ITLB WRITEBACK ACCESSES:          0 HITS:          0 MISSES:          0
ITLB RQ ACCESS:  499999754
ITLB RQ TO_CACHE:  145887658
ITLB RQ MERGED:  354112096
ITLB RQ FORWARD:          0
ITLB WQ ACCESS:          0
ITLB WQ TO_CACHE:          0
ITLB WQ MERGED:          0
ITLB WQ FORWARD:          0
DTLB TOTAL     ACCESS:  135200882  HIT:  134032519  MISS:    1168363
DTLB LOAD      ACCESS:  127160042  HIT:  126000785  MISS:    1159257
DTLB RFO       ACCESS:    8040840  HIT:    8031734  MISS:       9106
DTLB PREFETCH  ACCESS:          0  HIT:          0  MISS:          0
DTLB WRITEBACK ACCESS:          0  HIT:          0  MISS:          0
DTLB PREFETCH  REQUESTED:          0  ISSUED:          0  USEFUL:          0  USELESS:          0
DTLB TOTAL MSHR MERGED:     579180
DTLB LOAD MSHR MERGED:     574804
DTLB RFO MSHR MERGED:       4376
DTLB PREFETCH MSHR MERGED:          0
DTLB WRITEBACK MSHR MERGED:          0
DTLB TOTAL ACCESSES:  135780062 HITS:  134032519 MISSES:    1747543
DTLB LOAD ACCESSES:  127734846 HITS:  126000785 MISSES:    1734061
DTLB RFO ACCESSES:    8045216 HITS:    8031734 MISSES:      13482
DTLB PREFETCH ACCESSES:          0 HITS:          0 MISSES:          0
DTLB WRITEBACK ACCESSES:          0 HITS:          0 MISSES:          0
DTLB RQ ACCESS:  165764207
DTLB RQ TO_CACHE:  135780062
DTLB RQ MERGED:   29984145
DTLB RQ FORWARD:          0
DTLB WQ ACCESS:          0
DTLB WQ TO_CACHE:          0
DTLB WQ MERGED:          0
DTLB WQ FORWARD:          0
L1D TOTAL     ACCESS:  157091152  HIT:  139775462  MISS:   17315690
L1D LOAD      ACCESS:   90005172  HIT:   78869155  MISS:   11136017
L1D RFO       ACCESS:    8501194  HIT:    8414128  MISS:      87066
L1D PREFETCH  ACCESS:   58584786  HIT:   52492179  MISS:    6092607
L1D WRITEBACK ACCESS:          0  HIT:          0  MISS:          0
L1D PREFETCH  REQUESTED:   93722778  ISSUED:   92855077  USEFUL:    2011210  USELESS:    4081470
L1D TOTAL MSHR MERGED:   14977389
L1D LOAD MSHR MERGED:    7110002
L1D RFO MSHR MERGED:     123120
L1D PREFETCH MSHR MERGED:    7744267
L1D WRITEBACK MSHR MERGED:          0
L1D TOTAL ACCESSES:  172068695 HITS:  139775616 MISSES:   32293079
L1D LOAD ACCESSES:   93722781 HITS:   78869158 MISSES:   14853623
L1D RFO ACCESSES:    8622578 HITS:    8414128 MISSES:     208450
L1D PREFETCH ACCESSES:   69723336 HITS:   52492330 MISSES:   17231006
L1D WRITEBACK ACCESSES:          0 HITS:          0 MISSES:          0
L1D RQ ACCESS:  157125001
L1D RQ TO_CACHE:   93722778
L1D RQ MERGED:   63402220
L1D RQ FORWARD:          0
L1D WQ ACCESS:    8639208
L1D WQ TO_CACHE:    8622578
L1D WQ MERGED:      16630
L1D WQ FORWARD:        154
L1I TOTAL     ACCESS:  178810978  HIT:  178147312  MISS:     663666
L1I LOAD      ACCESS:  178810978  HIT:  178147312  MISS:     663666
L1I RFO       ACCESS:          0  HIT:          0  MISS:          0
L1I PREFETCH  ACCESS:          0  HIT:          0  MISS:          0
L1I WRITEBACK ACCESS:          0  HIT:          0  MISS:          0
L1I PREFETCH  REQUESTED:          0  ISSUED:          0  USEFUL:          0  USELESS:          0
L1I TOTAL MSHR MERGED:     596815
L1I LOAD MSHR MERGED:     596815
L1I RFO MSHR MERGED:          0
L1I PREFETCH MSHR MERGED:          0
L1I WRITEBACK MSHR MERGED:          0
L1I TOTAL ACCESSES:  179407793 HITS:  178147312 MISSES:    1260481
L1I LOAD ACCESSES:  179407793 HITS:  178147312 MISSES:    1260481
L1I RFO ACCESSES:          0 HITS:          0 MISSES:          0
L1I PREFETCH ACCESSES:          0 HITS:          0 MISSES:          0
L1I WRITEBACK ACCESSES:          0 HITS:          0 MISSES:          0
L1I RQ ACCESS:  499999757
L1I RQ TO_CACHE:  179407793
L1I RQ MERGED:  320591964
L1I RQ FORWARD:          0
L1I WQ ACCESS:          0
L1I WQ TO_CACHE:          0
L1I WQ MERGED:          0
L1I WQ FORWARD:          0
L2C TOTAL     ACCESS:   19277900  HIT:    2058081  MISS:   17219819
L2C LOAD      ACCESS:    8407181  HIT:     951502  MISS:    7455679
L2C RFO       ACCESS:      85307  HIT:      53743  MISS:      31564
L2C PREFETCH  ACCESS:   10500383  HIT:     770618  MISS:    9729765
L2C WRITEBACK ACCESS:     285029  HIT:     282218  MISS:       2811
L2C PREFETCH  REQUESTED:    1017935  ISSUED:    1017935  USEFUL:     275095  USELESS:    9453762
L2C TOTAL MSHR MERGED:        969
L2C LOAD MSHR MERGED:        205
L2C RFO MSHR MERGED:          1
L2C PREFETCH MSHR MERGED:        763
L2C WRITEBACK MSHR MERGED:          0
L2C TOTAL ACCESSES:   19281064 HITS:    2058276 MISSES:   17222788
L2C LOAD ACCESSES:    8407287 HITS:     951608 MISSES:    7455679
L2C RFO ACCESSES:      85330 HITS:      53766 MISSES:      31564
L2C PREFETCH ACCESSES:   10503418 HITS:     770684 MISSES:    9732734
L2C WRITEBACK ACCESSES:     285029 HITS:     282218 MISSES:       2811
L2C RQ ACCESS:    8492617
L2C RQ TO_CACHE:    8492488
L2C RQ MERGED:          0
L2C RQ FORWARD:          0
L2C WQ ACCESS:     285029
L2C WQ TO_CACHE:     285029
L2C WQ MERGED:          0
L2C WQ FORWARD:        195
LLC TOTAL     ACCESS:   17325060  HIT:    4964613  MISS:   12360447
LLC LOAD      ACCESS:    7455474  HIT:    3919820  MISS:    3535654
LLC RFO       ACCESS:      31563  HIT:      20967  MISS:      10596
LLC PREFETCH  ACCESS:    9731966  HIT:     932953  MISS:    8799013
LLC WRITEBACK ACCESS:     106057  HIT:      90873  MISS:      15184
LLC PREFETCH  REQUESTED:          0  ISSUED:          0  USEFUL:       1919  USELESS:    8796340
LLC TOTAL MSHR MERGED:          5
LLC LOAD MSHR MERGED:          0
LLC RFO MSHR MERGED:          0
LLC PREFETCH MSHR MERGED:          5
LLC WRITEBACK MSHR MERGED:          0
LLC TOTAL ACCESSES:   17325065 HITS:    4964613 MISSES:   12360452
LLC LOAD ACCESSES:    7455474 HITS:    3919820 MISSES:    3535654
LLC RFO ACCESSES:      31563 HITS:      20967 MISSES:      10596
LLC PREFETCH ACCESSES:    9731971 HITS:     932953 MISSES:    8799018
LLC WRITEBACK ACCESSES:     106057 HITS:      90873 MISSES:      15184
LLC 0 RQ ACCESS:    7487037
LLC 0 RQ TO_CACHE:    7487037
LLC 0 RQ MERGED:          0
LLC 0 RQ FORWARD:          0
LLC WQ ACCESS:     106057
LLC WQ TO_CACHE:     106057
LLC WQ MERGED:          0
LLC WQ FORWARD:          0
Major fault: 0 Minor fault: 6432
CPU 0 L1D next line prefetcher final stats
CPU 0 L2C PC-based stride prefetcher final stats
All Misses: 14590338
All Hits: 5954382
SD Algo Stats - Switches: 0 SRR-Repls: 3780607 BRR-Repls: 0

DRAM Statistics
 CHANNEL 0
 RQ ROW_BUFFER_HIT:    9338962  ROW_BUFFER_MISS:    3002550
 DBUS_CONGESTED:    5775361
 WQ ROW_BUFFER_HIT:       1201  ROW_BUFFER_MISS:      26042  FULL:          0

 AVG_CONGESTED_CYCLE: 12
LOADS RETIRED: 157382665
INSTR RETIRED: 500000000
