
*** ChampSim Multicore Out-of-Order Simulator ***

Warmup Instructions: 100000000
Simulation Instructions: 500000000
Number of CPUs: 1
LLC sets: 2048
LLC ways: 16
Clean RRIP Policies: 2213230222132302 Dirty RRIP Policies: 1203130212031302 PSEL Width: 10 Track Set: 4294967295 PSEL Mask: 1 Demote Mask: 1240300012403000DS Algo: 0Window size: 0
Off-chip DRAM Size: 4096 MB Channels: 1 Width: 64-bit Data Rate: 1600 MT/s

CPU 0 runs /mnt/beegfs/iconst01/spec2017/Cam4.trace.gz
NOT SORTED
TRACE STRING: /mnt/beegfs/iconst01/spec2017/Cam4.trace.gz
SORTED
TRACE STRING: /mnt/beegfs/iconst01/spec2017/Cam4.trace.gz
INITIAL
TRACE STRING: /mnt/beegfs/iconst01/spec2017/Cam4.trace.gz

champsim_seed used: 325

CPU 0 L1D next line prefetcher
CPU 0 L2C IP-based stride prefetcher
Initialize DRRIP state
Assign rand_sets[0]: 454  LLC: 2048
rand_sets[0]: 454
Assign rand_sets[1]: 1662  LLC: 2048
rand_sets[1]: 1662
Assign rand_sets[2]: 1921  LLC: 2048
rand_sets[2]: 1921
Assign rand_sets[3]: 1131  LLC: 2048
rand_sets[3]: 1131
Assign rand_sets[4]: 331  LLC: 2048
rand_sets[4]: 331
Assign rand_sets[5]: 1531  LLC: 2048
rand_sets[5]: 1531
Assign rand_sets[6]: 482  LLC: 2048
rand_sets[6]: 482
Assign rand_sets[7]: 1275  LLC: 2048
rand_sets[7]: 1275
Assign rand_sets[8]: 1876  LLC: 2048
rand_sets[8]: 1876
Assign rand_sets[9]: 2038  LLC: 2048
rand_sets[9]: 2038
Assign rand_sets[10]: 701  LLC: 2048
rand_sets[10]: 701
Assign rand_sets[11]: 479  LLC: 2048
rand_sets[11]: 479
Assign rand_sets[12]: 892  LLC: 2048
rand_sets[12]: 892
Assign rand_sets[13]: 1820  LLC: 2048
rand_sets[13]: 1820
Assign rand_sets[14]: 1505  LLC: 2048
rand_sets[14]: 1505
Assign rand_sets[15]: 1159  LLC: 2048
rand_sets[15]: 1159
Assign rand_sets[16]: 513  LLC: 2048
rand_sets[16]: 513
Assign rand_sets[17]: 703  LLC: 2048
rand_sets[17]: 703
Assign rand_sets[18]: 561  LLC: 2048
rand_sets[18]: 561
Assign rand_sets[19]: 990  LLC: 2048
rand_sets[19]: 990
Assign rand_sets[20]: 342  LLC: 2048
rand_sets[20]: 342
Assign rand_sets[21]: 882  LLC: 2048
rand_sets[21]: 882
Assign rand_sets[22]: 15  LLC: 2048
rand_sets[22]: 15
Assign rand_sets[23]: 71  LLC: 2048
rand_sets[23]: 71
Assign rand_sets[24]: 1127  LLC: 2048
rand_sets[24]: 1127
Assign rand_sets[25]: 1382  LLC: 2048
rand_sets[25]: 1382
Assign rand_sets[26]: 647  LLC: 2048
rand_sets[26]: 647
Assign rand_sets[27]: 857  LLC: 2048
rand_sets[27]: 857
Assign rand_sets[28]: 1450  LLC: 2048
rand_sets[28]: 1450
Assign rand_sets[29]: 1160  LLC: 2048
rand_sets[29]: 1160
Assign rand_sets[30]: 1852  LLC: 2048
rand_sets[30]: 1852
Assign rand_sets[31]: 1881  LLC: 2048
rand_sets[31]: 1881
Assign rand_sets[32]: 1770  LLC: 2048
rand_sets[32]: 1770
Assign rand_sets[33]: 1622  LLC: 2048
rand_sets[33]: 1622
Assign rand_sets[34]: 275  LLC: 2048
rand_sets[34]: 275
Assign rand_sets[35]: 635  LLC: 2048
rand_sets[35]: 635
Assign rand_sets[36]: 466  LLC: 2048
rand_sets[36]: 466
Assign rand_sets[37]: 1413  LLC: 2048
rand_sets[37]: 1413
Assign rand_sets[38]: 417  LLC: 2048
rand_sets[38]: 417
Assign rand_sets[39]: 472  LLC: 2048
rand_sets[39]: 472
Assign rand_sets[40]: 1340  LLC: 2048
rand_sets[40]: 1340
Assign rand_sets[41]: 852  LLC: 2048
rand_sets[41]: 852
Assign rand_sets[42]: 1365  LLC: 2048
rand_sets[42]: 1365
Assign rand_sets[43]: 47  LLC: 2048
rand_sets[43]: 47
Assign rand_sets[44]: 823  LLC: 2048
rand_sets[44]: 823
Assign rand_sets[45]: 686  LLC: 2048
rand_sets[45]: 686
Assign rand_sets[46]: 1637  LLC: 2048
rand_sets[46]: 1637
Assign rand_sets[47]: 1115  LLC: 2048
rand_sets[47]: 1115
Assign rand_sets[48]: 986  LLC: 2048
rand_sets[48]: 986
Assign rand_sets[49]: 258  LLC: 2048
rand_sets[49]: 258
Assign rand_sets[50]: 633  LLC: 2048
rand_sets[50]: 633
Assign rand_sets[51]: 920  LLC: 2048
rand_sets[51]: 920
Assign rand_sets[52]: 204  LLC: 2048
rand_sets[52]: 204
Assign rand_sets[53]: 227  LLC: 2048
rand_sets[53]: 227
Assign rand_sets[54]: 1818  LLC: 2048
rand_sets[54]: 1818
Assign rand_sets[55]: 886  LLC: 2048
rand_sets[55]: 886
Assign rand_sets[56]: 1422  LLC: 2048
rand_sets[56]: 1422
Assign rand_sets[57]: 607  LLC: 2048
rand_sets[57]: 607
Assign rand_sets[58]: 217  LLC: 2048
rand_sets[58]: 217
Assign rand_sets[59]: 1945  LLC: 2048
rand_sets[59]: 1945
Assign rand_sets[60]: 143  LLC: 2048
rand_sets[60]: 143
Assign rand_sets[61]: 1311  LLC: 2048
rand_sets[61]: 1311
Assign rand_sets[62]: 319  LLC: 2048
rand_sets[62]: 319
Assign rand_sets[63]: 1846  LLC: 2048
rand_sets[63]: 1846
 CLEAN-RRIP-POLICY-1: 2-2-1-3-2-3-0-2- CLEAN-RRIP-POLICY-2: 2-2-1-3-2-3-0-2-
 DIRTY-RRIP-POLICY-1: 1-2-0-3-1-3-0-2- DIRTY-RRIP-POLICY-2: 1-2-0-3-1-3-0-2-
 PSEL width: 10
Heartbeat CPU 0 instructions: 10000000 cycles: 4859184 heartbeat IPC: 2.05796 cumulative IPC: 2.05796 (Simulation time: 0 hr 0 min 16 sec) 
Heartbeat CPU 0 instructions: 20000000 cycles: 9790786 heartbeat IPC: 2.02774 cumulative IPC: 2.04274 (Simulation time: 0 hr 0 min 32 sec) 
Heartbeat CPU 0 instructions: 30000001 cycles: 14562963 heartbeat IPC: 2.09548 cumulative IPC: 2.06002 (Simulation time: 0 hr 0 min 47 sec) 
Heartbeat CPU 0 instructions: 40000000 cycles: 19399971 heartbeat IPC: 2.06739 cumulative IPC: 2.06186 (Simulation time: 0 hr 1 min 4 sec) 
Heartbeat CPU 0 instructions: 50000000 cycles: 24256476 heartbeat IPC: 2.05909 cumulative IPC: 2.06131 (Simulation time: 0 hr 1 min 21 sec) 
Heartbeat CPU 0 instructions: 60000000 cycles: 29181928 heartbeat IPC: 2.03027 cumulative IPC: 2.05607 (Simulation time: 0 hr 1 min 37 sec) 
Heartbeat CPU 0 instructions: 70000001 cycles: 33957031 heartbeat IPC: 2.0942 cumulative IPC: 2.06143 (Simulation time: 0 hr 1 min 52 sec) 
Heartbeat CPU 0 instructions: 80000000 cycles: 38793303 heartbeat IPC: 2.06771 cumulative IPC: 2.06221 (Simulation time: 0 hr 2 min 9 sec) 
Heartbeat CPU 0 instructions: 90000002 cycles: 43647338 heartbeat IPC: 2.06014 cumulative IPC: 2.06198 (Simulation time: 0 hr 2 min 27 sec) 
Heartbeat CPU 0 instructions: 100000000 cycles: 48566121 heartbeat IPC: 2.03302 cumulative IPC: 2.05905 (Simulation time: 0 hr 2 min 43 sec) 

Warmup complete CPU 0 instructions: 100000001 cycles: 48566122 (Simulation time: 0 hr 2 min 43 sec) 

Heartbeat CPU 0 instructions: 110000000 cycles: 61638313 heartbeat IPC: 0.764983 cumulative IPC: 0.764983 (Simulation time: 0 hr 3 min 6 sec) 
Heartbeat CPU 0 instructions: 120000000 cycles: 75392778 heartbeat IPC: 0.727037 cumulative IPC: 0.745527 (Simulation time: 0 hr 3 min 31 sec) 
Heartbeat CPU 0 instructions: 130000000 cycles: 89138549 heartbeat IPC: 0.727497 cumulative IPC: 0.739418 (Simulation time: 0 hr 3 min 56 sec) 
Heartbeat CPU 0 instructions: 140000000 cycles: 103399804 heartbeat IPC: 0.701201 cumulative IPC: 0.729479 (Simulation time: 0 hr 4 min 21 sec) 
Heartbeat CPU 0 instructions: 150000003 cycles: 116532248 heartbeat IPC: 0.761473 cumulative IPC: 0.735661 (Simulation time: 0 hr 4 min 44 sec) 
Heartbeat CPU 0 instructions: 160000000 cycles: 130287216 heartbeat IPC: 0.72701 cumulative IPC: 0.734205 (Simulation time: 0 hr 5 min 9 sec) 
Heartbeat CPU 0 instructions: 170000001 cycles: 144070685 heartbeat IPC: 0.725507 cumulative IPC: 0.732949 (Simulation time: 0 hr 5 min 35 sec) 
Heartbeat CPU 0 instructions: 180000000 cycles: 158315944 heartbeat IPC: 0.701988 cumulative IPC: 0.728931 (Simulation time: 0 hr 6 min 0 sec) 
Heartbeat CPU 0 instructions: 190000003 cycles: 171421046 heartbeat IPC: 0.763062 cumulative IPC: 0.732571 (Simulation time: 0 hr 6 min 22 sec) 
Heartbeat CPU 0 instructions: 200000000 cycles: 185170640 heartbeat IPC: 0.727294 cumulative IPC: 0.73204 (Simulation time: 0 hr 6 min 48 sec) 
Heartbeat CPU 0 instructions: 210000002 cycles: 198955948 heartbeat IPC: 0.72541 cumulative IPC: 0.731432 (Simulation time: 0 hr 7 min 13 sec) 
Heartbeat CPU 0 instructions: 220000000 cycles: 213203797 heartbeat IPC: 0.70186 cumulative IPC: 0.728873 (Simulation time: 0 hr 7 min 38 sec) 
Heartbeat CPU 0 instructions: 230000001 cycles: 226248091 heartbeat IPC: 0.766619 cumulative IPC: 0.731644 (Simulation time: 0 hr 8 min 1 sec) 
Heartbeat CPU 0 instructions: 240000000 cycles: 239991040 heartbeat IPC: 0.727646 cumulative IPC: 0.731357 (Simulation time: 0 hr 8 min 26 sec) 
Heartbeat CPU 0 instructions: 250000001 cycles: 253721087 heartbeat IPC: 0.72833 cumulative IPC: 0.731155 (Simulation time: 0 hr 8 min 51 sec) 
Heartbeat CPU 0 instructions: 260000000 cycles: 267862379 heartbeat IPC: 0.707149 cumulative IPC: 0.729607 (Simulation time: 0 hr 9 min 16 sec) 
Heartbeat CPU 0 instructions: 270000003 cycles: 281021931 heartbeat IPC: 0.759905 cumulative IPC: 0.731322 (Simulation time: 0 hr 9 min 39 sec) 
Heartbeat CPU 0 instructions: 280000000 cycles: 294778910 heartbeat IPC: 0.726904 cumulative IPC: 0.731075 (Simulation time: 0 hr 10 min 4 sec) 
Heartbeat CPU 0 instructions: 290000001 cycles: 308552053 heartbeat IPC: 0.726051 cumulative IPC: 0.730809 (Simulation time: 0 hr 10 min 29 sec) 
Heartbeat CPU 0 instructions: 300000000 cycles: 322635129 heartbeat IPC: 0.710072 cumulative IPC: 0.729743 (Simulation time: 0 hr 10 min 54 sec) 
Heartbeat CPU 0 instructions: 310000000 cycles: 335814930 heartbeat IPC: 0.758737 cumulative IPC: 0.731073 (Simulation time: 0 hr 11 min 17 sec) 
Heartbeat CPU 0 instructions: 320000000 cycles: 349618324 heartbeat IPC: 0.72446 cumulative IPC: 0.73077 (Simulation time: 0 hr 11 min 42 sec) 
Heartbeat CPU 0 instructions: 330000000 cycles: 363413213 heartbeat IPC: 0.724906 cumulative IPC: 0.730513 (Simulation time: 0 hr 12 min 7 sec) 
Heartbeat CPU 0 instructions: 340000000 cycles: 377471166 heartbeat IPC: 0.711341 cumulative IPC: 0.729694 (Simulation time: 0 hr 12 min 31 sec) 
Heartbeat CPU 0 instructions: 350000000 cycles: 390681871 heartbeat IPC: 0.756962 cumulative IPC: 0.730747 (Simulation time: 0 hr 12 min 54 sec) 
Heartbeat CPU 0 instructions: 360000000 cycles: 404513834 heartbeat IPC: 0.722963 cumulative IPC: 0.730444 (Simulation time: 0 hr 13 min 18 sec) 
Heartbeat CPU 0 instructions: 370000003 cycles: 418311853 heartbeat IPC: 0.724742 cumulative IPC: 0.730232 (Simulation time: 0 hr 13 min 43 sec) 
Heartbeat CPU 0 instructions: 380000000 cycles: 432337537 heartbeat IPC: 0.712977 cumulative IPC: 0.729601 (Simulation time: 0 hr 14 min 7 sec) 
Heartbeat CPU 0 instructions: 390000003 cycles: 445567173 heartbeat IPC: 0.755879 cumulative IPC: 0.730477 (Simulation time: 0 hr 14 min 29 sec) 
Heartbeat CPU 0 instructions: 400000000 cycles: 459389675 heartbeat IPC: 0.723458 cumulative IPC: 0.730241 (Simulation time: 0 hr 14 min 54 sec) 
Heartbeat CPU 0 instructions: 410000000 cycles: 473154887 heartbeat IPC: 0.726469 cumulative IPC: 0.730118 (Simulation time: 0 hr 15 min 18 sec) 
Heartbeat CPU 0 instructions: 420000000 cycles: 487164708 heartbeat IPC: 0.713785 cumulative IPC: 0.729596 (Simulation time: 0 hr 15 min 43 sec) 
Heartbeat CPU 0 instructions: 430000003 cycles: 500413904 heartbeat IPC: 0.754763 cumulative IPC: 0.730334 (Simulation time: 0 hr 16 min 5 sec) 
Heartbeat CPU 0 instructions: 440000000 cycles: 514235069 heartbeat IPC: 0.723528 cumulative IPC: 0.730132 (Simulation time: 0 hr 16 min 29 sec) 
Heartbeat CPU 0 instructions: 450000000 cycles: 528023225 heartbeat IPC: 0.72526 cumulative IPC: 0.729992 (Simulation time: 0 hr 16 min 53 sec) 
Heartbeat CPU 0 instructions: 460000000 cycles: 542017510 heartbeat IPC: 0.714577 cumulative IPC: 0.729555 (Simulation time: 0 hr 17 min 17 sec) 
Heartbeat CPU 0 instructions: 470000001 cycles: 555253360 heartbeat IPC: 0.755524 cumulative IPC: 0.730233 (Simulation time: 0 hr 17 min 38 sec) 
Heartbeat CPU 0 instructions: 480000000 cycles: 569052236 heartbeat IPC: 0.724697 cumulative IPC: 0.730087 (Simulation time: 0 hr 18 min 2 sec) 
Heartbeat CPU 0 instructions: 490000002 cycles: 582812591 heartbeat IPC: 0.726726 cumulative IPC: 0.73 (Simulation time: 0 hr 18 min 26 sec) 
Heartbeat CPU 0 instructions: 500000000 cycles: 596803830 heartbeat IPC: 0.714733 cumulative IPC: 0.729611 (Simulation time: 0 hr 18 min 50 sec) 
Heartbeat CPU 0 instructions: 510000002 cycles: 610077090 heartbeat IPC: 0.753395 cumulative IPC: 0.730173 (Simulation time: 0 hr 19 min 12 sec) 
Heartbeat CPU 0 instructions: 520000000 cycles: 623864037 heartbeat IPC: 0.725324 cumulative IPC: 0.730057 (Simulation time: 0 hr 19 min 36 sec) 
Heartbeat CPU 0 instructions: 530000003 cycles: 637604158 heartbeat IPC: 0.727796 cumulative IPC: 0.730004 (Simulation time: 0 hr 20 min 0 sec) 
Heartbeat CPU 0 instructions: 540000000 cycles: 651617363 heartbeat IPC: 0.713612 cumulative IPC: 0.729623 (Simulation time: 0 hr 20 min 24 sec) 
Heartbeat CPU 0 instructions: 550000003 cycles: 664875555 heartbeat IPC: 0.754251 cumulative IPC: 0.730153 (Simulation time: 0 hr 20 min 45 sec) 
Heartbeat CPU 0 instructions: 560000000 cycles: 678637722 heartbeat IPC: 0.72663 cumulative IPC: 0.730076 (Simulation time: 0 hr 21 min 9 sec) 
Heartbeat CPU 0 instructions: 570000001 cycles: 692407580 heartbeat IPC: 0.726224 cumulative IPC: 0.729993 (Simulation time: 0 hr 21 min 33 sec) 
Heartbeat CPU 0 instructions: 580000000 cycles: 706443617 heartbeat IPC: 0.712452 cumulative IPC: 0.729619 (Simulation time: 0 hr 21 min 57 sec) 
Heartbeat CPU 0 instructions: 590000000 cycles: 719637062 heartbeat IPC: 0.757952 cumulative IPC: 0.730176 (Simulation time: 0 hr 22 min 19 sec) 
Heartbeat CPU 0 instructions: 600000000 cycles: 733406874 heartbeat IPC: 0.726226 cumulative IPC: 0.730097 (Simulation time: 0 hr 22 min 43 sec) 
Finished CPU 0 instructions: 500000001 cycles: 684840760 cumulative IPC: 0.730097 (Simulation time: 0 hr 22 min 43 sec) 

CPU 0 Branch Prediction Accuracy: 97.5275% MPKI: 2.1997
Number of Branches: 44482865 Number of Mispredictions: 1099852
Number of LOAD Instructions: 144955155
Number of LOAD Instructions (ROI): 144955155
Number of STORE Instructions: 55921098
Number of STORE Instructions (ROI): 55921098
Total Destination Memory Operands: 57111147
Total Destination Memory Operands (ROI): 57111147
Total Source Memory Operands: 144955155
Total Source Memory Operands (ROI): 144955155
Number of DEPENDED LOADS: 13454735
Number of DEPENDED LOADS (ROI): 13454735
Number of SQ_ADDED: 57111126
Number of SQ_ADDED (ROI): 57111126
Number of LQ_ADDED: 174211777
Number of LQ_ADDED (ROI): 174211777
Number of Instructions read from trace: 600000256

ChampSim completed all CPUs

Region of Interest Statistics

CPU 0 cumulative IPC: 0.730097 instructions: 500000001 cycles: 684840760
ITLB TOTAL     ACCESS:  136066860  HIT:  136064307  MISS:       2553
ITLB LOAD      ACCESS:  136066860  HIT:  136064307  MISS:       2553
ITLB RFO       ACCESS:          0  HIT:          0  MISS:          0
ITLB PREFETCH  ACCESS:          0  HIT:          0  MISS:          0
ITLB WRITEBACK ACCESS:          0  HIT:          0  MISS:          0
ITLB PREFETCH  REQUESTED:          0  ISSUED:          0  USEFUL:          0  USELESS:          0
ITLB TOTAL MSHR MERGED:       4360
ITLB LOAD MSHR MERGED:       4360
ITLB RFO MSHR MERGED:          0
ITLB PREFETCH MSHR MERGED:          0
ITLB WRITEBACK MSHR MERGED:          0
ITLB TOTAL ACCESSES:  136071220 HITS:  136064307 MISSES:       6913
ITLB LOAD ACCESSES:  136071220 HITS:  136064307 MISSES:       6913
ITLB RFO ACCESSES:          0 HITS:          0 MISSES:          0
ITLB PREFETCH ACCESSES:          0 HITS:          0 MISSES:          0
ITLB WRITEBACK ACCESSES:          0 HITS:          0 MISSES:          0
ITLB RQ ACCESS:  500000202
ITLB RQ TO_CACHE:  136071220
ITLB RQ MERGED:  363928982
ITLB RQ FORWARD:          0
ITLB WQ ACCESS:          0
ITLB WQ TO_CACHE:          0
ITLB WQ MERGED:          0
ITLB WQ FORWARD:          0
DTLB TOTAL     ACCESS:  111552516  HIT:  111416321  MISS:     136195
DTLB LOAD      ACCESS:   78951820  HIT:   78826192  MISS:     125628
DTLB RFO       ACCESS:   32600696  HIT:   32590129  MISS:      10567
DTLB PREFETCH  ACCESS:          0  HIT:          0  MISS:          0
DTLB WRITEBACK ACCESS:          0  HIT:          0  MISS:          0
DTLB PREFETCH  REQUESTED:          0  ISSUED:          0  USEFUL:          0  USELESS:          0
DTLB TOTAL MSHR MERGED:      63893
DTLB LOAD MSHR MERGED:      50963
DTLB RFO MSHR MERGED:      12930
DTLB PREFETCH MSHR MERGED:          0
DTLB WRITEBACK MSHR MERGED:          0
DTLB TOTAL ACCESSES:  111616409 HITS:  111416321 MISSES:     200088
DTLB LOAD ACCESSES:   79002783 HITS:   78826192 MISSES:     176591
DTLB RFO ACCESSES:   32613626 HITS:   32590129 MISSES:      23497
DTLB PREFETCH ACCESSES:          0 HITS:          0 MISSES:          0
DTLB WRITEBACK ACCESSES:          0 HITS:          0 MISSES:          0
DTLB RQ ACCESS:  157180686
DTLB RQ TO_CACHE:  111616409
DTLB RQ MERGED:   45564277
DTLB RQ FORWARD:          0
DTLB WQ ACCESS:          0
DTLB WQ TO_CACHE:          0
DTLB WQ MERGED:          0
DTLB WQ FORWARD:          0
L1D TOTAL     ACCESS:  198256485  HIT:  188415397  MISS:    9841088
L1D LOAD      ACCESS:   79951804  HIT:   75689909  MISS:    4261895
L1D RFO       ACCESS:   44547404  HIT:   43647259  MISS:     900145
L1D PREFETCH  ACCESS:   73757277  HIT:   69078229  MISS:    4679048
L1D WRITEBACK ACCESS:          0  HIT:          0  MISS:          0
L1D PREFETCH  REQUESTED:   80347652  ISSUED:   79892043  USEFUL:    1820751  USELESS:    2858206
L1D TOTAL MSHR MERGED:    2476010
L1D LOAD MSHR MERGED:     519294
L1D RFO MSHR MERGED:    1405253
L1D PREFETCH MSHR MERGED:     551463
L1D WRITEBACK MSHR MERGED:          0
L1D TOTAL ACCESSES:  200753652 HITS:  188436554 MISSES:   12317098
L1D LOAD ACCESSES:   80360157 HITS:   75702414 MISSES:    4657743
L1D RFO ACCESSES:   45949859 HITS:   43647259 MISSES:    2302600
L1D PREFETCH ACCESSES:   74443636 HITS:   69086881 MISSES:    5356755
L1D WRITEBACK ACCESSES:          0 HITS:          0 MISSES:          0
L1D RQ ACCESS:  109538716
L1D RQ TO_CACHE:   80347652
L1D RQ MERGED:   29178559
L1D RQ FORWARD:          0
L1D WQ ACCESS:   47641970
L1D WQ TO_CACHE:   45949859
L1D WQ MERGED:    1692111
L1D WQ FORWARD:      21157
L1I TOTAL     ACCESS:  161537271  HIT:  161273298  MISS:     263973
L1I LOAD      ACCESS:  161537271  HIT:  161273298  MISS:     263973
L1I RFO       ACCESS:          0  HIT:          0  MISS:          0
L1I PREFETCH  ACCESS:          0  HIT:          0  MISS:          0
L1I WRITEBACK ACCESS:          0  HIT:          0  MISS:          0
L1I PREFETCH  REQUESTED:          0  ISSUED:          0  USEFUL:          0  USELESS:          0
L1I TOTAL MSHR MERGED:     261236
L1I LOAD MSHR MERGED:     261236
L1I RFO MSHR MERGED:          0
L1I PREFETCH MSHR MERGED:          0
L1I WRITEBACK MSHR MERGED:          0
L1I TOTAL ACCESSES:  161798507 HITS:  161273298 MISSES:     525209
L1I LOAD ACCESSES:  161798507 HITS:  161273298 MISSES:     525209
L1I RFO ACCESSES:          0 HITS:          0 MISSES:          0
L1I PREFETCH ACCESSES:          0 HITS:          0 MISSES:          0
L1I WRITEBACK ACCESSES:          0 HITS:          0 MISSES:          0
L1I RQ ACCESS:  500000202
L1I RQ TO_CACHE:  161798507
L1I RQ MERGED:  338201695
L1I RQ FORWARD:          0
L1I WQ ACCESS:          0
L1I WQ TO_CACHE:          0
L1I WQ MERGED:          0
L1I WQ FORWARD:          0
L2C TOTAL     ACCESS:   11771733  HIT:   10382404  MISS:    1389329
L2C LOAD      ACCESS:    4402357  HIT:    3905711  MISS:     496646
L2C RFO       ACCESS:     897281  HIT:     536257  MISS:     361024
L2C PREFETCH  ACCESS:    5284528  HIT:    4755815  MISS:     528713
L2C WRITEBACK ACCESS:    1187567  HIT:    1184621  MISS:       2946
L2C PREFETCH  REQUESTED:     504657  ISSUED:     504657  USEFUL:     114882  USELESS:     414023
L2C TOTAL MSHR MERGED:       2019
L2C LOAD MSHR MERGED:        415
L2C RFO MSHR MERGED:          0
L2C PREFETCH MSHR MERGED:       1604
L2C WRITEBACK MSHR MERGED:          0
L2C TOTAL ACCESSES:   11776563 HITS:   10382624 MISSES:    1393939
L2C LOAD ACCESSES:    4402422 HITS:    3905776 MISSES:     496646
L2C RFO ACCESSES:     897347 HITS:     536323 MISSES:     361024
L2C PREFETCH ACCESSES:    5289227 HITS:    4755904 MISSES:     533323
L2C WRITEBACK ACCESSES:    1187567 HITS:    1184621 MISSES:       2946
L2C RQ ACCESS:    5299769
L2C RQ TO_CACHE:    5299638
L2C RQ MERGED:          0
L2C RQ FORWARD:          0
L2C WQ ACCESS:    1187567
L2C WQ TO_CACHE:    1187567
L2C WQ MERGED:          0
L2C WQ FORWARD:        220
LLC TOTAL     ACCESS:    1849597  HIT:    1181635  MISS:     667962
LLC LOAD      ACCESS:     496229  HIT:     224451  MISS:     271778
LLC RFO       ACCESS:     361020  HIT:     263237  MISS:      97783
LLC PREFETCH  ACCESS:     531611  HIT:     314262  MISS:     217349
LLC WRITEBACK ACCESS:     460737  HIT:     379685  MISS:      81052
LLC PREFETCH  REQUESTED:          0  ISSUED:          0  USEFUL:       3179  USELESS:     214423
LLC TOTAL MSHR MERGED:         78
LLC LOAD MSHR MERGED:         34
LLC RFO MSHR MERGED:          0
LLC PREFETCH MSHR MERGED:         44
LLC WRITEBACK MSHR MERGED:          0
LLC TOTAL ACCESSES:    1849701 HITS:    1181661 MISSES:     668040
LLC LOAD ACCESSES:     496231 HITS:     224453 MISSES:     271778
LLC RFO ACCESSES:     361024 HITS:     263241 MISSES:      97783
LLC PREFETCH ACCESSES:     531709 HITS:     314282 MISSES:     217427
LLC WRITEBACK ACCESSES:     460737 HITS:     379685 MISSES:      81052
LLC 0 RQ ACCESS:     857255
LLC 0 RQ TO_CACHE:     857249
LLC 0 RQ MERGED:          0
LLC 0 RQ FORWARD:          0
LLC WQ ACCESS:     460737
LLC WQ TO_CACHE:     460737
LLC WQ MERGED:          0
LLC WQ FORWARD:         26
Major fault: 0 Minor fault: 3073
CPU 0 L1D next line prefetcher final stats
CPU 0 L2C PC-based stride prefetcher final stats
All Misses: 819833
All Hits: 1356455
SD Algo Stats - Switches: 0 SRR-Repls: 310803 BRR-Repls: 0

DRAM Statistics
 CHANNEL 0
 RQ ROW_BUFFER_HIT:     401832  ROW_BUFFER_MISS:     184847
 DBUS_CONGESTED:     399999
 WQ ROW_BUFFER_HIT:      11174  ROW_BUFFER_MISS:      92626  FULL:          0

 AVG_CONGESTED_CYCLE: 13
LOADS RETIRED: 120673965
INSTR RETIRED: 500000000
