
*** ChampSim Multicore Out-of-Order Simulator ***

Warmup Instructions: 100000000
Simulation Instructions: 500000000
Number of CPUs: 1
LLC sets: 2048
LLC ways: 16
Clean RRIP Policies: 2213230222132302 Dirty RRIP Policies: 1203130212031302 PSEL Width: 10 Track Set: 4294967295 PSEL Mask: 1 Demote Mask: 1240300012403000DS Algo: 0Window size: 0
Off-chip DRAM Size: 4096 MB Channels: 1 Width: 64-bit Data Rate: 1600 MT/s

CPU 0 runs /mnt/beegfs/iconst01/spec2017/Fotonik3d.trace.gz
NOT SORTED
TRACE STRING: /mnt/beegfs/iconst01/spec2017/Fotonik3d.trace.gz
SORTED
TRACE STRING: /mnt/beegfs/iconst01/spec2017/Fotonik3d.trace.gz
INITIAL
TRACE STRING: /mnt/beegfs/iconst01/spec2017/Fotonik3d.trace.gz

champsim_seed used: 881

CPU 0 L1D next line prefetcher
CPU 0 L2C IP-based stride prefetcher
Initialize DRRIP state
Assign rand_sets[0]: 454  LLC: 2048
rand_sets[0]: 454
Assign rand_sets[1]: 1662  LLC: 2048
rand_sets[1]: 1662
Assign rand_sets[2]: 1921  LLC: 2048
rand_sets[2]: 1921
Assign rand_sets[3]: 1131  LLC: 2048
rand_sets[3]: 1131
Assign rand_sets[4]: 331  LLC: 2048
rand_sets[4]: 331
Assign rand_sets[5]: 1531  LLC: 2048
rand_sets[5]: 1531
Assign rand_sets[6]: 482  LLC: 2048
rand_sets[6]: 482
Assign rand_sets[7]: 1275  LLC: 2048
rand_sets[7]: 1275
Assign rand_sets[8]: 1876  LLC: 2048
rand_sets[8]: 1876
Assign rand_sets[9]: 2038  LLC: 2048
rand_sets[9]: 2038
Assign rand_sets[10]: 701  LLC: 2048
rand_sets[10]: 701
Assign rand_sets[11]: 479  LLC: 2048
rand_sets[11]: 479
Assign rand_sets[12]: 892  LLC: 2048
rand_sets[12]: 892
Assign rand_sets[13]: 1820  LLC: 2048
rand_sets[13]: 1820
Assign rand_sets[14]: 1505  LLC: 2048
rand_sets[14]: 1505
Assign rand_sets[15]: 1159  LLC: 2048
rand_sets[15]: 1159
Assign rand_sets[16]: 513  LLC: 2048
rand_sets[16]: 513
Assign rand_sets[17]: 703  LLC: 2048
rand_sets[17]: 703
Assign rand_sets[18]: 561  LLC: 2048
rand_sets[18]: 561
Assign rand_sets[19]: 990  LLC: 2048
rand_sets[19]: 990
Assign rand_sets[20]: 342  LLC: 2048
rand_sets[20]: 342
Assign rand_sets[21]: 882  LLC: 2048
rand_sets[21]: 882
Assign rand_sets[22]: 15  LLC: 2048
rand_sets[22]: 15
Assign rand_sets[23]: 71  LLC: 2048
rand_sets[23]: 71
Assign rand_sets[24]: 1127  LLC: 2048
rand_sets[24]: 1127
Assign rand_sets[25]: 1382  LLC: 2048
rand_sets[25]: 1382
Assign rand_sets[26]: 647  LLC: 2048
rand_sets[26]: 647
Assign rand_sets[27]: 857  LLC: 2048
rand_sets[27]: 857
Assign rand_sets[28]: 1450  LLC: 2048
rand_sets[28]: 1450
Assign rand_sets[29]: 1160  LLC: 2048
rand_sets[29]: 1160
Assign rand_sets[30]: 1852  LLC: 2048
rand_sets[30]: 1852
Assign rand_sets[31]: 1881  LLC: 2048
rand_sets[31]: 1881
Assign rand_sets[32]: 1770  LLC: 2048
rand_sets[32]: 1770
Assign rand_sets[33]: 1622  LLC: 2048
rand_sets[33]: 1622
Assign rand_sets[34]: 275  LLC: 2048
rand_sets[34]: 275
Assign rand_sets[35]: 635  LLC: 2048
rand_sets[35]: 635
Assign rand_sets[36]: 466  LLC: 2048
rand_sets[36]: 466
Assign rand_sets[37]: 1413  LLC: 2048
rand_sets[37]: 1413
Assign rand_sets[38]: 417  LLC: 2048
rand_sets[38]: 417
Assign rand_sets[39]: 472  LLC: 2048
rand_sets[39]: 472
Assign rand_sets[40]: 1340  LLC: 2048
rand_sets[40]: 1340
Assign rand_sets[41]: 852  LLC: 2048
rand_sets[41]: 852
Assign rand_sets[42]: 1365  LLC: 2048
rand_sets[42]: 1365
Assign rand_sets[43]: 47  LLC: 2048
rand_sets[43]: 47
Assign rand_sets[44]: 823  LLC: 2048
rand_sets[44]: 823
Assign rand_sets[45]: 686  LLC: 2048
rand_sets[45]: 686
Assign rand_sets[46]: 1637  LLC: 2048
rand_sets[46]: 1637
Assign rand_sets[47]: 1115  LLC: 2048
rand_sets[47]: 1115
Assign rand_sets[48]: 986  LLC: 2048
rand_sets[48]: 986
Assign rand_sets[49]: 258  LLC: 2048
rand_sets[49]: 258
Assign rand_sets[50]: 633  LLC: 2048
rand_sets[50]: 633
Assign rand_sets[51]: 920  LLC: 2048
rand_sets[51]: 920
Assign rand_sets[52]: 204  LLC: 2048
rand_sets[52]: 204
Assign rand_sets[53]: 227  LLC: 2048
rand_sets[53]: 227
Assign rand_sets[54]: 1818  LLC: 2048
rand_sets[54]: 1818
Assign rand_sets[55]: 886  LLC: 2048
rand_sets[55]: 886
Assign rand_sets[56]: 1422  LLC: 2048
rand_sets[56]: 1422
Assign rand_sets[57]: 607  LLC: 2048
rand_sets[57]: 607
Assign rand_sets[58]: 217  LLC: 2048
rand_sets[58]: 217
Assign rand_sets[59]: 1945  LLC: 2048
rand_sets[59]: 1945
Assign rand_sets[60]: 143  LLC: 2048
rand_sets[60]: 143
Assign rand_sets[61]: 1311  LLC: 2048
rand_sets[61]: 1311
Assign rand_sets[62]: 319  LLC: 2048
rand_sets[62]: 319
Assign rand_sets[63]: 1846  LLC: 2048
rand_sets[63]: 1846
 CLEAN-RRIP-POLICY-1: 2-2-1-3-2-3-0-2- CLEAN-RRIP-POLICY-2: 2-2-1-3-2-3-0-2-
 DIRTY-RRIP-POLICY-1: 1-2-0-3-1-3-0-2- DIRTY-RRIP-POLICY-2: 1-2-0-3-1-3-0-2-
 PSEL width: 10
Heartbeat CPU 0 instructions: 10000002 cycles: 7306837 heartbeat IPC: 1.36858 cumulative IPC: 1.36858 (Simulation time: 0 hr 0 min 23 sec) 
Heartbeat CPU 0 instructions: 20000000 cycles: 14613813 heartbeat IPC: 1.36855 cumulative IPC: 1.36857 (Simulation time: 0 hr 0 min 48 sec) 
Heartbeat CPU 0 instructions: 30000001 cycles: 21920654 heartbeat IPC: 1.36858 cumulative IPC: 1.36857 (Simulation time: 0 hr 1 min 12 sec) 
Heartbeat CPU 0 instructions: 40000000 cycles: 29227411 heartbeat IPC: 1.3686 cumulative IPC: 1.36858 (Simulation time: 0 hr 1 min 36 sec) 
Heartbeat CPU 0 instructions: 50000001 cycles: 36534140 heartbeat IPC: 1.3686 cumulative IPC: 1.36858 (Simulation time: 0 hr 2 min 1 sec) 
Heartbeat CPU 0 instructions: 60000000 cycles: 43841095 heartbeat IPC: 1.36856 cumulative IPC: 1.36858 (Simulation time: 0 hr 2 min 25 sec) 
Heartbeat CPU 0 instructions: 70000002 cycles: 51147855 heartbeat IPC: 1.3686 cumulative IPC: 1.36858 (Simulation time: 0 hr 2 min 50 sec) 
Heartbeat CPU 0 instructions: 80000000 cycles: 58454590 heartbeat IPC: 1.3686 cumulative IPC: 1.36858 (Simulation time: 0 hr 3 min 14 sec) 
Heartbeat CPU 0 instructions: 90000003 cycles: 65765120 heartbeat IPC: 1.36789 cumulative IPC: 1.36851 (Simulation time: 0 hr 3 min 39 sec) 
Heartbeat CPU 0 instructions: 100000000 cycles: 73075764 heartbeat IPC: 1.36787 cumulative IPC: 1.36844 (Simulation time: 0 hr 4 min 4 sec) 

Warmup complete CPU 0 instructions: 100000002 cycles: 73075776 (Simulation time: 0 hr 4 min 4 sec) 

Heartbeat CPU 0 instructions: 110000001 cycles: 85554676 heartbeat IPC: 0.801352 cumulative IPC: 0.801353 (Simulation time: 0 hr 4 min 33 sec) 
Heartbeat CPU 0 instructions: 120000000 cycles: 97984246 heartbeat IPC: 0.804533 cumulative IPC: 0.80294 (Simulation time: 0 hr 5 min 2 sec) 
Heartbeat CPU 0 instructions: 130000000 cycles: 110455775 heartbeat IPC: 0.801826 cumulative IPC: 0.802568 (Simulation time: 0 hr 5 min 32 sec) 
Heartbeat CPU 0 instructions: 140000000 cycles: 122915519 heartbeat IPC: 0.802585 cumulative IPC: 0.802572 (Simulation time: 0 hr 6 min 1 sec) 
Heartbeat CPU 0 instructions: 150000000 cycles: 135327837 heartbeat IPC: 0.805651 cumulative IPC: 0.803186 (Simulation time: 0 hr 6 min 30 sec) 
Heartbeat CPU 0 instructions: 160000000 cycles: 147782617 heartbeat IPC: 0.802905 cumulative IPC: 0.803139 (Simulation time: 0 hr 7 min 0 sec) 
Heartbeat CPU 0 instructions: 170000001 cycles: 160243345 heartbeat IPC: 0.802521 cumulative IPC: 0.803051 (Simulation time: 0 hr 7 min 29 sec) 
Heartbeat CPU 0 instructions: 180000000 cycles: 172701076 heartbeat IPC: 0.802714 cumulative IPC: 0.803009 (Simulation time: 0 hr 7 min 58 sec) 
Heartbeat CPU 0 instructions: 190000000 cycles: 185184293 heartbeat IPC: 0.801076 cumulative IPC: 0.802794 (Simulation time: 0 hr 8 min 28 sec) 
Heartbeat CPU 0 instructions: 200000000 cycles: 197645128 heartbeat IPC: 0.802514 cumulative IPC: 0.802766 (Simulation time: 0 hr 8 min 57 sec) 
Heartbeat CPU 0 instructions: 210000002 cycles: 210134471 heartbeat IPC: 0.800683 cumulative IPC: 0.802576 (Simulation time: 0 hr 9 min 26 sec) 
Heartbeat CPU 0 instructions: 220000000 cycles: 222638689 heartbeat IPC: 0.79973 cumulative IPC: 0.802338 (Simulation time: 0 hr 9 min 56 sec) 
Heartbeat CPU 0 instructions: 230000002 cycles: 235079495 heartbeat IPC: 0.803807 cumulative IPC: 0.802451 (Simulation time: 0 hr 10 min 25 sec) 
Heartbeat CPU 0 instructions: 240000000 cycles: 248265903 heartbeat IPC: 0.758357 cumulative IPC: 0.799132 (Simulation time: 0 hr 10 min 55 sec) 
Heartbeat CPU 0 instructions: 250000002 cycles: 265680523 heartbeat IPC: 0.57423 cumulative IPC: 0.778797 (Simulation time: 0 hr 11 min 27 sec) 
Heartbeat CPU 0 instructions: 260000000 cycles: 283029226 heartbeat IPC: 0.576412 cumulative IPC: 0.762074 (Simulation time: 0 hr 11 min 59 sec) 
Heartbeat CPU 0 instructions: 270000000 cycles: 300437872 heartbeat IPC: 0.574427 cumulative IPC: 0.747706 (Simulation time: 0 hr 12 min 30 sec) 
Heartbeat CPU 0 instructions: 280000000 cycles: 317813863 heartbeat IPC: 0.575507 cumulative IPC: 0.73548 (Simulation time: 0 hr 13 min 1 sec) 
Heartbeat CPU 0 instructions: 290000001 cycles: 346492417 heartbeat IPC: 0.348693 cumulative IPC: 0.69491 (Simulation time: 0 hr 13 min 41 sec) 
Heartbeat CPU 0 instructions: 300000000 cycles: 383555115 heartbeat IPC: 0.269813 cumulative IPC: 0.644165 (Simulation time: 0 hr 14 min 24 sec) 
Heartbeat CPU 0 instructions: 310000000 cycles: 400336182 heartbeat IPC: 0.59591 cumulative IPC: 0.641691 (Simulation time: 0 hr 14 min 55 sec) 
Heartbeat CPU 0 instructions: 320000000 cycles: 417105714 heartbeat IPC: 0.59632 cumulative IPC: 0.639479 (Simulation time: 0 hr 15 min 26 sec) 
Heartbeat CPU 0 instructions: 330000003 cycles: 433892506 heartbeat IPC: 0.595707 cumulative IPC: 0.637443 (Simulation time: 0 hr 15 min 56 sec) 
Heartbeat CPU 0 instructions: 340000000 cycles: 450639424 heartbeat IPC: 0.597125 cumulative IPC: 0.635654 (Simulation time: 0 hr 16 min 26 sec) 
Heartbeat CPU 0 instructions: 350000001 cycles: 465587014 heartbeat IPC: 0.669004 cumulative IPC: 0.636924 (Simulation time: 0 hr 16 min 54 sec) 
Heartbeat CPU 0 instructions: 360000000 cycles: 477486212 heartbeat IPC: 0.840393 cumulative IPC: 0.642911 (Simulation time: 0 hr 17 min 20 sec) 
Heartbeat CPU 0 instructions: 370000002 cycles: 489147863 heartbeat IPC: 0.857512 cumulative IPC: 0.648926 (Simulation time: 0 hr 17 min 46 sec) 
Heartbeat CPU 0 instructions: 380000000 cycles: 501015371 heartbeat IPC: 0.842637 cumulative IPC: 0.654298 (Simulation time: 0 hr 18 min 13 sec) 
Heartbeat CPU 0 instructions: 390000003 cycles: 514346657 heartbeat IPC: 0.750115 cumulative IPC: 0.657193 (Simulation time: 0 hr 18 min 39 sec) 
Heartbeat CPU 0 instructions: 400000000 cycles: 526607069 heartbeat IPC: 0.815633 cumulative IPC: 0.661476 (Simulation time: 0 hr 19 min 6 sec) 
Heartbeat CPU 0 instructions: 410000003 cycles: 538595577 heartbeat IPC: 0.834132 cumulative IPC: 0.665922 (Simulation time: 0 hr 19 min 33 sec) 
Heartbeat CPU 0 instructions: 420000000 cycles: 551455942 heartbeat IPC: 0.777583 cumulative IPC: 0.668924 (Simulation time: 0 hr 19 min 59 sec) 
Heartbeat CPU 0 instructions: 430000003 cycles: 570064463 heartbeat IPC: 0.537388 cumulative IPC: 0.663999 (Simulation time: 0 hr 20 min 23 sec) 
Heartbeat CPU 0 instructions: 440000000 cycles: 588678425 heartbeat IPC: 0.537231 cumulative IPC: 0.659423 (Simulation time: 0 hr 20 min 47 sec) 
Heartbeat CPU 0 instructions: 450000003 cycles: 607325089 heartbeat IPC: 0.536289 cumulative IPC: 0.655125 (Simulation time: 0 hr 21 min 11 sec) 
Heartbeat CPU 0 instructions: 460000000 cycles: 625932392 heartbeat IPC: 0.537423 cumulative IPC: 0.651163 (Simulation time: 0 hr 21 min 35 sec) 
Heartbeat CPU 0 instructions: 470000003 cycles: 644557421 heartbeat IPC: 0.536912 cumulative IPC: 0.64744 (Simulation time: 0 hr 21 min 59 sec) 
Heartbeat CPU 0 instructions: 480000000 cycles: 663206114 heartbeat IPC: 0.53623 cumulative IPC: 0.643926 (Simulation time: 0 hr 22 min 23 sec) 
Heartbeat CPU 0 instructions: 490000003 cycles: 681863336 heartbeat IPC: 0.535986 cumulative IPC: 0.640618 (Simulation time: 0 hr 22 min 47 sec) 
Heartbeat CPU 0 instructions: 500000000 cycles: 700441867 heartbeat IPC: 0.538256 cumulative IPC: 0.637586 (Simulation time: 0 hr 23 min 11 sec) 
Heartbeat CPU 0 instructions: 510000003 cycles: 719069793 heartbeat IPC: 0.536829 cumulative IPC: 0.634681 (Simulation time: 0 hr 23 min 35 sec) 
Heartbeat CPU 0 instructions: 520000000 cycles: 737690165 heartbeat IPC: 0.537046 cumulative IPC: 0.631945 (Simulation time: 0 hr 23 min 59 sec) 
Heartbeat CPU 0 instructions: 530000001 cycles: 756326985 heartbeat IPC: 0.536572 cumulative IPC: 0.629344 (Simulation time: 0 hr 24 min 23 sec) 
Heartbeat CPU 0 instructions: 540000000 cycles: 774883310 heartbeat IPC: 0.5389 cumulative IPC: 0.626953 (Simulation time: 0 hr 24 min 47 sec) 
Heartbeat CPU 0 instructions: 550000001 cycles: 793446361 heartbeat IPC: 0.538705 cumulative IPC: 0.624678 (Simulation time: 0 hr 25 min 11 sec) 
Heartbeat CPU 0 instructions: 560000000 cycles: 812015588 heartbeat IPC: 0.538525 cumulative IPC: 0.622513 (Simulation time: 0 hr 25 min 35 sec) 
Heartbeat CPU 0 instructions: 570000001 cycles: 830581480 heartbeat IPC: 0.538622 cumulative IPC: 0.620457 (Simulation time: 0 hr 26 min 0 sec) 
Heartbeat CPU 0 instructions: 580000000 cycles: 849064907 heartbeat IPC: 0.541025 cumulative IPC: 0.618565 (Simulation time: 0 hr 26 min 23 sec) 
Heartbeat CPU 0 instructions: 590000001 cycles: 867626813 heartbeat IPC: 0.538738 cumulative IPC: 0.6167 (Simulation time: 0 hr 26 min 47 sec) 
Heartbeat CPU 0 instructions: 600000000 cycles: 886199150 heartbeat IPC: 0.538435 cumulative IPC: 0.614913 (Simulation time: 0 hr 27 min 12 sec) 
Finished CPU 0 instructions: 500000002 cycles: 813123388 cumulative IPC: 0.614913 (Simulation time: 0 hr 27 min 12 sec) 

CPU 0 Branch Prediction Accuracy: 99.5931% MPKI: 0.08288
Number of Branches: 10184133 Number of Mispredictions: 41440
Number of LOAD Instructions: 261155957
Number of LOAD Instructions (ROI): 261155957
Number of STORE Instructions: 57884062
Number of STORE Instructions (ROI): 57884062
Total Destination Memory Operands: 83293336
Total Destination Memory Operands (ROI): 83293336
Total Source Memory Operands: 261155957
Total Source Memory Operands (ROI): 261155957
Number of DEPENDED LOADS: 22256397
Number of DEPENDED LOADS (ROI): 22256397
Number of SQ_ADDED: 83293300
Number of SQ_ADDED (ROI): 83293300
Number of LQ_ADDED: 1772589312
Number of LQ_ADDED (ROI): 1772589312
Number of Instructions read from trace: 600000257

ChampSim completed all CPUs

Region of Interest Statistics

CPU 0 cumulative IPC: 0.614913 instructions: 500000002 cycles: 813123388
ITLB TOTAL     ACCESS:   94703827  HIT:   94703789  MISS:         38
ITLB LOAD      ACCESS:   94703827  HIT:   94703789  MISS:         38
ITLB RFO       ACCESS:          0  HIT:          0  MISS:          0
ITLB PREFETCH  ACCESS:          0  HIT:          0  MISS:          0
ITLB WRITEBACK ACCESS:          0  HIT:          0  MISS:          0
ITLB PREFETCH  REQUESTED:          0  ISSUED:          0  USEFUL:          0  USELESS:          0
ITLB TOTAL MSHR MERGED:         93
ITLB LOAD MSHR MERGED:         93
ITLB RFO MSHR MERGED:          0
ITLB PREFETCH MSHR MERGED:          0
ITLB WRITEBACK MSHR MERGED:          0
ITLB TOTAL ACCESSES:   94703920 HITS:   94703789 MISSES:        131
ITLB LOAD ACCESSES:   94703920 HITS:   94703789 MISSES:        131
ITLB RFO ACCESSES:          0 HITS:          0 MISSES:          0
ITLB PREFETCH ACCESSES:          0 HITS:          0 MISSES:          0
ITLB WRITEBACK ACCESSES:          0 HITS:          0 MISSES:          0
ITLB RQ ACCESS:  500000001
ITLB RQ TO_CACHE:   94703921
ITLB RQ MERGED:  405296080
ITLB RQ FORWARD:          0
ITLB WQ ACCESS:          0
ITLB WQ TO_CACHE:          0
ITLB WQ MERGED:          0
ITLB WQ FORWARD:          0
DTLB TOTAL     ACCESS:  149188459  HIT:  148591498  MISS:     596961
DTLB LOAD      ACCESS:  107315153  HIT:  106718203  MISS:     596950
DTLB RFO       ACCESS:   41873306  HIT:   41873295  MISS:         11
DTLB PREFETCH  ACCESS:          0  HIT:          0  MISS:          0
DTLB WRITEBACK ACCESS:          0  HIT:          0  MISS:          0
DTLB PREFETCH  REQUESTED:          0  ISSUED:          0  USEFUL:          0  USELESS:          0
DTLB TOTAL MSHR MERGED:     134126
DTLB LOAD MSHR MERGED:     134126
DTLB RFO MSHR MERGED:          0
DTLB PREFETCH MSHR MERGED:          0
DTLB WRITEBACK MSHR MERGED:          0
DTLB TOTAL ACCESSES:  149322585 HITS:  148591498 MISSES:     731087
DTLB LOAD ACCESSES:  107449279 HITS:  106718203 MISSES:     731076
DTLB RFO ACCESSES:   41873306 HITS:   41873295 MISSES:         11
DTLB PREFETCH ACCESSES:          0 HITS:          0 MISSES:          0
DTLB WRITEBACK ACCESSES:          0 HITS:          0 MISSES:          0
DTLB RQ ACCESS:  259759497
DTLB RQ TO_CACHE:  149322585
DTLB RQ MERGED:  110436912
DTLB RQ FORWARD:          0
DTLB WQ ACCESS:          0
DTLB WQ TO_CACHE:          0
DTLB WQ MERGED:          0
DTLB WQ FORWARD:          0
L1D TOTAL     ACCESS:  261076330  HIT:  245675930  MISS:   15400400
L1D LOAD      ACCESS:  118066963  HIT:  112567333  MISS:    5499630
L1D RFO       ACCESS:   68946723  HIT:   68932317  MISS:      14406
L1D PREFETCH  ACCESS:   74062644  HIT:   64176280  MISS:    9886364
L1D WRITEBACK ACCESS:          0  HIT:          0  MISS:          0
L1D PREFETCH  REQUESTED:  120653034  ISSUED:  119090370  USEFUL:    8012986  USELESS:    1873400
L1D TOTAL MSHR MERGED:   16504794
L1D LOAD MSHR MERGED:    4996247
L1D RFO MSHR MERGED:      21846
L1D PREFETCH MSHR MERGED:   11486701
L1D WRITEBACK MSHR MERGED:          0
L1D TOTAL ACCESSES:  277691338 HITS:  245786144 MISSES:   31905194
L1D LOAD ACCESSES:  120660561 HITS:  112574860 MISSES:    8085701
L1D RFO ACCESSES:   68968569 HITS:   68932317 MISSES:      36252
L1D PREFETCH ACCESSES:   88062208 HITS:   64278967 MISSES:   23783241
L1D WRITEBACK ACCESSES:          0 HITS:          0 MISSES:          0
L1D RQ ACCESS:  190685181
L1D RQ TO_CACHE:  120653034
L1D RQ MERGED:   70024620
L1D RQ FORWARD:          0
L1D WQ ACCESS:   69074336
L1D WQ TO_CACHE:   68968571
L1D WQ MERGED:     105765
L1D WQ FORWARD:     110214
L1I TOTAL     ACCESS:  121609555  HIT:  121608482  MISS:       1073
L1I LOAD      ACCESS:  121609555  HIT:  121608482  MISS:       1073
L1I RFO       ACCESS:          0  HIT:          0  MISS:          0
L1I PREFETCH  ACCESS:          0  HIT:          0  MISS:          0
L1I WRITEBACK ACCESS:          0  HIT:          0  MISS:          0
L1I PREFETCH  REQUESTED:          0  ISSUED:          0  USEFUL:          0  USELESS:          0
L1I TOTAL MSHR MERGED:       1072
L1I LOAD MSHR MERGED:       1072
L1I RFO MSHR MERGED:          0
L1I PREFETCH MSHR MERGED:          0
L1I WRITEBACK MSHR MERGED:          0
L1I TOTAL ACCESSES:  121610627 HITS:  121608482 MISSES:       2145
L1I LOAD ACCESSES:  121610627 HITS:  121608482 MISSES:       2145
L1I RFO ACCESSES:          0 HITS:          0 MISSES:          0
L1I PREFETCH ACCESSES:          0 HITS:          0 MISSES:          0
L1I WRITEBACK ACCESSES:          0 HITS:          0 MISSES:          0
L1I RQ ACCESS:  500000000
L1I RQ TO_CACHE:  121610627
L1I RQ MERGED:  378389373
L1I RQ FORWARD:          0
L1I WQ ACCESS:          0
L1I WQ TO_CACHE:          0
L1I WQ MERGED:          0
L1I WQ FORWARD:          0
L2C TOTAL     ACCESS:   22473545  HIT:    9152335  MISS:   13321210
L2C LOAD      ACCESS:    3090486  HIT:     416783  MISS:    2673703
L2C RFO       ACCESS:      14406  HIT:      13991  MISS:        415
L2C PREFETCH  ACCESS:   12738694  HIT:    2093404  MISS:   10645290
L2C WRITEBACK ACCESS:    6629959  HIT:    6628157  MISS:       1802
L2C PREFETCH  REQUESTED:     694536  ISSUED:     694536  USEFUL:     186412  USELESS:   10459674
L2C TOTAL MSHR MERGED:      71299
L2C LOAD MSHR MERGED:      22426
L2C RFO MSHR MERGED:          0
L2C PREFETCH MSHR MERGED:      48873
L2C WRITEBACK MSHR MERGED:          0
L2C TOTAL ACCESSES:   22686085 HITS:    9152392 MISSES:   13533693
L2C LOAD ACCESSES:    3090527 HITS:     416824 MISSES:    2673703
L2C RFO ACCESSES:      14406 HITS:      13991 MISSES:        415
L2C PREFETCH ACCESSES:   12951193 HITS:    2093420 MISSES:   10857773
L2C WRITEBACK ACCESSES:    6629959 HITS:    6628157 MISSES:       1802
L2C RQ ACCESS:    3104933
L2C RQ TO_CACHE:    3104892
L2C RQ MERGED:          0
L2C RQ FORWARD:          0
L2C WQ ACCESS:    6629959
L2C WQ TO_CACHE:    6629959
L2C WQ MERGED:          0
L2C WQ FORWARD:         57
LLC TOTAL     ACCESS:   20028989  HIT:    1811908  MISS:   18217081
LLC LOAD      ACCESS:    2651276  HIT:     364939  MISS:    2286337
LLC RFO       ACCESS:        415  HIT:         17  MISS:        398
LLC PREFETCH  ACCESS:   10786054  HIT:     101409  MISS:   10684645
LLC WRITEBACK ACCESS:    6591244  HIT:    1345543  MISS:    5245701
LLC PREFETCH  REQUESTED:          0  ISSUED:          0  USEFUL:      46531  USELESS:   10639130
LLC TOTAL MSHR MERGED:      21345
LLC LOAD MSHR MERGED:       9836
LLC RFO MSHR MERGED:          0
LLC PREFETCH MSHR MERGED:      11509
LLC WRITEBACK MSHR MERGED:          0
LLC TOTAL ACCESSES:   20050338 HITS:    1811911 MISSES:   18238427
LLC LOAD ACCESSES:    2651277 HITS:     364940 MISSES:    2286337
LLC RFO ACCESSES:        415 HITS:         17 MISSES:        398
LLC PREFETCH ACCESSES:   10807402 HITS:     101411 MISSES:   10705991
LLC WRITEBACK ACCESSES:    6591244 HITS:    1345543 MISSES:    5245701
LLC 0 RQ ACCESS:    2651692
LLC 0 RQ TO_CACHE:    2651691
LLC 0 RQ MERGED:          0
LLC 0 RQ FORWARD:          0
LLC WQ ACCESS:    6591245
LLC WQ TO_CACHE:    6591245
LLC WQ MERGED:          0
LLC WQ FORWARD:          3
Major fault: 0 Minor fault: 183991
CPU 0 L1D next line prefetcher final stats
CPU 0 L2C PC-based stride prefetcher final stats
All Misses: 21099558
All Hits: 1860477
SD Algo Stats - Switches: 0 SRR-Repls: 2346319 BRR-Repls: 0

DRAM Statistics
 CHANNEL 0
 RQ ROW_BUFFER_HIT:    7205824  ROW_BUFFER_MISS:    5765557
 DBUS_CONGESTED:   11311211
 WQ ROW_BUFFER_HIT:    1008081  ROW_BUFFER_MISS:    5579431  FULL:          0

 AVG_CONGESTED_CYCLE: 13
LOADS RETIRED: 204440772
INSTR RETIRED: 500000000
