
*** ChampSim Multicore Out-of-Order Simulator ***

Warmup Instructions: 100000000
Simulation Instructions: 500000000
Number of CPUs: 1
LLC sets: 2048
LLC ways: 16
Clean RRIP Policies: 122031201220312 Dirty RRIP Policies: 1102032211020322 PSEL Width: 10 Track Set: 4294967295 PSEL Mask: 1 Demote Mask: 4222011342220113DS Algo: 0Window size: 0
Off-chip DRAM Size: 4096 MB Channels: 1 Width: 64-bit Data Rate: 1600 MT/s

CPU 0 runs /mnt/beegfs/iconst01/spec2017/Gcc.trace.gz
NOT SORTED
TRACE STRING: /mnt/beegfs/iconst01/spec2017/Gcc.trace.gz
SORTED
TRACE STRING: /mnt/beegfs/iconst01/spec2017/Gcc.trace.gz
INITIAL
TRACE STRING: /mnt/beegfs/iconst01/spec2017/Gcc.trace.gz

champsim_seed used: 269

CPU 0 L1D next line prefetcher
CPU 0 L2C IP-based stride prefetcher
Initialize DRRIP state
Assign rand_sets[0]: 454  LLC: 2048
rand_sets[0]: 454
Assign rand_sets[1]: 1662  LLC: 2048
rand_sets[1]: 1662
Assign rand_sets[2]: 1921  LLC: 2048
rand_sets[2]: 1921
Assign rand_sets[3]: 1131  LLC: 2048
rand_sets[3]: 1131
Assign rand_sets[4]: 331  LLC: 2048
rand_sets[4]: 331
Assign rand_sets[5]: 1531  LLC: 2048
rand_sets[5]: 1531
Assign rand_sets[6]: 482  LLC: 2048
rand_sets[6]: 482
Assign rand_sets[7]: 1275  LLC: 2048
rand_sets[7]: 1275
Assign rand_sets[8]: 1876  LLC: 2048
rand_sets[8]: 1876
Assign rand_sets[9]: 2038  LLC: 2048
rand_sets[9]: 2038
Assign rand_sets[10]: 701  LLC: 2048
rand_sets[10]: 701
Assign rand_sets[11]: 479  LLC: 2048
rand_sets[11]: 479
Assign rand_sets[12]: 892  LLC: 2048
rand_sets[12]: 892
Assign rand_sets[13]: 1820  LLC: 2048
rand_sets[13]: 1820
Assign rand_sets[14]: 1505  LLC: 2048
rand_sets[14]: 1505
Assign rand_sets[15]: 1159  LLC: 2048
rand_sets[15]: 1159
Assign rand_sets[16]: 513  LLC: 2048
rand_sets[16]: 513
Assign rand_sets[17]: 703  LLC: 2048
rand_sets[17]: 703
Assign rand_sets[18]: 561  LLC: 2048
rand_sets[18]: 561
Assign rand_sets[19]: 990  LLC: 2048
rand_sets[19]: 990
Assign rand_sets[20]: 342  LLC: 2048
rand_sets[20]: 342
Assign rand_sets[21]: 882  LLC: 2048
rand_sets[21]: 882
Assign rand_sets[22]: 15  LLC: 2048
rand_sets[22]: 15
Assign rand_sets[23]: 71  LLC: 2048
rand_sets[23]: 71
Assign rand_sets[24]: 1127  LLC: 2048
rand_sets[24]: 1127
Assign rand_sets[25]: 1382  LLC: 2048
rand_sets[25]: 1382
Assign rand_sets[26]: 647  LLC: 2048
rand_sets[26]: 647
Assign rand_sets[27]: 857  LLC: 2048
rand_sets[27]: 857
Assign rand_sets[28]: 1450  LLC: 2048
rand_sets[28]: 1450
Assign rand_sets[29]: 1160  LLC: 2048
rand_sets[29]: 1160
Assign rand_sets[30]: 1852  LLC: 2048
rand_sets[30]: 1852
Assign rand_sets[31]: 1881  LLC: 2048
rand_sets[31]: 1881
Assign rand_sets[32]: 1770  LLC: 2048
rand_sets[32]: 1770
Assign rand_sets[33]: 1622  LLC: 2048
rand_sets[33]: 1622
Assign rand_sets[34]: 275  LLC: 2048
rand_sets[34]: 275
Assign rand_sets[35]: 635  LLC: 2048
rand_sets[35]: 635
Assign rand_sets[36]: 466  LLC: 2048
rand_sets[36]: 466
Assign rand_sets[37]: 1413  LLC: 2048
rand_sets[37]: 1413
Assign rand_sets[38]: 417  LLC: 2048
rand_sets[38]: 417
Assign rand_sets[39]: 472  LLC: 2048
rand_sets[39]: 472
Assign rand_sets[40]: 1340  LLC: 2048
rand_sets[40]: 1340
Assign rand_sets[41]: 852  LLC: 2048
rand_sets[41]: 852
Assign rand_sets[42]: 1365  LLC: 2048
rand_sets[42]: 1365
Assign rand_sets[43]: 47  LLC: 2048
rand_sets[43]: 47
Assign rand_sets[44]: 823  LLC: 2048
rand_sets[44]: 823
Assign rand_sets[45]: 686  LLC: 2048
rand_sets[45]: 686
Assign rand_sets[46]: 1637  LLC: 2048
rand_sets[46]: 1637
Assign rand_sets[47]: 1115  LLC: 2048
rand_sets[47]: 1115
Assign rand_sets[48]: 986  LLC: 2048
rand_sets[48]: 986
Assign rand_sets[49]: 258  LLC: 2048
rand_sets[49]: 258
Assign rand_sets[50]: 633  LLC: 2048
rand_sets[50]: 633
Assign rand_sets[51]: 920  LLC: 2048
rand_sets[51]: 920
Assign rand_sets[52]: 204  LLC: 2048
rand_sets[52]: 204
Assign rand_sets[53]: 227  LLC: 2048
rand_sets[53]: 227
Assign rand_sets[54]: 1818  LLC: 2048
rand_sets[54]: 1818
Assign rand_sets[55]: 886  LLC: 2048
rand_sets[55]: 886
Assign rand_sets[56]: 1422  LLC: 2048
rand_sets[56]: 1422
Assign rand_sets[57]: 607  LLC: 2048
rand_sets[57]: 607
Assign rand_sets[58]: 217  LLC: 2048
rand_sets[58]: 217
Assign rand_sets[59]: 1945  LLC: 2048
rand_sets[59]: 1945
Assign rand_sets[60]: 143  LLC: 2048
rand_sets[60]: 143
Assign rand_sets[61]: 1311  LLC: 2048
rand_sets[61]: 1311
Assign rand_sets[62]: 319  LLC: 2048
rand_sets[62]: 319
Assign rand_sets[63]: 1846  LLC: 2048
rand_sets[63]: 1846
 CLEAN-RRIP-POLICY-1: 0-1-2-2-0-3-1-2- CLEAN-RRIP-POLICY-2: 0-1-2-2-0-3-1-2-
 DIRTY-RRIP-POLICY-1: 1-1-0-2-0-3-2-2- DIRTY-RRIP-POLICY-2: 1-1-0-2-0-3-2-2-
 PSEL width: 10
Heartbeat CPU 0 instructions: 10000001 cycles: 7315912 heartbeat IPC: 1.36688 cumulative IPC: 1.36688 (Simulation time: 0 hr 0 min 15 sec) 
Heartbeat CPU 0 instructions: 20000000 cycles: 14308475 heartbeat IPC: 1.43009 cumulative IPC: 1.39777 (Simulation time: 0 hr 0 min 30 sec) 
Heartbeat CPU 0 instructions: 30000001 cycles: 21022529 heartbeat IPC: 1.48941 cumulative IPC: 1.42704 (Simulation time: 0 hr 0 min 46 sec) 
Heartbeat CPU 0 instructions: 40000000 cycles: 27483633 heartbeat IPC: 1.54772 cumulative IPC: 1.45541 (Simulation time: 0 hr 1 min 2 sec) 
Heartbeat CPU 0 instructions: 50000001 cycles: 33585689 heartbeat IPC: 1.63879 cumulative IPC: 1.48873 (Simulation time: 0 hr 1 min 18 sec) 
Heartbeat CPU 0 instructions: 60000000 cycles: 40067258 heartbeat IPC: 1.54284 cumulative IPC: 1.49748 (Simulation time: 0 hr 1 min 34 sec) 
Heartbeat CPU 0 instructions: 70000000 cycles: 47108269 heartbeat IPC: 1.42025 cumulative IPC: 1.48594 (Simulation time: 0 hr 1 min 49 sec) 
Heartbeat CPU 0 instructions: 80000000 cycles: 54200914 heartbeat IPC: 1.40991 cumulative IPC: 1.47599 (Simulation time: 0 hr 2 min 4 sec) 
Heartbeat CPU 0 instructions: 90000003 cycles: 61208483 heartbeat IPC: 1.42703 cumulative IPC: 1.47038 (Simulation time: 0 hr 2 min 19 sec) 
Heartbeat CPU 0 instructions: 100000000 cycles: 68378981 heartbeat IPC: 1.3946 cumulative IPC: 1.46244 (Simulation time: 0 hr 2 min 34 sec) 

Warmup complete CPU 0 instructions: 100000004 cycles: 68378982 (Simulation time: 0 hr 2 min 34 sec) 

Heartbeat CPU 0 instructions: 110000003 cycles: 96618066 heartbeat IPC: 0.354119 cumulative IPC: 0.354119 (Simulation time: 0 hr 3 min 3 sec) 
Heartbeat CPU 0 instructions: 120000000 cycles: 124308912 heartbeat IPC: 0.36113 cumulative IPC: 0.35759 (Simulation time: 0 hr 3 min 32 sec) 
Heartbeat CPU 0 instructions: 130000000 cycles: 149483933 heartbeat IPC: 0.397219 cumulative IPC: 0.369891 (Simulation time: 0 hr 4 min 2 sec) 
Heartbeat CPU 0 instructions: 140000000 cycles: 180045997 heartbeat IPC: 0.327203 cumulative IPC: 0.358208 (Simulation time: 0 hr 4 min 31 sec) 
Heartbeat CPU 0 instructions: 150000000 cycles: 210719097 heartbeat IPC: 0.326019 cumulative IPC: 0.351271 (Simulation time: 0 hr 5 min 0 sec) 
Heartbeat CPU 0 instructions: 160000000 cycles: 238399107 heartbeat IPC: 0.361272 cumulative IPC: 0.352899 (Simulation time: 0 hr 5 min 29 sec) 
Heartbeat CPU 0 instructions: 170000001 cycles: 266794491 heartbeat IPC: 0.35217 cumulative IPC: 0.352795 (Simulation time: 0 hr 5 min 59 sec) 
Heartbeat CPU 0 instructions: 180000000 cycles: 295696453 heartbeat IPC: 0.345997 cumulative IPC: 0.351931 (Simulation time: 0 hr 6 min 29 sec) 
Heartbeat CPU 0 instructions: 190000002 cycles: 324236801 heartbeat IPC: 0.350381 cumulative IPC: 0.351758 (Simulation time: 0 hr 6 min 59 sec) 
Heartbeat CPU 0 instructions: 200000000 cycles: 353092621 heartbeat IPC: 0.34655 cumulative IPC: 0.35123 (Simulation time: 0 hr 7 min 28 sec) 
Heartbeat CPU 0 instructions: 210000002 cycles: 381429445 heartbeat IPC: 0.352898 cumulative IPC: 0.351381 (Simulation time: 0 hr 7 min 58 sec) 
Heartbeat CPU 0 instructions: 220000000 cycles: 411820482 heartbeat IPC: 0.329044 cumulative IPC: 0.349404 (Simulation time: 0 hr 8 min 27 sec) 
Heartbeat CPU 0 instructions: 230000000 cycles: 439984042 heartbeat IPC: 0.355069 cumulative IPC: 0.349834 (Simulation time: 0 hr 8 min 55 sec) 
Heartbeat CPU 0 instructions: 240000000 cycles: 466335709 heartbeat IPC: 0.379483 cumulative IPC: 0.351797 (Simulation time: 0 hr 9 min 23 sec) 
Heartbeat CPU 0 instructions: 250000000 cycles: 496982619 heartbeat IPC: 0.326297 cumulative IPC: 0.349974 (Simulation time: 0 hr 9 min 54 sec) 
Heartbeat CPU 0 instructions: 260000000 cycles: 524392129 heartbeat IPC: 0.364837 cumulative IPC: 0.350867 (Simulation time: 0 hr 10 min 23 sec) 
Heartbeat CPU 0 instructions: 270000003 cycles: 553295485 heartbeat IPC: 0.345981 cumulative IPC: 0.350576 (Simulation time: 0 hr 10 min 53 sec) 
Heartbeat CPU 0 instructions: 280000000 cycles: 582067558 heartbeat IPC: 0.347559 cumulative IPC: 0.350407 (Simulation time: 0 hr 11 min 24 sec) 
Heartbeat CPU 0 instructions: 290000000 cycles: 611499292 heartbeat IPC: 0.339769 cumulative IPC: 0.34983 (Simulation time: 0 hr 11 min 54 sec) 
Heartbeat CPU 0 instructions: 300000000 cycles: 642803429 heartbeat IPC: 0.319447 cumulative IPC: 0.348175 (Simulation time: 0 hr 12 min 24 sec) 
Heartbeat CPU 0 instructions: 310000001 cycles: 673184621 heartbeat IPC: 0.329151 cumulative IPC: 0.347219 (Simulation time: 0 hr 12 min 53 sec) 
Heartbeat CPU 0 instructions: 320000000 cycles: 702519915 heartbeat IPC: 0.340886 cumulative IPC: 0.346926 (Simulation time: 0 hr 13 min 22 sec) 
Heartbeat CPU 0 instructions: 330000000 cycles: 732024404 heartbeat IPC: 0.338931 cumulative IPC: 0.346571 (Simulation time: 0 hr 13 min 52 sec) 
Heartbeat CPU 0 instructions: 340000000 cycles: 762325375 heartbeat IPC: 0.330022 cumulative IPC: 0.345848 (Simulation time: 0 hr 14 min 21 sec) 
Heartbeat CPU 0 instructions: 350000003 cycles: 789970060 heartbeat IPC: 0.361733 cumulative IPC: 0.346457 (Simulation time: 0 hr 14 min 50 sec) 
Heartbeat CPU 0 instructions: 360000000 cycles: 820538335 heartbeat IPC: 0.327136 cumulative IPC: 0.345671 (Simulation time: 0 hr 15 min 19 sec) 
Heartbeat CPU 0 instructions: 370000000 cycles: 850915408 heartbeat IPC: 0.329196 cumulative IPC: 0.345032 (Simulation time: 0 hr 15 min 48 sec) 
Heartbeat CPU 0 instructions: 380000000 cycles: 881510912 heartbeat IPC: 0.326845 cumulative IPC: 0.344348 (Simulation time: 0 hr 16 min 16 sec) 
Heartbeat CPU 0 instructions: 390000001 cycles: 910958835 heartbeat IPC: 0.339583 cumulative IPC: 0.344181 (Simulation time: 0 hr 16 min 45 sec) 
Heartbeat CPU 0 instructions: 400000000 cycles: 941502158 heartbeat IPC: 0.327404 cumulative IPC: 0.343594 (Simulation time: 0 hr 17 min 14 sec) 
Heartbeat CPU 0 instructions: 410000001 cycles: 970401571 heartbeat IPC: 0.346028 cumulative IPC: 0.343672 (Simulation time: 0 hr 17 min 42 sec) 
Heartbeat CPU 0 instructions: 420000000 cycles: 999145150 heartbeat IPC: 0.347904 cumulative IPC: 0.343803 (Simulation time: 0 hr 18 min 10 sec) 
Heartbeat CPU 0 instructions: 430000002 cycles: 1028407802 heartbeat IPC: 0.341733 cumulative IPC: 0.34374 (Simulation time: 0 hr 18 min 39 sec) 
Heartbeat CPU 0 instructions: 440000000 cycles: 1059693093 heartbeat IPC: 0.319639 cumulative IPC: 0.342979 (Simulation time: 0 hr 19 min 8 sec) 
Heartbeat CPU 0 instructions: 450000002 cycles: 1090770137 heartbeat IPC: 0.321781 cumulative IPC: 0.342335 (Simulation time: 0 hr 19 min 37 sec) 
Heartbeat CPU 0 instructions: 460000000 cycles: 1120022665 heartbeat IPC: 0.341851 cumulative IPC: 0.342321 (Simulation time: 0 hr 20 min 5 sec) 
Heartbeat CPU 0 instructions: 470000000 cycles: 1148890926 heartbeat IPC: 0.346401 cumulative IPC: 0.34243 (Simulation time: 0 hr 20 min 34 sec) 
Heartbeat CPU 0 instructions: 480000000 cycles: 1177963157 heartbeat IPC: 0.343971 cumulative IPC: 0.342471 (Simulation time: 0 hr 21 min 2 sec) 
Heartbeat CPU 0 instructions: 490000000 cycles: 1206697566 heartbeat IPC: 0.348015 cumulative IPC: 0.342611 (Simulation time: 0 hr 21 min 30 sec) 
Heartbeat CPU 0 instructions: 500000000 cycles: 1236065979 heartbeat IPC: 0.340502 cumulative IPC: 0.342558 (Simulation time: 0 hr 21 min 59 sec) 
Heartbeat CPU 0 instructions: 510000000 cycles: 1271309398 heartbeat IPC: 0.283741 cumulative IPC: 0.340834 (Simulation time: 0 hr 22 min 30 sec) 
Heartbeat CPU 0 instructions: 520000000 cycles: 1300094277 heartbeat IPC: 0.347405 cumulative IPC: 0.340988 (Simulation time: 0 hr 23 min 0 sec) 
Heartbeat CPU 0 instructions: 530000001 cycles: 1331494379 heartbeat IPC: 0.31847 cumulative IPC: 0.340428 (Simulation time: 0 hr 23 min 30 sec) 
Heartbeat CPU 0 instructions: 540000000 cycles: 1361061832 heartbeat IPC: 0.33821 cumulative IPC: 0.340377 (Simulation time: 0 hr 23 min 59 sec) 
Heartbeat CPU 0 instructions: 550000001 cycles: 1390962412 heartbeat IPC: 0.334442 cumulative IPC: 0.340243 (Simulation time: 0 hr 24 min 30 sec) 
Heartbeat CPU 0 instructions: 560000000 cycles: 1416939413 heartbeat IPC: 0.384956 cumulative IPC: 0.341104 (Simulation time: 0 hr 24 min 58 sec) 
Heartbeat CPU 0 instructions: 570000000 cycles: 1448147447 heartbeat IPC: 0.32043 cumulative IPC: 0.340637 (Simulation time: 0 hr 25 min 28 sec) 
Heartbeat CPU 0 instructions: 580000000 cycles: 1477325781 heartbeat IPC: 0.34272 cumulative IPC: 0.34068 (Simulation time: 0 hr 25 min 58 sec) 
Heartbeat CPU 0 instructions: 590000001 cycles: 1502716416 heartbeat IPC: 0.393846 cumulative IPC: 0.341621 (Simulation time: 0 hr 26 min 26 sec) 
Heartbeat CPU 0 instructions: 600000000 cycles: 1530093823 heartbeat IPC: 0.365265 cumulative IPC: 0.342064 (Simulation time: 0 hr 26 min 54 sec) 
Finished CPU 0 instructions: 500000000 cycles: 1461714863 cumulative IPC: 0.342064 (Simulation time: 0 hr 26 min 54 sec) 

CPU 0 Branch Prediction Accuracy: 86.4311% MPKI: 26.2662
Number of Branches: 96788573 Number of Mispredictions: 13133102
Number of LOAD Instructions: 164682285
Number of LOAD Instructions (ROI): 164682285
Number of STORE Instructions: 78194750
Number of STORE Instructions (ROI): 78194750
Total Destination Memory Operands: 83268534
Total Destination Memory Operands (ROI): 83268534
Total Source Memory Operands: 164712438
Total Source Memory Operands (ROI): 164712438
Number of DEPENDED LOADS: 7052636
Number of DEPENDED LOADS (ROI): 7052636
Number of SQ_ADDED: 83268522
Number of SQ_ADDED (ROI): 83268522
Number of LQ_ADDED: 236754686
Number of LQ_ADDED (ROI): 236754686
Number of Instructions read from trace: 600000066

ChampSim completed all CPUs

Region of Interest Statistics

CPU 0 cumulative IPC: 0.342064 instructions: 500000000 cycles: 1461714863
ITLB TOTAL     ACCESS:  100532089  HIT:  100327643  MISS:     204446
ITLB LOAD      ACCESS:  100532089  HIT:  100327643  MISS:     204446
ITLB RFO       ACCESS:          0  HIT:          0  MISS:          0
ITLB PREFETCH  ACCESS:          0  HIT:          0  MISS:          0
ITLB WRITEBACK ACCESS:          0  HIT:          0  MISS:          0
ITLB PREFETCH  REQUESTED:          0  ISSUED:          0  USEFUL:          0  USELESS:          0
ITLB TOTAL MSHR MERGED:     172422
ITLB LOAD MSHR MERGED:     172422
ITLB RFO MSHR MERGED:          0
ITLB PREFETCH MSHR MERGED:          0
ITLB WRITEBACK MSHR MERGED:          0
ITLB TOTAL ACCESSES:  100704511 HITS:  100327643 MISSES:     376868
ITLB LOAD ACCESSES:  100704511 HITS:  100327643 MISSES:     376868
ITLB RFO ACCESSES:          0 HITS:          0 MISSES:          0
ITLB PREFETCH ACCESSES:          0 HITS:          0 MISSES:          0
ITLB WRITEBACK ACCESSES:          0 HITS:          0 MISSES:          0
ITLB RQ ACCESS:  500000057
ITLB RQ TO_CACHE:  100704511
ITLB RQ MERGED:  399295546
ITLB RQ FORWARD:          0
ITLB WQ ACCESS:          0
ITLB WQ TO_CACHE:          0
ITLB WQ MERGED:          0
ITLB WQ FORWARD:          0
DTLB TOTAL     ACCESS:  165356174  HIT:  164721825  MISS:     634349
DTLB LOAD      ACCESS:  106305621  HIT:  105735654  MISS:     569967
DTLB RFO       ACCESS:   59050553  HIT:   58986171  MISS:      64382
DTLB PREFETCH  ACCESS:          0  HIT:          0  MISS:          0
DTLB WRITEBACK ACCESS:          0  HIT:          0  MISS:          0
DTLB PREFETCH  REQUESTED:          0  ISSUED:          0  USEFUL:          0  USELESS:          0
DTLB TOTAL MSHR MERGED:      99568
DTLB LOAD MSHR MERGED:      59208
DTLB RFO MSHR MERGED:      40360
DTLB PREFETCH MSHR MERGED:          0
DTLB WRITEBACK MSHR MERGED:          0
DTLB TOTAL ACCESSES:  165455742 HITS:  164721825 MISSES:     733917
DTLB LOAD ACCESSES:  106364829 HITS:  105735654 MISSES:     629175
DTLB RFO ACCESSES:   59090913 HITS:   58986171 MISSES:     104742
DTLB PREFETCH ACCESSES:          0 HITS:          0 MISSES:          0
DTLB WRITEBACK ACCESSES:          0 HITS:          0 MISSES:          0
DTLB RQ ACCESS:  200318250
DTLB RQ TO_CACHE:  165455742
DTLB RQ MERGED:   34862508
DTLB RQ FORWARD:          0
DTLB WQ ACCESS:          0
DTLB WQ TO_CACHE:          0
DTLB WQ MERGED:          0
DTLB WQ FORWARD:          0
L1D TOTAL     ACCESS:  281882145  HIT:  273972729  MISS:    7909416
L1D LOAD      ACCESS:  110437214  HIT:  107158071  MISS:    3279143
L1D RFO       ACCESS:   67135435  HIT:   66245512  MISS:     889923
L1D PREFETCH  ACCESS:  104309496  HIT:  100569146  MISS:    3740350
L1D WRITEBACK ACCESS:          0  HIT:          0  MISS:          0
L1D PREFETCH  REQUESTED:  110834544  ISSUED:  109135096  USEFUL:    1660893  USELESS:    2079421
L1D TOTAL MSHR MERGED:    2862391
L1D LOAD MSHR MERGED:     496421
L1D RFO MSHR MERGED:    1849547
L1D PREFETCH MSHR MERGED:     516423
L1D WRITEBACK MSHR MERGED:          0
L1D TOTAL ACCESSES:  284771952 HITS:  274000145 MISSES:   10771807
L1D LOAD ACCESSES:  110835986 HITS:  107159513 MISSES:    3676473
L1D RFO ACCESSES:   68973819 HITS:   66245512 MISSES:    2728307
L1D PREFETCH ACCESSES:  104962147 HITS:  100595120 MISSES:    4367027
L1D WRITEBACK ACCESSES:          0 HITS:          0 MISSES:          0
L1D RQ ACCESS:  130765647
L1D RQ TO_CACHE:  110834547
L1D RQ MERGED:   19929658
L1D RQ FORWARD:          0
L1D WQ ACCESS:   69552603
L1D WQ TO_CACHE:   68973820
L1D WQ MERGED:     578783
L1D WQ FORWARD:      27416
L1I TOTAL     ACCESS:  126576374  HIT:  122337839  MISS:    4238535
L1I LOAD      ACCESS:  126576374  HIT:  122337839  MISS:    4238535
L1I RFO       ACCESS:          0  HIT:          0  MISS:          0
L1I PREFETCH  ACCESS:          0  HIT:          0  MISS:          0
L1I WRITEBACK ACCESS:          0  HIT:          0  MISS:          0
L1I PREFETCH  REQUESTED:          0  ISSUED:          0  USEFUL:          0  USELESS:          0
L1I TOTAL MSHR MERGED:    1837806
L1I LOAD MSHR MERGED:    1837806
L1I RFO MSHR MERGED:          0
L1I PREFETCH MSHR MERGED:          0
L1I WRITEBACK MSHR MERGED:          0
L1I TOTAL ACCESSES:  128414183 HITS:  122337839 MISSES:    6076344
L1I LOAD ACCESSES:  128414183 HITS:  122337839 MISSES:    6076344
L1I RFO ACCESSES:          0 HITS:          0 MISSES:          0
L1I PREFETCH ACCESSES:          0 HITS:          0 MISSES:          0
L1I WRITEBACK ACCESSES:          0 HITS:          0 MISSES:          0
L1I RQ ACCESS:  500000057
L1I RQ TO_CACHE:  128414183
L1I RQ MERGED:  371585874
L1I RQ FORWARD:          0
L1I WQ ACCESS:          0
L1I WQ TO_CACHE:          0
L1I WQ MERGED:          0
L1I WQ FORWARD:          0
L2C TOTAL     ACCESS:   14905933  HIT:   11159489  MISS:    3746444
L2C LOAD      ACCESS:    7418379  HIT:    5098811  MISS:    2319568
L2C RFO       ACCESS:     878665  HIT:     409913  MISS:     468752
L2C PREFETCH  ACCESS:    4569648  HIT:    3628784  MISS:     940864
L2C WRITEBACK ACCESS:    2039241  HIT:    2021981  MISS:      17260
L2C PREFETCH  REQUESTED:     842624  ISSUED:     842624  USEFUL:     203616  USELESS:     736954
L2C TOTAL MSHR MERGED:       6268
L2C LOAD MSHR MERGED:        566
L2C RFO MSHR MERGED:          1
L2C PREFETCH MSHR MERGED:       5701
L2C WRITEBACK MSHR MERGED:          0
L2C TOTAL ACCESSES:   14913104 HITS:   11159934 MISSES:    3753170
L2C LOAD ACCESSES:    7418587 HITS:    5099019 MISSES:    2319568
L2C RFO ACCESSES:     878760 HITS:     410008 MISSES:     468752
L2C PREFETCH ACCESSES:    4576516 HITS:    3628926 MISSES:     947590
L2C WRITEBACK ACCESSES:    2039241 HITS:    2021981 MISSES:      17260
L2C RQ ACCESS:    8297350
L2C RQ TO_CACHE:    8297047
L2C RQ MERGED:          0
L2C RQ FORWARD:          0
L2C WQ ACCESS:    2039241
L2C WQ TO_CACHE:    2039241
L2C WQ MERGED:          0
L2C WQ FORWARD:        445
LLC TOTAL     ACCESS:    4609778  HIT:    3413157  MISS:    1196621
LLC LOAD      ACCESS:    2318989  HIT:    1593557  MISS:     725432
LLC RFO       ACCESS:     468741  HIT:     424659  MISS:      44082
LLC PREFETCH  ACCESS:     941765  HIT:     595625  MISS:     346140
LLC WRITEBACK ACCESS:     880283  HIT:     799316  MISS:      80967
LLC PREFETCH  REQUESTED:          0  ISSUED:          0  USEFUL:      17354  USELESS:     328289
LLC TOTAL MSHR MERGED:        102
LLC LOAD MSHR MERGED:         29
LLC RFO MSHR MERGED:          0
LLC PREFETCH MSHR MERGED:         73
LLC WRITEBACK MSHR MERGED:          0
LLC TOTAL ACCESSES:    4609914 HITS:    3413191 MISSES:    1196723
LLC LOAD ACCESSES:    2319002 HITS:    1593570 MISSES:     725432
LLC RFO ACCESSES:     468751 HITS:     424669 MISSES:      44082
LLC PREFETCH ACCESSES:     941878 HITS:     595636 MISSES:     346242
LLC WRITEBACK ACCESSES:     880283 HITS:     799316 MISSES:      80967
LLC 0 RQ ACCESS:    2787753
LLC 0 RQ TO_CACHE:    2787730
LLC 0 RQ MERGED:          0
LLC 0 RQ FORWARD:          0
LLC WQ ACCESS:     880283
LLC WQ TO_CACHE:     880283
LLC WQ MERGED:          0
LLC WQ FORWARD:         34
Major fault: 0 Minor fault: 12862
CPU 0 L1D next line prefetcher final stats
CPU 0 L2C PC-based stride prefetcher final stats
All Misses: 1341303
All Hits: 4085481
SD Algo Stats - Switches: 0 SRR-Repls: 783201 BRR-Repls: 0

DRAM Statistics
 CHANNEL 0
 RQ ROW_BUFFER_HIT:     280024  ROW_BUFFER_MISS:     833567
 DBUS_CONGESTED:     390327
 WQ ROW_BUFFER_HIT:       7274  ROW_BUFFER_MISS:     142211  FULL:          0

 AVG_CONGESTED_CYCLE: 13
LOADS RETIRED: 136549171
INSTR RETIRED: 500000000
