
*** ChampSim Multicore Out-of-Order Simulator ***

Warmup Instructions: 100000000
Simulation Instructions: 500000000
Number of CPUs: 1
LLC sets: 2048
LLC ways: 16
Clean RRIP Policies: 311222303112223 Dirty RRIP Policies: 2301022323010223 PSEL Width: 10 Track Set: 4294967295 PSEL Mask: 1 Demote Mask: 3012303030123030DS Algo: 0Window size: 0
Off-chip DRAM Size: 4096 MB Channels: 1 Width: 64-bit Data Rate: 1600 MT/s

CPU 0 runs /mnt/beegfs/iconst01/spec2017/Perlbench.trace.gz
NOT SORTED
TRACE STRING: /mnt/beegfs/iconst01/spec2017/Perlbench.trace.gz
SORTED
TRACE STRING: /mnt/beegfs/iconst01/spec2017/Perlbench.trace.gz
INITIAL
TRACE STRING: /mnt/beegfs/iconst01/spec2017/Perlbench.trace.gz

champsim_seed used: 915

CPU 0 L1D next line prefetcher
CPU 0 L2C IP-based stride prefetcher
Initialize DRRIP state
Assign rand_sets[0]: 454  LLC: 2048
rand_sets[0]: 454
Assign rand_sets[1]: 1662  LLC: 2048
rand_sets[1]: 1662
Assign rand_sets[2]: 1921  LLC: 2048
rand_sets[2]: 1921
Assign rand_sets[3]: 1131  LLC: 2048
rand_sets[3]: 1131
Assign rand_sets[4]: 331  LLC: 2048
rand_sets[4]: 331
Assign rand_sets[5]: 1531  LLC: 2048
rand_sets[5]: 1531
Assign rand_sets[6]: 482  LLC: 2048
rand_sets[6]: 482
Assign rand_sets[7]: 1275  LLC: 2048
rand_sets[7]: 1275
Assign rand_sets[8]: 1876  LLC: 2048
rand_sets[8]: 1876
Assign rand_sets[9]: 2038  LLC: 2048
rand_sets[9]: 2038
Assign rand_sets[10]: 701  LLC: 2048
rand_sets[10]: 701
Assign rand_sets[11]: 479  LLC: 2048
rand_sets[11]: 479
Assign rand_sets[12]: 892  LLC: 2048
rand_sets[12]: 892
Assign rand_sets[13]: 1820  LLC: 2048
rand_sets[13]: 1820
Assign rand_sets[14]: 1505  LLC: 2048
rand_sets[14]: 1505
Assign rand_sets[15]: 1159  LLC: 2048
rand_sets[15]: 1159
Assign rand_sets[16]: 513  LLC: 2048
rand_sets[16]: 513
Assign rand_sets[17]: 703  LLC: 2048
rand_sets[17]: 703
Assign rand_sets[18]: 561  LLC: 2048
rand_sets[18]: 561
Assign rand_sets[19]: 990  LLC: 2048
rand_sets[19]: 990
Assign rand_sets[20]: 342  LLC: 2048
rand_sets[20]: 342
Assign rand_sets[21]: 882  LLC: 2048
rand_sets[21]: 882
Assign rand_sets[22]: 15  LLC: 2048
rand_sets[22]: 15
Assign rand_sets[23]: 71  LLC: 2048
rand_sets[23]: 71
Assign rand_sets[24]: 1127  LLC: 2048
rand_sets[24]: 1127
Assign rand_sets[25]: 1382  LLC: 2048
rand_sets[25]: 1382
Assign rand_sets[26]: 647  LLC: 2048
rand_sets[26]: 647
Assign rand_sets[27]: 857  LLC: 2048
rand_sets[27]: 857
Assign rand_sets[28]: 1450  LLC: 2048
rand_sets[28]: 1450
Assign rand_sets[29]: 1160  LLC: 2048
rand_sets[29]: 1160
Assign rand_sets[30]: 1852  LLC: 2048
rand_sets[30]: 1852
Assign rand_sets[31]: 1881  LLC: 2048
rand_sets[31]: 1881
Assign rand_sets[32]: 1770  LLC: 2048
rand_sets[32]: 1770
Assign rand_sets[33]: 1622  LLC: 2048
rand_sets[33]: 1622
Assign rand_sets[34]: 275  LLC: 2048
rand_sets[34]: 275
Assign rand_sets[35]: 635  LLC: 2048
rand_sets[35]: 635
Assign rand_sets[36]: 466  LLC: 2048
rand_sets[36]: 466
Assign rand_sets[37]: 1413  LLC: 2048
rand_sets[37]: 1413
Assign rand_sets[38]: 417  LLC: 2048
rand_sets[38]: 417
Assign rand_sets[39]: 472  LLC: 2048
rand_sets[39]: 472
Assign rand_sets[40]: 1340  LLC: 2048
rand_sets[40]: 1340
Assign rand_sets[41]: 852  LLC: 2048
rand_sets[41]: 852
Assign rand_sets[42]: 1365  LLC: 2048
rand_sets[42]: 1365
Assign rand_sets[43]: 47  LLC: 2048
rand_sets[43]: 47
Assign rand_sets[44]: 823  LLC: 2048
rand_sets[44]: 823
Assign rand_sets[45]: 686  LLC: 2048
rand_sets[45]: 686
Assign rand_sets[46]: 1637  LLC: 2048
rand_sets[46]: 1637
Assign rand_sets[47]: 1115  LLC: 2048
rand_sets[47]: 1115
Assign rand_sets[48]: 986  LLC: 2048
rand_sets[48]: 986
Assign rand_sets[49]: 258  LLC: 2048
rand_sets[49]: 258
Assign rand_sets[50]: 633  LLC: 2048
rand_sets[50]: 633
Assign rand_sets[51]: 920  LLC: 2048
rand_sets[51]: 920
Assign rand_sets[52]: 204  LLC: 2048
rand_sets[52]: 204
Assign rand_sets[53]: 227  LLC: 2048
rand_sets[53]: 227
Assign rand_sets[54]: 1818  LLC: 2048
rand_sets[54]: 1818
Assign rand_sets[55]: 886  LLC: 2048
rand_sets[55]: 886
Assign rand_sets[56]: 1422  LLC: 2048
rand_sets[56]: 1422
Assign rand_sets[57]: 607  LLC: 2048
rand_sets[57]: 607
Assign rand_sets[58]: 217  LLC: 2048
rand_sets[58]: 217
Assign rand_sets[59]: 1945  LLC: 2048
rand_sets[59]: 1945
Assign rand_sets[60]: 143  LLC: 2048
rand_sets[60]: 143
Assign rand_sets[61]: 1311  LLC: 2048
rand_sets[61]: 1311
Assign rand_sets[62]: 319  LLC: 2048
rand_sets[62]: 319
Assign rand_sets[63]: 1846  LLC: 2048
rand_sets[63]: 1846
 CLEAN-RRIP-POLICY-1: 0-3-1-1-2-2-2-3- CLEAN-RRIP-POLICY-2: 0-3-1-1-2-2-2-3-
 DIRTY-RRIP-POLICY-1: 2-3-0-1-0-2-2-3- DIRTY-RRIP-POLICY-2: 2-3-0-1-0-2-2-3-
 PSEL width: 10
Heartbeat CPU 0 instructions: 10000002 cycles: 6446171 heartbeat IPC: 1.55131 cumulative IPC: 1.55131 (Simulation time: 0 hr 0 min 19 sec) 
Heartbeat CPU 0 instructions: 20000000 cycles: 12853328 heartbeat IPC: 1.56075 cumulative IPC: 1.55602 (Simulation time: 0 hr 0 min 38 sec) 
Heartbeat CPU 0 instructions: 30000002 cycles: 19134160 heartbeat IPC: 1.59215 cumulative IPC: 1.56788 (Simulation time: 0 hr 0 min 57 sec) 
Heartbeat CPU 0 instructions: 40000000 cycles: 25464499 heartbeat IPC: 1.57969 cumulative IPC: 1.57081 (Simulation time: 0 hr 1 min 16 sec) 
Heartbeat CPU 0 instructions: 50000000 cycles: 31805192 heartbeat IPC: 1.57711 cumulative IPC: 1.57207 (Simulation time: 0 hr 1 min 35 sec) 
Heartbeat CPU 0 instructions: 60000000 cycles: 38207379 heartbeat IPC: 1.56197 cumulative IPC: 1.57038 (Simulation time: 0 hr 1 min 54 sec) 
Heartbeat CPU 0 instructions: 70000002 cycles: 44415652 heartbeat IPC: 1.61075 cumulative IPC: 1.57602 (Simulation time: 0 hr 2 min 13 sec) 
Heartbeat CPU 0 instructions: 80000000 cycles: 50680136 heartbeat IPC: 1.5963 cumulative IPC: 1.57853 (Simulation time: 0 hr 2 min 32 sec) 
Heartbeat CPU 0 instructions: 90000003 cycles: 56971137 heartbeat IPC: 1.58957 cumulative IPC: 1.57975 (Simulation time: 0 hr 2 min 51 sec) 
Heartbeat CPU 0 instructions: 100000000 cycles: 63354011 heartbeat IPC: 1.56669 cumulative IPC: 1.57843 (Simulation time: 0 hr 3 min 11 sec) 

Warmup complete CPU 0 instructions: 100000001 cycles: 63354012 (Simulation time: 0 hr 3 min 11 sec) 

Heartbeat CPU 0 instructions: 110000000 cycles: 85597876 heartbeat IPC: 0.449562 cumulative IPC: 0.449562 (Simulation time: 0 hr 3 min 42 sec) 
Heartbeat CPU 0 instructions: 120000000 cycles: 107744245 heartbeat IPC: 0.451541 cumulative IPC: 0.45055 (Simulation time: 0 hr 4 min 14 sec) 
Heartbeat CPU 0 instructions: 130000002 cycles: 129820258 heartbeat IPC: 0.45298 cumulative IPC: 0.451357 (Simulation time: 0 hr 4 min 45 sec) 
Heartbeat CPU 0 instructions: 140000000 cycles: 152158544 heartbeat IPC: 0.447662 cumulative IPC: 0.450427 (Simulation time: 0 hr 5 min 17 sec) 
Heartbeat CPU 0 instructions: 150000001 cycles: 174807476 heartbeat IPC: 0.441522 cumulative IPC: 0.448618 (Simulation time: 0 hr 5 min 48 sec) 
Heartbeat CPU 0 instructions: 160000000 cycles: 197199943 heartbeat IPC: 0.446579 cumulative IPC: 0.448277 (Simulation time: 0 hr 6 min 20 sec) 
Heartbeat CPU 0 instructions: 170000001 cycles: 219282711 heartbeat IPC: 0.452842 cumulative IPC: 0.448923 (Simulation time: 0 hr 6 min 51 sec) 
Heartbeat CPU 0 instructions: 180000000 cycles: 242112043 heartbeat IPC: 0.438033 cumulative IPC: 0.447532 (Simulation time: 0 hr 7 min 23 sec) 
Heartbeat CPU 0 instructions: 190000001 cycles: 264024508 heartbeat IPC: 0.456361 cumulative IPC: 0.448496 (Simulation time: 0 hr 7 min 54 sec) 
Heartbeat CPU 0 instructions: 200000000 cycles: 286594757 heartbeat IPC: 0.443061 cumulative IPC: 0.447947 (Simulation time: 0 hr 8 min 26 sec) 
Heartbeat CPU 0 instructions: 210000001 cycles: 309950493 heartbeat IPC: 0.42816 cumulative IPC: 0.446073 (Simulation time: 0 hr 8 min 59 sec) 
Heartbeat CPU 0 instructions: 220000000 cycles: 332962172 heartbeat IPC: 0.434562 cumulative IPC: 0.44509 (Simulation time: 0 hr 9 min 30 sec) 
Heartbeat CPU 0 instructions: 230000001 cycles: 354895546 heartbeat IPC: 0.455926 cumulative IPC: 0.445906 (Simulation time: 0 hr 10 min 2 sec) 
Heartbeat CPU 0 instructions: 240000000 cycles: 376810395 heartbeat IPC: 0.456312 cumulative IPC: 0.446633 (Simulation time: 0 hr 10 min 33 sec) 
Heartbeat CPU 0 instructions: 250000002 cycles: 399427086 heartbeat IPC: 0.442151 cumulative IPC: 0.446332 (Simulation time: 0 hr 11 min 5 sec) 
Heartbeat CPU 0 instructions: 260000000 cycles: 422323230 heartbeat IPC: 0.436755 cumulative IPC: 0.445721 (Simulation time: 0 hr 11 min 37 sec) 
Heartbeat CPU 0 instructions: 270000000 cycles: 445101076 heartbeat IPC: 0.439023 cumulative IPC: 0.445321 (Simulation time: 0 hr 12 min 8 sec) 
Heartbeat CPU 0 instructions: 280000000 cycles: 466873735 heartbeat IPC: 0.459292 cumulative IPC: 0.446075 (Simulation time: 0 hr 12 min 39 sec) 
Heartbeat CPU 0 instructions: 290000000 cycles: 489750539 heartbeat IPC: 0.437124 cumulative IPC: 0.445595 (Simulation time: 0 hr 13 min 11 sec) 
Heartbeat CPU 0 instructions: 300000000 cycles: 512505334 heartbeat IPC: 0.439468 cumulative IPC: 0.445284 (Simulation time: 0 hr 13 min 42 sec) 
Heartbeat CPU 0 instructions: 310000000 cycles: 534377037 heartbeat IPC: 0.457212 cumulative IPC: 0.445838 (Simulation time: 0 hr 14 min 13 sec) 
Heartbeat CPU 0 instructions: 320000000 cycles: 557796648 heartbeat IPC: 0.426993 cumulative IPC: 0.444945 (Simulation time: 0 hr 14 min 45 sec) 
Heartbeat CPU 0 instructions: 330000000 cycles: 579520027 heartbeat IPC: 0.460334 cumulative IPC: 0.445593 (Simulation time: 0 hr 15 min 16 sec) 
Heartbeat CPU 0 instructions: 340000000 cycles: 602547579 heartbeat IPC: 0.434262 cumulative IPC: 0.445109 (Simulation time: 0 hr 15 min 47 sec) 
Heartbeat CPU 0 instructions: 350000000 cycles: 624783669 heartbeat IPC: 0.449719 cumulative IPC: 0.445292 (Simulation time: 0 hr 16 min 18 sec) 
Heartbeat CPU 0 instructions: 360000000 cycles: 646804253 heartbeat IPC: 0.454121 cumulative IPC: 0.445625 (Simulation time: 0 hr 16 min 49 sec) 
Heartbeat CPU 0 instructions: 370000003 cycles: 669562665 heartbeat IPC: 0.439398 cumulative IPC: 0.445391 (Simulation time: 0 hr 17 min 20 sec) 
Heartbeat CPU 0 instructions: 380000000 cycles: 692253893 heartbeat IPC: 0.440699 cumulative IPC: 0.445222 (Simulation time: 0 hr 17 min 51 sec) 
Heartbeat CPU 0 instructions: 390000000 cycles: 715099754 heartbeat IPC: 0.437716 cumulative IPC: 0.444959 (Simulation time: 0 hr 18 min 23 sec) 
Heartbeat CPU 0 instructions: 400000000 cycles: 737597106 heartbeat IPC: 0.444497 cumulative IPC: 0.444943 (Simulation time: 0 hr 18 min 54 sec) 
Heartbeat CPU 0 instructions: 410000002 cycles: 760305973 heartbeat IPC: 0.440357 cumulative IPC: 0.444794 (Simulation time: 0 hr 19 min 25 sec) 
Heartbeat CPU 0 instructions: 420000000 cycles: 782341005 heartbeat IPC: 0.453823 cumulative IPC: 0.445071 (Simulation time: 0 hr 19 min 56 sec) 
Heartbeat CPU 0 instructions: 430000000 cycles: 805213446 heartbeat IPC: 0.437207 cumulative IPC: 0.444828 (Simulation time: 0 hr 20 min 27 sec) 
Heartbeat CPU 0 instructions: 440000000 cycles: 827069109 heartbeat IPC: 0.457547 cumulative IPC: 0.445192 (Simulation time: 0 hr 20 min 57 sec) 
Heartbeat CPU 0 instructions: 450000003 cycles: 850434236 heartbeat IPC: 0.427988 cumulative IPC: 0.444681 (Simulation time: 0 hr 21 min 29 sec) 
Heartbeat CPU 0 instructions: 460000000 cycles: 872807358 heartbeat IPC: 0.446965 cumulative IPC: 0.444745 (Simulation time: 0 hr 22 min 0 sec) 
Heartbeat CPU 0 instructions: 470000000 cycles: 895913768 heartbeat IPC: 0.43278 cumulative IPC: 0.444413 (Simulation time: 0 hr 22 min 31 sec) 
Heartbeat CPU 0 instructions: 480000000 cycles: 918499848 heartbeat IPC: 0.442751 cumulative IPC: 0.444369 (Simulation time: 0 hr 23 min 2 sec) 
Heartbeat CPU 0 instructions: 490000000 cycles: 941932553 heartbeat IPC: 0.426754 cumulative IPC: 0.443899 (Simulation time: 0 hr 23 min 34 sec) 
Heartbeat CPU 0 instructions: 500000000 cycles: 964392270 heartbeat IPC: 0.445242 cumulative IPC: 0.443932 (Simulation time: 0 hr 24 min 5 sec) 
Heartbeat CPU 0 instructions: 510000001 cycles: 986347010 heartbeat IPC: 0.455483 cumulative IPC: 0.444207 (Simulation time: 0 hr 24 min 36 sec) 
Heartbeat CPU 0 instructions: 520000000 cycles: 1008807012 heartbeat IPC: 0.445236 cumulative IPC: 0.444231 (Simulation time: 0 hr 25 min 7 sec) 
Heartbeat CPU 0 instructions: 530000000 cycles: 1030780854 heartbeat IPC: 0.455087 cumulative IPC: 0.444478 (Simulation time: 0 hr 25 min 38 sec) 
Heartbeat CPU 0 instructions: 540000000 cycles: 1052127346 heartbeat IPC: 0.468461 cumulative IPC: 0.444996 (Simulation time: 0 hr 26 min 8 sec) 
Heartbeat CPU 0 instructions: 550000001 cycles: 1075052909 heartbeat IPC: 0.436194 cumulative IPC: 0.444796 (Simulation time: 0 hr 26 min 39 sec) 
Heartbeat CPU 0 instructions: 560000000 cycles: 1097045596 heartbeat IPC: 0.454697 cumulative IPC: 0.445007 (Simulation time: 0 hr 27 min 10 sec) 
Heartbeat CPU 0 instructions: 570000000 cycles: 1119189498 heartbeat IPC: 0.451592 cumulative IPC: 0.445145 (Simulation time: 0 hr 27 min 40 sec) 
Heartbeat CPU 0 instructions: 580000000 cycles: 1141975844 heartbeat IPC: 0.438859 cumulative IPC: 0.445012 (Simulation time: 0 hr 28 min 11 sec) 
Heartbeat CPU 0 instructions: 590000001 cycles: 1164129757 heartbeat IPC: 0.451388 cumulative IPC: 0.445141 (Simulation time: 0 hr 28 min 42 sec) 
Heartbeat CPU 0 instructions: 600000000 cycles: 1186501714 heartbeat IPC: 0.446988 cumulative IPC: 0.445177 (Simulation time: 0 hr 29 min 13 sec) 
Finished CPU 0 instructions: 500000000 cycles: 1123147710 cumulative IPC: 0.445177 (Simulation time: 0 hr 29 min 13 sec) 

CPU 0 Branch Prediction Accuracy: 98.4581% MPKI: 2.72319
Number of Branches: 88305003 Number of Mispredictions: 1361597
Number of LOAD Instructions: 187652373
Number of LOAD Instructions (ROI): 187652373
Number of STORE Instructions: 91778667
Number of STORE Instructions (ROI): 91778667
Total Destination Memory Operands: 99600562
Total Destination Memory Operands (ROI): 99600562
Total Source Memory Operands: 187652373
Total Source Memory Operands (ROI): 187652373
Number of DEPENDED LOADS: 9526323
Number of DEPENDED LOADS (ROI): 9526323
Number of SQ_ADDED: 99600525
Number of SQ_ADDED (ROI): 99600525
Number of LQ_ADDED: 255543368
Number of LQ_ADDED (ROI): 255543368
Number of Instructions read from trace: 600000256

ChampSim completed all CPUs

Region of Interest Statistics

CPU 0 cumulative IPC: 0.445177 instructions: 500000000 cycles: 1123147710
ITLB TOTAL     ACCESS:  158065299  HIT:  158053374  MISS:      11925
ITLB LOAD      ACCESS:  158065299  HIT:  158053374  MISS:      11925
ITLB RFO       ACCESS:          0  HIT:          0  MISS:          0
ITLB PREFETCH  ACCESS:          0  HIT:          0  MISS:          0
ITLB WRITEBACK ACCESS:          0  HIT:          0  MISS:          0
ITLB PREFETCH  REQUESTED:          0  ISSUED:          0  USEFUL:          0  USELESS:          0
ITLB TOTAL MSHR MERGED:      30495
ITLB LOAD MSHR MERGED:      30495
ITLB RFO MSHR MERGED:          0
ITLB PREFETCH MSHR MERGED:          0
ITLB WRITEBACK MSHR MERGED:          0
ITLB TOTAL ACCESSES:  158095794 HITS:  158053374 MISSES:      42420
ITLB LOAD ACCESSES:  158095794 HITS:  158053374 MISSES:      42420
ITLB RFO ACCESSES:          0 HITS:          0 MISSES:          0
ITLB PREFETCH ACCESSES:          0 HITS:          0 MISSES:          0
ITLB WRITEBACK ACCESSES:          0 HITS:          0 MISSES:          0
ITLB RQ ACCESS:  500000000
ITLB RQ TO_CACHE:  158095794
ITLB RQ MERGED:  341904206
ITLB RQ FORWARD:          0
ITLB WQ ACCESS:          0
ITLB WQ TO_CACHE:          0
ITLB WQ MERGED:          0
ITLB WQ FORWARD:          0
DTLB TOTAL     ACCESS:  178946717  HIT:  178550774  MISS:     395943
DTLB LOAD      ACCESS:  108880415  HIT:  108535495  MISS:     344920
DTLB RFO       ACCESS:   70066302  HIT:   70015279  MISS:      51023
DTLB PREFETCH  ACCESS:          0  HIT:          0  MISS:          0
DTLB WRITEBACK ACCESS:          0  HIT:          0  MISS:          0
DTLB PREFETCH  REQUESTED:          0  ISSUED:          0  USEFUL:          0  USELESS:          0
DTLB TOTAL MSHR MERGED:      52811
DTLB LOAD MSHR MERGED:      32823
DTLB RFO MSHR MERGED:      19988
DTLB PREFETCH MSHR MERGED:          0
DTLB WRITEBACK MSHR MERGED:          0
DTLB TOTAL ACCESSES:  178999528 HITS:  178550774 MISSES:     448754
DTLB LOAD ACCESSES:  108913238 HITS:  108535495 MISSES:     377743
DTLB RFO ACCESSES:   70086290 HITS:   70015279 MISSES:      71011
DTLB PREFETCH ACCESSES:          0 HITS:          0 MISSES:          0
DTLB WRITEBACK ACCESSES:          0 HITS:          0 MISSES:          0
DTLB RQ ACCESS:  231158897
DTLB RQ TO_CACHE:  178999528
DTLB RQ MERGED:   52159369
DTLB RQ FORWARD:          0
DTLB WQ ACCESS:          0
DTLB WQ TO_CACHE:          0
DTLB WQ MERGED:          0
DTLB WQ FORWARD:          0
L1D TOTAL     ACCESS:  318885061  HIT:  314680252  MISS:    4204809
L1D LOAD      ACCESS:  120354701  HIT:  118301700  MISS:    2053001
L1D RFO       ACCESS:   82132757  HIT:   81966708  MISS:     166049
L1D PREFETCH  ACCESS:  116397603  HIT:  114411844  MISS:    1985759
L1D WRITEBACK ACCESS:          0  HIT:          0  MISS:          0
L1D PREFETCH  REQUESTED:  120433755  ISSUED:  119982361  USEFUL:     665686  USELESS:    1320080
L1D TOTAL MSHR MERGED:     338919
L1D LOAD MSHR MERGED:      93030
L1D RFO MSHR MERGED:     118061
L1D PREFETCH MSHR MERGED:     127828
L1D WRITEBACK MSHR MERGED:          0
L1D TOTAL ACCESSES:  319235092 HITS:  314691364 MISSES:    4543728
L1D LOAD ACCESSES:  120434554 HITS:  118302499 MISSES:    2132055
L1D RFO ACCESSES:   82247696 HITS:   81966708 MISSES:     280988
L1D PREFETCH ACCESSES:  116552842 HITS:  114422157 MISSES:    2130685
L1D WRITEBACK ACCESSES:          0 HITS:          0 MISSES:          0
L1D RQ ACCESS:  148219410
L1D RQ TO_CACHE:  120433755
L1D RQ MERGED:   27784856
L1D RQ FORWARD:          0
L1D WQ ACCESS:   82939487
L1D WQ TO_CACHE:   82247696
L1D WQ MERGED:     691791
L1D WQ FORWARD:      11112
L1I TOTAL     ACCESS:  181980894  HIT:  179192658  MISS:    2788236
L1I LOAD      ACCESS:  181980894  HIT:  179192658  MISS:    2788236
L1I RFO       ACCESS:          0  HIT:          0  MISS:          0
L1I PREFETCH  ACCESS:          0  HIT:          0  MISS:          0
L1I WRITEBACK ACCESS:          0  HIT:          0  MISS:          0
L1I PREFETCH  REQUESTED:          0  ISSUED:          0  USEFUL:          0  USELESS:          0
L1I TOTAL MSHR MERGED:    1819905
L1I LOAD MSHR MERGED:    1819905
L1I RFO MSHR MERGED:          0
L1I PREFETCH MSHR MERGED:          0
L1I WRITEBACK MSHR MERGED:          0
L1I TOTAL ACCESSES:  183800799 HITS:  179192658 MISSES:    4608141
L1I LOAD ACCESSES:  183800799 HITS:  179192658 MISSES:    4608141
L1I RFO ACCESSES:          0 HITS:          0 MISSES:          0
L1I PREFETCH ACCESSES:          0 HITS:          0 MISSES:          0
L1I WRITEBACK ACCESSES:          0 HITS:          0 MISSES:          0
L1I RQ ACCESS:  500000003
L1I RQ TO_CACHE:  183800799
L1I RQ MERGED:  316199204
L1I RQ FORWARD:          0
L1I WQ ACCESS:          0
L1I WQ TO_CACHE:          0
L1I WQ MERGED:          0
L1I WQ FORWARD:          0
L2C TOTAL     ACCESS:    7971166  HIT:    6903023  MISS:    1068143
L2C LOAD      ACCESS:    4827192  HIT:    4177423  MISS:     649769
L2C RFO       ACCESS:     162924  HIT:     147347  MISS:      15577
L2C PREFETCH  ACCESS:    2134814  HIT:    1738634  MISS:     396180
L2C WRITEBACK ACCESS:     846236  HIT:     839619  MISS:       6617
L2C PREFETCH  REQUESTED:     133492  ISSUED:     133492  USEFUL:      30188  USELESS:     366041
L2C TOTAL MSHR MERGED:          0
L2C LOAD MSHR MERGED:          0
L2C RFO MSHR MERGED:          0
L2C PREFETCH MSHR MERGED:          0
L2C WRITEBACK MSHR MERGED:          0
L2C TOTAL ACCESSES:    7971260 HITS:    6903117 MISSES:    1068143
L2C LOAD ACCESSES:    4827261 HITS:    4177492 MISSES:     649769
L2C RFO ACCESSES:     162927 HITS:     147350 MISSES:      15577
L2C PREFETCH ACCESSES:    2134836 HITS:    1738656 MISSES:     396180
L2C WRITEBACK ACCESSES:     846236 HITS:     839619 MISSES:       6617
L2C RQ ACCESS:    4990188
L2C RQ TO_CACHE:    4990116
L2C RQ MERGED:          0
L2C RQ FORWARD:          0
L2C WQ ACCESS:     846236
L2C WQ TO_CACHE:     846236
L2C WQ MERGED:          0
L2C WQ FORWARD:         94
LLC TOTAL     ACCESS:    1200771  HIT:    1137105  MISS:      63666
LLC LOAD      ACCESS:     649768  HIT:     590816  MISS:      58952
LLC RFO       ACCESS:      15577  HIT:      15465  MISS:        112
LLC PREFETCH  ACCESS:     396179  HIT:     392393  MISS:       3786
LLC WRITEBACK ACCESS:     139247  HIT:     138431  MISS:        816
LLC PREFETCH  REQUESTED:          0  ISSUED:          0  USEFUL:       1010  USELESS:          0
LLC TOTAL MSHR MERGED:          0
LLC LOAD MSHR MERGED:          0
LLC RFO MSHR MERGED:          0
LLC PREFETCH MSHR MERGED:          0
LLC WRITEBACK MSHR MERGED:          0
LLC TOTAL ACCESSES:    1200773 HITS:    1137107 MISSES:      63666
LLC LOAD ACCESSES:     649769 HITS:     590817 MISSES:      58952
LLC RFO ACCESSES:      15577 HITS:      15465 MISSES:        112
LLC PREFETCH ACCESSES:     396180 HITS:     392394 MISSES:       3786
LLC WRITEBACK ACCESSES:     139247 HITS:     138431 MISSES:        816
LLC 0 RQ ACCESS:     665346
LLC 0 RQ TO_CACHE:     665345
LLC 0 RQ MERGED:          0
LLC 0 RQ FORWARD:          0
LLC WQ ACCESS:     139247
LLC WQ TO_CACHE:     139247
LLC WQ MERGED:          0
LLC WQ FORWARD:          2
Major fault: 0 Minor fault: 582
CPU 0 L1D next line prefetcher final stats
CPU 0 L2C PC-based stride prefetcher final stats
All Misses: 94936
All Hits: 1345990
SD Algo Stats - Switches: 0 SRR-Repls: 84942 BRR-Repls: 0

DRAM Statistics
 CHANNEL 0
 RQ ROW_BUFFER_HIT:       3395  ROW_BUFFER_MISS:      58755
 DBUS_CONGESTED:       2744
 WQ ROW_BUFFER_HIT:          3  ROW_BUFFER_MISS:         33  FULL:          0

 AVG_CONGESTED_CYCLE: 9
LOADS RETIRED: 156155653
INSTR RETIRED: 500000000
