
*** ChampSim Multicore Out-of-Order Simulator ***

Warmup Instructions: 100000000
Simulation Instructions: 500000000
Number of CPUs: 1
LLC sets: 2048
LLC ways: 16
Clean RRIP Policies: 311222303112223 Dirty RRIP Policies: 2301022323010223 PSEL Width: 10 Track Set: 4294967295 PSEL Mask: 1 Demote Mask: 3012303030123030DS Algo: 0Window size: 0
Off-chip DRAM Size: 4096 MB Channels: 1 Width: 64-bit Data Rate: 1600 MT/s

CPU 0 runs /mnt/beegfs/iconst01/spec2017/Xalancbmk.trace.gz
NOT SORTED
TRACE STRING: /mnt/beegfs/iconst01/spec2017/Xalancbmk.trace.gz
SORTED
TRACE STRING: /mnt/beegfs/iconst01/spec2017/Xalancbmk.trace.gz
INITIAL
TRACE STRING: /mnt/beegfs/iconst01/spec2017/Xalancbmk.trace.gz

champsim_seed used: 913

CPU 0 L1D next line prefetcher
CPU 0 L2C IP-based stride prefetcher
Initialize DRRIP state
Assign rand_sets[0]: 454  LLC: 2048
rand_sets[0]: 454
Assign rand_sets[1]: 1662  LLC: 2048
rand_sets[1]: 1662
Assign rand_sets[2]: 1921  LLC: 2048
rand_sets[2]: 1921
Assign rand_sets[3]: 1131  LLC: 2048
rand_sets[3]: 1131
Assign rand_sets[4]: 331  LLC: 2048
rand_sets[4]: 331
Assign rand_sets[5]: 1531  LLC: 2048
rand_sets[5]: 1531
Assign rand_sets[6]: 482  LLC: 2048
rand_sets[6]: 482
Assign rand_sets[7]: 1275  LLC: 2048
rand_sets[7]: 1275
Assign rand_sets[8]: 1876  LLC: 2048
rand_sets[8]: 1876
Assign rand_sets[9]: 2038  LLC: 2048
rand_sets[9]: 2038
Assign rand_sets[10]: 701  LLC: 2048
rand_sets[10]: 701
Assign rand_sets[11]: 479  LLC: 2048
rand_sets[11]: 479
Assign rand_sets[12]: 892  LLC: 2048
rand_sets[12]: 892
Assign rand_sets[13]: 1820  LLC: 2048
rand_sets[13]: 1820
Assign rand_sets[14]: 1505  LLC: 2048
rand_sets[14]: 1505
Assign rand_sets[15]: 1159  LLC: 2048
rand_sets[15]: 1159
Assign rand_sets[16]: 513  LLC: 2048
rand_sets[16]: 513
Assign rand_sets[17]: 703  LLC: 2048
rand_sets[17]: 703
Assign rand_sets[18]: 561  LLC: 2048
rand_sets[18]: 561
Assign rand_sets[19]: 990  LLC: 2048
rand_sets[19]: 990
Assign rand_sets[20]: 342  LLC: 2048
rand_sets[20]: 342
Assign rand_sets[21]: 882  LLC: 2048
rand_sets[21]: 882
Assign rand_sets[22]: 15  LLC: 2048
rand_sets[22]: 15
Assign rand_sets[23]: 71  LLC: 2048
rand_sets[23]: 71
Assign rand_sets[24]: 1127  LLC: 2048
rand_sets[24]: 1127
Assign rand_sets[25]: 1382  LLC: 2048
rand_sets[25]: 1382
Assign rand_sets[26]: 647  LLC: 2048
rand_sets[26]: 647
Assign rand_sets[27]: 857  LLC: 2048
rand_sets[27]: 857
Assign rand_sets[28]: 1450  LLC: 2048
rand_sets[28]: 1450
Assign rand_sets[29]: 1160  LLC: 2048
rand_sets[29]: 1160
Assign rand_sets[30]: 1852  LLC: 2048
rand_sets[30]: 1852
Assign rand_sets[31]: 1881  LLC: 2048
rand_sets[31]: 1881
Assign rand_sets[32]: 1770  LLC: 2048
rand_sets[32]: 1770
Assign rand_sets[33]: 1622  LLC: 2048
rand_sets[33]: 1622
Assign rand_sets[34]: 275  LLC: 2048
rand_sets[34]: 275
Assign rand_sets[35]: 635  LLC: 2048
rand_sets[35]: 635
Assign rand_sets[36]: 466  LLC: 2048
rand_sets[36]: 466
Assign rand_sets[37]: 1413  LLC: 2048
rand_sets[37]: 1413
Assign rand_sets[38]: 417  LLC: 2048
rand_sets[38]: 417
Assign rand_sets[39]: 472  LLC: 2048
rand_sets[39]: 472
Assign rand_sets[40]: 1340  LLC: 2048
rand_sets[40]: 1340
Assign rand_sets[41]: 852  LLC: 2048
rand_sets[41]: 852
Assign rand_sets[42]: 1365  LLC: 2048
rand_sets[42]: 1365
Assign rand_sets[43]: 47  LLC: 2048
rand_sets[43]: 47
Assign rand_sets[44]: 823  LLC: 2048
rand_sets[44]: 823
Assign rand_sets[45]: 686  LLC: 2048
rand_sets[45]: 686
Assign rand_sets[46]: 1637  LLC: 2048
rand_sets[46]: 1637
Assign rand_sets[47]: 1115  LLC: 2048
rand_sets[47]: 1115
Assign rand_sets[48]: 986  LLC: 2048
rand_sets[48]: 986
Assign rand_sets[49]: 258  LLC: 2048
rand_sets[49]: 258
Assign rand_sets[50]: 633  LLC: 2048
rand_sets[50]: 633
Assign rand_sets[51]: 920  LLC: 2048
rand_sets[51]: 920
Assign rand_sets[52]: 204  LLC: 2048
rand_sets[52]: 204
Assign rand_sets[53]: 227  LLC: 2048
rand_sets[53]: 227
Assign rand_sets[54]: 1818  LLC: 2048
rand_sets[54]: 1818
Assign rand_sets[55]: 886  LLC: 2048
rand_sets[55]: 886
Assign rand_sets[56]: 1422  LLC: 2048
rand_sets[56]: 1422
Assign rand_sets[57]: 607  LLC: 2048
rand_sets[57]: 607
Assign rand_sets[58]: 217  LLC: 2048
rand_sets[58]: 217
Assign rand_sets[59]: 1945  LLC: 2048
rand_sets[59]: 1945
Assign rand_sets[60]: 143  LLC: 2048
rand_sets[60]: 143
Assign rand_sets[61]: 1311  LLC: 2048
rand_sets[61]: 1311
Assign rand_sets[62]: 319  LLC: 2048
rand_sets[62]: 319
Assign rand_sets[63]: 1846  LLC: 2048
rand_sets[63]: 1846
 CLEAN-RRIP-POLICY-1: 0-3-1-1-2-2-2-3- CLEAN-RRIP-POLICY-2: 0-3-1-1-2-2-2-3-
 DIRTY-RRIP-POLICY-1: 2-3-0-1-0-2-2-3- DIRTY-RRIP-POLICY-2: 2-3-0-1-0-2-2-3-
 PSEL width: 10
Heartbeat CPU 0 instructions: 10000003 cycles: 4615228 heartbeat IPC: 2.16674 cumulative IPC: 2.16674 (Simulation time: 0 hr 0 min 15 sec) 
Heartbeat CPU 0 instructions: 20000000 cycles: 9068075 heartbeat IPC: 2.24575 cumulative IPC: 2.20554 (Simulation time: 0 hr 0 min 29 sec) 
Heartbeat CPU 0 instructions: 30000000 cycles: 13530612 heartbeat IPC: 2.24088 cumulative IPC: 2.21719 (Simulation time: 0 hr 0 min 44 sec) 
Heartbeat CPU 0 instructions: 40000000 cycles: 18189467 heartbeat IPC: 2.14645 cumulative IPC: 2.19907 (Simulation time: 0 hr 0 min 59 sec) 
Heartbeat CPU 0 instructions: 50000002 cycles: 22657789 heartbeat IPC: 2.23798 cumulative IPC: 2.20675 (Simulation time: 0 hr 1 min 14 sec) 
Heartbeat CPU 0 instructions: 60000000 cycles: 27352309 heartbeat IPC: 2.13014 cumulative IPC: 2.1936 (Simulation time: 0 hr 1 min 30 sec) 
Heartbeat CPU 0 instructions: 70000003 cycles: 31806370 heartbeat IPC: 2.24514 cumulative IPC: 2.20082 (Simulation time: 0 hr 1 min 44 sec) 
Heartbeat CPU 0 instructions: 80000000 cycles: 36281667 heartbeat IPC: 2.23449 cumulative IPC: 2.20497 (Simulation time: 0 hr 1 min 58 sec) 
Heartbeat CPU 0 instructions: 90000002 cycles: 40788108 heartbeat IPC: 2.21905 cumulative IPC: 2.20653 (Simulation time: 0 hr 2 min 13 sec) 
Heartbeat CPU 0 instructions: 100000000 cycles: 45309656 heartbeat IPC: 2.21163 cumulative IPC: 2.20704 (Simulation time: 0 hr 2 min 27 sec) 

Warmup complete CPU 0 instructions: 100000003 cycles: 45309657 (Simulation time: 0 hr 2 min 27 sec) 

Heartbeat CPU 0 instructions: 110000000 cycles: 74848581 heartbeat IPC: 0.338536 cumulative IPC: 0.338536 (Simulation time: 0 hr 3 min 0 sec) 
Heartbeat CPU 0 instructions: 120000000 cycles: 109048718 heartbeat IPC: 0.292396 cumulative IPC: 0.313779 (Simulation time: 0 hr 3 min 36 sec) 
Heartbeat CPU 0 instructions: 130000000 cycles: 134849113 heartbeat IPC: 0.387591 cumulative IPC: 0.335048 (Simulation time: 0 hr 4 min 6 sec) 
Heartbeat CPU 0 instructions: 140000000 cycles: 159223958 heartbeat IPC: 0.410259 cumulative IPC: 0.351141 (Simulation time: 0 hr 4 min 35 sec) 
Heartbeat CPU 0 instructions: 150000000 cycles: 185532275 heartbeat IPC: 0.380108 cumulative IPC: 0.356576 (Simulation time: 0 hr 5 min 6 sec) 
Heartbeat CPU 0 instructions: 160000000 cycles: 212685252 heartbeat IPC: 0.368284 cumulative IPC: 0.358475 (Simulation time: 0 hr 5 min 37 sec) 
Heartbeat CPU 0 instructions: 170000002 cycles: 236228657 heartbeat IPC: 0.424747 cumulative IPC: 0.366648 (Simulation time: 0 hr 6 min 6 sec) 
Heartbeat CPU 0 instructions: 180000000 cycles: 260309890 heartbeat IPC: 0.415261 cumulative IPC: 0.372093 (Simulation time: 0 hr 6 min 35 sec) 
Heartbeat CPU 0 instructions: 190000000 cycles: 281438129 heartbeat IPC: 0.4733 cumulative IPC: 0.381148 (Simulation time: 0 hr 7 min 2 sec) 
Heartbeat CPU 0 instructions: 200000000 cycles: 304142473 heartbeat IPC: 0.440444 cumulative IPC: 0.38635 (Simulation time: 0 hr 7 min 30 sec) 
Heartbeat CPU 0 instructions: 210000001 cycles: 332670572 heartbeat IPC: 0.350532 cumulative IPC: 0.382794 (Simulation time: 0 hr 8 min 3 sec) 
Heartbeat CPU 0 instructions: 220000000 cycles: 360910743 heartbeat IPC: 0.354105 cumulative IPC: 0.380227 (Simulation time: 0 hr 8 min 35 sec) 
Heartbeat CPU 0 instructions: 230000000 cycles: 385556124 heartbeat IPC: 0.405756 cumulative IPC: 0.382076 (Simulation time: 0 hr 9 min 4 sec) 
Heartbeat CPU 0 instructions: 240000000 cycles: 413646882 heartbeat IPC: 0.355989 cumulative IPC: 0.380086 (Simulation time: 0 hr 9 min 36 sec) 
Heartbeat CPU 0 instructions: 250000001 cycles: 441554250 heartbeat IPC: 0.358328 cumulative IPC: 0.378554 (Simulation time: 0 hr 10 min 8 sec) 
Heartbeat CPU 0 instructions: 260000000 cycles: 464073532 heartbeat IPC: 0.444064 cumulative IPC: 0.382077 (Simulation time: 0 hr 10 min 36 sec) 
Heartbeat CPU 0 instructions: 270000000 cycles: 487365068 heartbeat IPC: 0.429341 cumulative IPC: 0.384567 (Simulation time: 0 hr 11 min 4 sec) 
Heartbeat CPU 0 instructions: 280000000 cycles: 518831607 heartbeat IPC: 0.317798 cumulative IPC: 0.38013 (Simulation time: 0 hr 11 min 38 sec) 
Heartbeat CPU 0 instructions: 290000000 cycles: 541493053 heartbeat IPC: 0.441278 cumulative IPC: 0.382923 (Simulation time: 0 hr 12 min 6 sec) 
Heartbeat CPU 0 instructions: 300000000 cycles: 563754546 heartbeat IPC: 0.449206 cumulative IPC: 0.385769 (Simulation time: 0 hr 12 min 34 sec) 
Heartbeat CPU 0 instructions: 310000000 cycles: 585044502 heartbeat IPC: 0.469705 cumulative IPC: 0.38908 (Simulation time: 0 hr 13 min 1 sec) 
Heartbeat CPU 0 instructions: 320000000 cycles: 618365232 heartbeat IPC: 0.300113 cumulative IPC: 0.383907 (Simulation time: 0 hr 13 min 35 sec) 
Heartbeat CPU 0 instructions: 330000001 cycles: 639526077 heartbeat IPC: 0.472571 cumulative IPC: 0.387064 (Simulation time: 0 hr 14 min 2 sec) 
Heartbeat CPU 0 instructions: 340000000 cycles: 661008706 heartbeat IPC: 0.465492 cumulative IPC: 0.389801 (Simulation time: 0 hr 14 min 29 sec) 
Heartbeat CPU 0 instructions: 350000000 cycles: 689034483 heartbeat IPC: 0.356814 cumulative IPC: 0.388365 (Simulation time: 0 hr 15 min 0 sec) 
Heartbeat CPU 0 instructions: 360000000 cycles: 712919889 heartbeat IPC: 0.418666 cumulative IPC: 0.389449 (Simulation time: 0 hr 15 min 29 sec) 
Heartbeat CPU 0 instructions: 370000001 cycles: 740213087 heartbeat IPC: 0.366392 cumulative IPC: 0.388543 (Simulation time: 0 hr 16 min 0 sec) 
Heartbeat CPU 0 instructions: 380000000 cycles: 765649259 heartbeat IPC: 0.393141 cumulative IPC: 0.388706 (Simulation time: 0 hr 16 min 29 sec) 
Heartbeat CPU 0 instructions: 390000000 cycles: 786166611 heartbeat IPC: 0.487392 cumulative IPC: 0.391439 (Simulation time: 0 hr 16 min 55 sec) 
Heartbeat CPU 0 instructions: 400000000 cycles: 808176833 heartbeat IPC: 0.454334 cumulative IPC: 0.393253 (Simulation time: 0 hr 17 min 22 sec) 
Heartbeat CPU 0 instructions: 410000001 cycles: 836920013 heartbeat IPC: 0.347909 cumulative IPC: 0.391607 (Simulation time: 0 hr 17 min 54 sec) 
Heartbeat CPU 0 instructions: 420000000 cycles: 863329651 heartbeat IPC: 0.37865 cumulative IPC: 0.391188 (Simulation time: 0 hr 18 min 24 sec) 
Heartbeat CPU 0 instructions: 430000002 cycles: 886039550 heartbeat IPC: 0.440337 cumulative IPC: 0.392516 (Simulation time: 0 hr 18 min 51 sec) 
Heartbeat CPU 0 instructions: 440000000 cycles: 908066614 heartbeat IPC: 0.453987 cumulative IPC: 0.394085 (Simulation time: 0 hr 19 min 19 sec) 
Heartbeat CPU 0 instructions: 450000002 cycles: 937498272 heartbeat IPC: 0.33977 cumulative IPC: 0.392294 (Simulation time: 0 hr 19 min 51 sec) 
Heartbeat CPU 0 instructions: 460000000 cycles: 967002806 heartbeat IPC: 0.338931 cumulative IPC: 0.390586 (Simulation time: 0 hr 20 min 23 sec) 
Heartbeat CPU 0 instructions: 470000002 cycles: 995472221 heartbeat IPC: 0.351254 cumulative IPC: 0.389407 (Simulation time: 0 hr 20 min 54 sec) 
Heartbeat CPU 0 instructions: 480000000 cycles: 1021396869 heartbeat IPC: 0.385733 cumulative IPC: 0.389309 (Simulation time: 0 hr 21 min 24 sec) 
Heartbeat CPU 0 instructions: 490000000 cycles: 1043990862 heartbeat IPC: 0.442596 cumulative IPC: 0.390515 (Simulation time: 0 hr 21 min 51 sec) 
Heartbeat CPU 0 instructions: 500000000 cycles: 1071313010 heartbeat IPC: 0.366003 cumulative IPC: 0.389862 (Simulation time: 0 hr 22 min 22 sec) 
Heartbeat CPU 0 instructions: 510000000 cycles: 1098474688 heartbeat IPC: 0.368166 cumulative IPC: 0.389303 (Simulation time: 0 hr 22 min 52 sec) 
Heartbeat CPU 0 instructions: 520000000 cycles: 1121394246 heartbeat IPC: 0.436309 cumulative IPC: 0.390304 (Simulation time: 0 hr 23 min 20 sec) 
Heartbeat CPU 0 instructions: 530000003 cycles: 1149049324 heartbeat IPC: 0.361597 cumulative IPC: 0.389585 (Simulation time: 0 hr 23 min 51 sec) 
Heartbeat CPU 0 instructions: 540000000 cycles: 1173954590 heartbeat IPC: 0.401521 cumulative IPC: 0.389848 (Simulation time: 0 hr 24 min 20 sec) 
Heartbeat CPU 0 instructions: 550000000 cycles: 1201569086 heartbeat IPC: 0.362129 cumulative IPC: 0.389186 (Simulation time: 0 hr 24 min 51 sec) 
Heartbeat CPU 0 instructions: 560000000 cycles: 1226092583 heartbeat IPC: 0.407772 cumulative IPC: 0.389572 (Simulation time: 0 hr 25 min 19 sec) 
Heartbeat CPU 0 instructions: 570000002 cycles: 1251751669 heartbeat IPC: 0.389726 cumulative IPC: 0.389575 (Simulation time: 0 hr 25 min 49 sec) 
Heartbeat CPU 0 instructions: 580000000 cycles: 1274209715 heartbeat IPC: 0.445275 cumulative IPC: 0.390593 (Simulation time: 0 hr 26 min 16 sec) 
Heartbeat CPU 0 instructions: 590000001 cycles: 1299939202 heartbeat IPC: 0.388659 cumulative IPC: 0.390554 (Simulation time: 0 hr 26 min 46 sec) 
Heartbeat CPU 0 instructions: 600000000 cycles: 1320715173 heartbeat IPC: 0.481325 cumulative IPC: 0.392032 (Simulation time: 0 hr 27 min 12 sec) 
Finished CPU 0 instructions: 500000000 cycles: 1275405537 cumulative IPC: 0.392032 (Simulation time: 0 hr 27 min 12 sec) 

CPU 0 Branch Prediction Accuracy: 99.5434% MPKI: 1.33026
Number of Branches: 145676990 Number of Mispredictions: 665128
Number of LOAD Instructions: 188863207
Number of LOAD Instructions (ROI): 188863207
Number of STORE Instructions: 7332002
Number of STORE Instructions (ROI): 7332002
Total Destination Memory Operands: 10029285
Total Destination Memory Operands (ROI): 10029285
Total Source Memory Operands: 188863207
Total Source Memory Operands (ROI): 188863207
Number of DEPENDED LOADS: 298591
Number of DEPENDED LOADS (ROI): 298591
Number of SQ_ADDED: 10029285
Number of SQ_ADDED (ROI): 10029285
Number of LQ_ADDED: 201365003
Number of LQ_ADDED (ROI): 201365003
Number of Instructions read from trace: 600000010

ChampSim completed all CPUs

Region of Interest Statistics

CPU 0 cumulative IPC: 0.392032 instructions: 500000000 cycles: 1275405537
ITLB TOTAL     ACCESS:  146245631  HIT:  146206032  MISS:      39599
ITLB LOAD      ACCESS:  146245631  HIT:  146206032  MISS:      39599
ITLB RFO       ACCESS:          0  HIT:          0  MISS:          0
ITLB PREFETCH  ACCESS:          0  HIT:          0  MISS:          0
ITLB WRITEBACK ACCESS:          0  HIT:          0  MISS:          0
ITLB PREFETCH  REQUESTED:          0  ISSUED:          0  USEFUL:          0  USELESS:          0
ITLB TOTAL MSHR MERGED:      57483
ITLB LOAD MSHR MERGED:      57483
ITLB RFO MSHR MERGED:          0
ITLB PREFETCH MSHR MERGED:          0
ITLB WRITEBACK MSHR MERGED:          0
ITLB TOTAL ACCESSES:  146303114 HITS:  146206032 MISSES:      97082
ITLB LOAD ACCESSES:  146303114 HITS:  146206032 MISSES:      97082
ITLB RFO ACCESSES:          0 HITS:          0 MISSES:          0
ITLB PREFETCH ACCESSES:          0 HITS:          0 MISSES:          0
ITLB WRITEBACK ACCESSES:          0 HITS:          0 MISSES:          0
ITLB RQ ACCESS:  499999754
ITLB RQ TO_CACHE:  146303114
ITLB RQ MERGED:  353696640
ITLB RQ FORWARD:          0
ITLB WQ ACCESS:          0
ITLB WQ TO_CACHE:          0
ITLB WQ MERGED:          0
ITLB WQ FORWARD:          0
DTLB TOTAL     ACCESS:  135385065  HIT:  134216729  MISS:    1168336
DTLB LOAD      ACCESS:  127341427  HIT:  126182172  MISS:    1159255
DTLB RFO       ACCESS:    8043638  HIT:    8034557  MISS:       9081
DTLB PREFETCH  ACCESS:          0  HIT:          0  MISS:          0
DTLB WRITEBACK ACCESS:          0  HIT:          0  MISS:          0
DTLB PREFETCH  REQUESTED:          0  ISSUED:          0  USEFUL:          0  USELESS:          0
DTLB TOTAL MSHR MERGED:     560938
DTLB LOAD MSHR MERGED:     556729
DTLB RFO MSHR MERGED:       4209
DTLB PREFETCH MSHR MERGED:          0
DTLB WRITEBACK MSHR MERGED:          0
DTLB TOTAL ACCESSES:  135946003 HITS:  134216729 MISSES:    1729274
DTLB LOAD ACCESSES:  127898156 HITS:  126182172 MISSES:    1715984
DTLB RFO ACCESSES:    8047847 HITS:    8034557 MISSES:      13290
DTLB PREFETCH ACCESSES:          0 HITS:          0 MISSES:          0
DTLB WRITEBACK ACCESSES:          0 HITS:          0 MISSES:          0
DTLB RQ ACCESS:  165755817
DTLB RQ TO_CACHE:  135946003
DTLB RQ MERGED:   29809814
DTLB RQ FORWARD:          0
DTLB WQ ACCESS:          0
DTLB WQ TO_CACHE:          0
DTLB WQ MERGED:          0
DTLB WQ FORWARD:          0
L1D TOTAL     ACCESS:  159563421  HIT:  142247655  MISS:   17315766
L1D LOAD      ACCESS:   90527069  HIT:   80027679  MISS:   10499390
L1D RFO       ACCESS:    8503684  HIT:    8416734  MISS:      86950
L1D PREFETCH  ACCESS:   60532668  HIT:   53803242  MISS:    6729426
L1D WRITEBACK ACCESS:          0  HIT:          0  MISS:          0
L1D PREFETCH  REQUESTED:   93959876  ISSUED:   93091236  USEFUL:    2647949  USELESS:    4081551
L1D TOTAL MSHR MERGED:   12981620
L1D LOAD MSHR MERGED:    6235585
L1D RFO MSHR MERGED:     120922
L1D PREFETCH MSHR MERGED:    6625113
L1D WRITEBACK MSHR MERGED:          0
L1D TOTAL ACCESSES:  172545239 HITS:  142247852 MISSES:   30297387
L1D LOAD ACCESSES:   93959879 HITS:   80027682 MISSES:   13932197
L1D RFO ACCESSES:    8622972 HITS:    8416734 MISSES:     206238
L1D PREFETCH ACCESSES:   69962388 HITS:   53803436 MISSES:   16158952
L1D WRITEBACK ACCESSES:          0 HITS:          0 MISSES:          0
L1D RQ ACCESS:  157116611
L1D RQ TO_CACHE:   93959876
L1D RQ MERGED:   63156732
L1D RQ FORWARD:          0
L1D WQ ACCESS:    8639208
L1D WQ TO_CACHE:    8622972
L1D WQ MERGED:      16236
L1D WQ FORWARD:        197
L1I TOTAL     ACCESS:  179107764  HIT:  178444310  MISS:     663454
L1I LOAD      ACCESS:  179107764  HIT:  178444310  MISS:     663454
L1I RFO       ACCESS:          0  HIT:          0  MISS:          0
L1I PREFETCH  ACCESS:          0  HIT:          0  MISS:          0
L1I WRITEBACK ACCESS:          0  HIT:          0  MISS:          0
L1I PREFETCH  REQUESTED:          0  ISSUED:          0  USEFUL:          0  USELESS:          0
L1I TOTAL MSHR MERGED:     629192
L1I LOAD MSHR MERGED:     629192
L1I RFO MSHR MERGED:          0
L1I PREFETCH MSHR MERGED:          0
L1I WRITEBACK MSHR MERGED:          0
L1I TOTAL ACCESSES:  179736956 HITS:  178444310 MISSES:    1292646
L1I LOAD ACCESSES:  179736956 HITS:  178444310 MISSES:    1292646
L1I RFO ACCESSES:          0 HITS:          0 MISSES:          0
L1I PREFETCH ACCESSES:          0 HITS:          0 MISSES:          0
L1I WRITEBACK ACCESSES:          0 HITS:          0 MISSES:          0
L1I RQ ACCESS:  499999757
L1I RQ TO_CACHE:  179736956
L1I RQ MERGED:  320262801
L1I RQ FORWARD:          0
L1I WQ ACCESS:          0
L1I WQ TO_CACHE:          0
L1I WQ MERGED:          0
L1I WQ FORWARD:          0
L2C TOTAL     ACCESS:   19263886  HIT:    2048147  MISS:   17215739
L2C LOAD      ACCESS:    8359967  HIT:     947722  MISS:    7412245
L2C RFO       ACCESS:      85293  HIT:      53742  MISS:      31551
L2C PREFETCH  ACCESS:   10533641  HIT:     764509  MISS:    9769132
L2C WRITEBACK ACCESS:     284985  HIT:     282174  MISS:       2811
L2C PREFETCH  REQUESTED:    1001885  ISSUED:    1001885  USEFUL:     271655  USELESS:    9496565
L2C TOTAL MSHR MERGED:        479
L2C LOAD MSHR MERGED:         91
L2C RFO MSHR MERGED:          1
L2C PREFETCH MSHR MERGED:        387
L2C WRITEBACK MSHR MERGED:          0
L2C TOTAL ACCESSES:   19264816 HITS:    2048331 MISSES:   17216485
L2C LOAD ACCESSES:    8360066 HITS:     947821 MISSES:    7412245
L2C RFO ACCESSES:      85316 HITS:      53765 MISSES:      31551
L2C PREFETCH ACCESSES:   10534449 HITS:     764571 MISSES:    9769878
L2C WRITEBACK ACCESSES:     284985 HITS:     282174 MISSES:       2811
L2C RQ ACCESS:    8445382
L2C RQ TO_CACHE:    8445260
L2C RQ MERGED:          0
L2C RQ FORWARD:          0
L2C WQ ACCESS:     284985
L2C WQ TO_CACHE:     284985
L2C WQ MERGED:          0
L2C WQ FORWARD:        184
LLC TOTAL     ACCESS:   17319244  HIT:    4128574  MISS:   13190670
LLC LOAD      ACCESS:    7412154  HIT:     442195  MISS:    6969959
LLC RFO       ACCESS:      31550  HIT:      17493  MISS:      14057
LLC PREFETCH  ACCESS:    9769479  HIT:    3587137  MISS:    6182342
LLC WRITEBACK ACCESS:     106061  HIT:      81749  MISS:      24312
LLC PREFETCH  REQUESTED:          0  ISSUED:          0  USEFUL:     242563  USELESS:    5938252
LLC TOTAL MSHR MERGED:          9
LLC LOAD MSHR MERGED:          0
LLC RFO MSHR MERGED:          0
LLC PREFETCH MSHR MERGED:          9
LLC WRITEBACK MSHR MERGED:          0
LLC TOTAL ACCESSES:   17319254 HITS:    4128574 MISSES:   13190680
LLC LOAD ACCESSES:    7412154 HITS:     442195 MISSES:    6969959
LLC RFO ACCESSES:      31550 HITS:      17493 MISSES:      14057
LLC PREFETCH ACCESSES:    9769489 HITS:    3587137 MISSES:    6182352
LLC WRITEBACK ACCESSES:     106061 HITS:      81749 MISSES:      24312
LLC 0 RQ ACCESS:    7443704
LLC 0 RQ TO_CACHE:    7443704
LLC 0 RQ MERGED:          0
LLC 0 RQ FORWARD:          0
LLC WQ ACCESS:     106061
LLC WQ TO_CACHE:     106061
LLC WQ MERGED:          0
LLC WQ FORWARD:          0
Major fault: 0 Minor fault: 6432
CPU 0 L1D next line prefetcher final stats
CPU 0 L2C PC-based stride prefetcher final stats
All Misses: 15686239
All Hits: 4850995
SD Algo Stats - Switches: 0 SRR-Repls: 7765708 BRR-Repls: 0

DRAM Statistics
 CHANNEL 0
 RQ ROW_BUFFER_HIT:    9985790  ROW_BUFFER_MISS:    3174019
 DBUS_CONGESTED:    6623928
 WQ ROW_BUFFER_HIT:       1642  ROW_BUFFER_MISS:      54490  FULL:          0

 AVG_CONGESTED_CYCLE: 13
LOADS RETIRED: 157382665
INSTR RETIRED: 500000000
