
*** ChampSim Multicore Out-of-Order Simulator ***

Warmup Instructions: 100000000
Simulation Instructions: 500000000
Number of CPUs: 1
LLC sets: 2048
LLC ways: 16
Clean RRIP Policies: 2213230222132302 Dirty RRIP Policies: 1203030212030302 PSEL Width: 10 Track Set: 4294967295 PSEL Mask: 1 Demote Mask: 3040100030401000DS Algo: 0Window size: 0
Off-chip DRAM Size: 4096 MB Channels: 1 Width: 64-bit Data Rate: 1600 MT/s

CPU 0 runs /mnt/beegfs/iconst01/spec2017/Xz.trace.gz
NOT SORTED
TRACE STRING: /mnt/beegfs/iconst01/spec2017/Xz.trace.gz
SORTED
TRACE STRING: /mnt/beegfs/iconst01/spec2017/Xz.trace.gz
INITIAL
TRACE STRING: /mnt/beegfs/iconst01/spec2017/Xz.trace.gz

champsim_seed used: 210

CPU 0 L1D next line prefetcher
CPU 0 L2C IP-based stride prefetcher
Initialize DRRIP state
Assign rand_sets[0]: 454  LLC: 2048
rand_sets[0]: 454
Assign rand_sets[1]: 1662  LLC: 2048
rand_sets[1]: 1662
Assign rand_sets[2]: 1921  LLC: 2048
rand_sets[2]: 1921
Assign rand_sets[3]: 1131  LLC: 2048
rand_sets[3]: 1131
Assign rand_sets[4]: 331  LLC: 2048
rand_sets[4]: 331
Assign rand_sets[5]: 1531  LLC: 2048
rand_sets[5]: 1531
Assign rand_sets[6]: 482  LLC: 2048
rand_sets[6]: 482
Assign rand_sets[7]: 1275  LLC: 2048
rand_sets[7]: 1275
Assign rand_sets[8]: 1876  LLC: 2048
rand_sets[8]: 1876
Assign rand_sets[9]: 2038  LLC: 2048
rand_sets[9]: 2038
Assign rand_sets[10]: 701  LLC: 2048
rand_sets[10]: 701
Assign rand_sets[11]: 479  LLC: 2048
rand_sets[11]: 479
Assign rand_sets[12]: 892  LLC: 2048
rand_sets[12]: 892
Assign rand_sets[13]: 1820  LLC: 2048
rand_sets[13]: 1820
Assign rand_sets[14]: 1505  LLC: 2048
rand_sets[14]: 1505
Assign rand_sets[15]: 1159  LLC: 2048
rand_sets[15]: 1159
Assign rand_sets[16]: 513  LLC: 2048
rand_sets[16]: 513
Assign rand_sets[17]: 703  LLC: 2048
rand_sets[17]: 703
Assign rand_sets[18]: 561  LLC: 2048
rand_sets[18]: 561
Assign rand_sets[19]: 990  LLC: 2048
rand_sets[19]: 990
Assign rand_sets[20]: 342  LLC: 2048
rand_sets[20]: 342
Assign rand_sets[21]: 882  LLC: 2048
rand_sets[21]: 882
Assign rand_sets[22]: 15  LLC: 2048
rand_sets[22]: 15
Assign rand_sets[23]: 71  LLC: 2048
rand_sets[23]: 71
Assign rand_sets[24]: 1127  LLC: 2048
rand_sets[24]: 1127
Assign rand_sets[25]: 1382  LLC: 2048
rand_sets[25]: 1382
Assign rand_sets[26]: 647  LLC: 2048
rand_sets[26]: 647
Assign rand_sets[27]: 857  LLC: 2048
rand_sets[27]: 857
Assign rand_sets[28]: 1450  LLC: 2048
rand_sets[28]: 1450
Assign rand_sets[29]: 1160  LLC: 2048
rand_sets[29]: 1160
Assign rand_sets[30]: 1852  LLC: 2048
rand_sets[30]: 1852
Assign rand_sets[31]: 1881  LLC: 2048
rand_sets[31]: 1881
Assign rand_sets[32]: 1770  LLC: 2048
rand_sets[32]: 1770
Assign rand_sets[33]: 1622  LLC: 2048
rand_sets[33]: 1622
Assign rand_sets[34]: 275  LLC: 2048
rand_sets[34]: 275
Assign rand_sets[35]: 635  LLC: 2048
rand_sets[35]: 635
Assign rand_sets[36]: 466  LLC: 2048
rand_sets[36]: 466
Assign rand_sets[37]: 1413  LLC: 2048
rand_sets[37]: 1413
Assign rand_sets[38]: 417  LLC: 2048
rand_sets[38]: 417
Assign rand_sets[39]: 472  LLC: 2048
rand_sets[39]: 472
Assign rand_sets[40]: 1340  LLC: 2048
rand_sets[40]: 1340
Assign rand_sets[41]: 852  LLC: 2048
rand_sets[41]: 852
Assign rand_sets[42]: 1365  LLC: 2048
rand_sets[42]: 1365
Assign rand_sets[43]: 47  LLC: 2048
rand_sets[43]: 47
Assign rand_sets[44]: 823  LLC: 2048
rand_sets[44]: 823
Assign rand_sets[45]: 686  LLC: 2048
rand_sets[45]: 686
Assign rand_sets[46]: 1637  LLC: 2048
rand_sets[46]: 1637
Assign rand_sets[47]: 1115  LLC: 2048
rand_sets[47]: 1115
Assign rand_sets[48]: 986  LLC: 2048
rand_sets[48]: 986
Assign rand_sets[49]: 258  LLC: 2048
rand_sets[49]: 258
Assign rand_sets[50]: 633  LLC: 2048
rand_sets[50]: 633
Assign rand_sets[51]: 920  LLC: 2048
rand_sets[51]: 920
Assign rand_sets[52]: 204  LLC: 2048
rand_sets[52]: 204
Assign rand_sets[53]: 227  LLC: 2048
rand_sets[53]: 227
Assign rand_sets[54]: 1818  LLC: 2048
rand_sets[54]: 1818
Assign rand_sets[55]: 886  LLC: 2048
rand_sets[55]: 886
Assign rand_sets[56]: 1422  LLC: 2048
rand_sets[56]: 1422
Assign rand_sets[57]: 607  LLC: 2048
rand_sets[57]: 607
Assign rand_sets[58]: 217  LLC: 2048
rand_sets[58]: 217
Assign rand_sets[59]: 1945  LLC: 2048
rand_sets[59]: 1945
Assign rand_sets[60]: 143  LLC: 2048
rand_sets[60]: 143
Assign rand_sets[61]: 1311  LLC: 2048
rand_sets[61]: 1311
Assign rand_sets[62]: 319  LLC: 2048
rand_sets[62]: 319
Assign rand_sets[63]: 1846  LLC: 2048
rand_sets[63]: 1846
 CLEAN-RRIP-POLICY-1: 2-2-1-3-2-3-0-2- CLEAN-RRIP-POLICY-2: 2-2-1-3-2-3-0-2-
 DIRTY-RRIP-POLICY-1: 1-2-0-3-0-3-0-2- DIRTY-RRIP-POLICY-2: 1-2-0-3-0-3-0-2-
 PSEL width: 10
Heartbeat CPU 0 instructions: 10000000 cycles: 4305270 heartbeat IPC: 2.32273 cumulative IPC: 2.32273 (Simulation time: 0 hr 0 min 12 sec) 
Heartbeat CPU 0 instructions: 20000000 cycles: 8617101 heartbeat IPC: 2.3192 cumulative IPC: 2.32097 (Simulation time: 0 hr 0 min 23 sec) 
Heartbeat CPU 0 instructions: 30000003 cycles: 13160977 heartbeat IPC: 2.20076 cumulative IPC: 2.27947 (Simulation time: 0 hr 0 min 35 sec) 
Heartbeat CPU 0 instructions: 40000000 cycles: 17515453 heartbeat IPC: 2.29649 cumulative IPC: 2.2837 (Simulation time: 0 hr 0 min 47 sec) 
Heartbeat CPU 0 instructions: 50000001 cycles: 21878235 heartbeat IPC: 2.29212 cumulative IPC: 2.28538 (Simulation time: 0 hr 0 min 59 sec) 
Heartbeat CPU 0 instructions: 60000000 cycles: 26178397 heartbeat IPC: 2.32549 cumulative IPC: 2.29197 (Simulation time: 0 hr 1 min 10 sec) 
Heartbeat CPU 0 instructions: 70000001 cycles: 30244263 heartbeat IPC: 2.4595 cumulative IPC: 2.31449 (Simulation time: 0 hr 1 min 21 sec) 
Heartbeat CPU 0 instructions: 80000000 cycles: 34523006 heartbeat IPC: 2.33713 cumulative IPC: 2.3173 (Simulation time: 0 hr 1 min 32 sec) 
Heartbeat CPU 0 instructions: 90000001 cycles: 38739604 heartbeat IPC: 2.37158 cumulative IPC: 2.3232 (Simulation time: 0 hr 1 min 43 sec) 
Heartbeat CPU 0 instructions: 100000000 cycles: 42979953 heartbeat IPC: 2.3583 cumulative IPC: 2.32667 (Simulation time: 0 hr 1 min 54 sec) 

Warmup complete CPU 0 instructions: 100000001 cycles: 42979954 (Simulation time: 0 hr 1 min 54 sec) 

Heartbeat CPU 0 instructions: 110000000 cycles: 53088133 heartbeat IPC: 0.989298 cumulative IPC: 0.989298 (Simulation time: 0 hr 2 min 11 sec) 
Heartbeat CPU 0 instructions: 120000000 cycles: 63681291 heartbeat IPC: 0.944006 cumulative IPC: 0.966121 (Simulation time: 0 hr 2 min 28 sec) 
Heartbeat CPU 0 instructions: 130000001 cycles: 74247075 heartbeat IPC: 0.946451 cumulative IPC: 0.959474 (Simulation time: 0 hr 2 min 45 sec) 
Heartbeat CPU 0 instructions: 140000000 cycles: 83919976 heartbeat IPC: 1.03382 cumulative IPC: 0.977039 (Simulation time: 0 hr 3 min 1 sec) 
Heartbeat CPU 0 instructions: 150000001 cycles: 94209347 heartbeat IPC: 0.971877 cumulative IPC: 0.976002 (Simulation time: 0 hr 3 min 18 sec) 
Heartbeat CPU 0 instructions: 160000000 cycles: 104236165 heartbeat IPC: 0.997325 cumulative IPC: 0.979492 (Simulation time: 0 hr 3 min 35 sec) 
Heartbeat CPU 0 instructions: 170000000 cycles: 113876013 heartbeat IPC: 1.03736 cumulative IPC: 0.987361 (Simulation time: 0 hr 3 min 51 sec) 
Heartbeat CPU 0 instructions: 180000000 cycles: 124389574 heartbeat IPC: 0.951153 cumulative IPC: 0.982685 (Simulation time: 0 hr 4 min 8 sec) 
Heartbeat CPU 0 instructions: 190000001 cycles: 134620568 heartbeat IPC: 0.977422 cumulative IPC: 0.982097 (Simulation time: 0 hr 4 min 25 sec) 
Heartbeat CPU 0 instructions: 200000000 cycles: 145153785 heartbeat IPC: 0.949377 cumulative IPC: 0.978724 (Simulation time: 0 hr 4 min 42 sec) 
Heartbeat CPU 0 instructions: 210000002 cycles: 157560278 heartbeat IPC: 0.80603 cumulative IPC: 0.960025 (Simulation time: 0 hr 5 min 0 sec) 
Heartbeat CPU 0 instructions: 220000000 cycles: 170049020 heartbeat IPC: 0.800721 cumulative IPC: 0.944368 (Simulation time: 0 hr 5 min 18 sec) 
Heartbeat CPU 0 instructions: 230000000 cycles: 182170119 heartbeat IPC: 0.825008 cumulative IPC: 0.933974 (Simulation time: 0 hr 5 min 36 sec) 
Heartbeat CPU 0 instructions: 240000000 cycles: 194239645 heartbeat IPC: 0.828533 cumulative IPC: 0.925561 (Simulation time: 0 hr 5 min 54 sec) 
Heartbeat CPU 0 instructions: 250000000 cycles: 206161808 heartbeat IPC: 0.838774 cumulative IPC: 0.91922 (Simulation time: 0 hr 6 min 12 sec) 
Heartbeat CPU 0 instructions: 260000000 cycles: 217672949 heartbeat IPC: 0.868724 cumulative IPC: 0.915892 (Simulation time: 0 hr 6 min 29 sec) 
Heartbeat CPU 0 instructions: 270000003 cycles: 229482452 heartbeat IPC: 0.846776 cumulative IPC: 0.911516 (Simulation time: 0 hr 6 min 47 sec) 
Heartbeat CPU 0 instructions: 280000000 cycles: 240978590 heartbeat IPC: 0.869857 cumulative IPC: 0.909097 (Simulation time: 0 hr 7 min 5 sec) 
Heartbeat CPU 0 instructions: 290000002 cycles: 252430481 heartbeat IPC: 0.873218 cumulative IPC: 0.907135 (Simulation time: 0 hr 7 min 22 sec) 
Heartbeat CPU 0 instructions: 300000000 cycles: 264817728 heartbeat IPC: 0.807282 cumulative IPC: 0.90156 (Simulation time: 0 hr 7 min 40 sec) 
Heartbeat CPU 0 instructions: 310000000 cycles: 276902738 heartbeat IPC: 0.827471 cumulative IPC: 0.897732 (Simulation time: 0 hr 7 min 58 sec) 
Heartbeat CPU 0 instructions: 320000000 cycles: 289489200 heartbeat IPC: 0.794504 cumulative IPC: 0.892461 (Simulation time: 0 hr 8 min 16 sec) 
Heartbeat CPU 0 instructions: 330000003 cycles: 301359723 heartbeat IPC: 0.842423 cumulative IPC: 0.890163 (Simulation time: 0 hr 8 min 34 sec) 
Heartbeat CPU 0 instructions: 340000000 cycles: 313395034 heartbeat IPC: 0.830888 cumulative IPC: 0.887524 (Simulation time: 0 hr 8 min 52 sec) 
Heartbeat CPU 0 instructions: 350000001 cycles: 324347414 heartbeat IPC: 0.913044 cumulative IPC: 0.888518 (Simulation time: 0 hr 9 min 9 sec) 
Heartbeat CPU 0 instructions: 360000000 cycles: 336067773 heartbeat IPC: 0.853216 cumulative IPC: 0.887106 (Simulation time: 0 hr 9 min 27 sec) 
Heartbeat CPU 0 instructions: 370000001 cycles: 347465471 heartbeat IPC: 0.87737 cumulative IPC: 0.886742 (Simulation time: 0 hr 9 min 44 sec) 
Heartbeat CPU 0 instructions: 380000000 cycles: 358434780 heartbeat IPC: 0.911634 cumulative IPC: 0.887607 (Simulation time: 0 hr 10 min 2 sec) 
Heartbeat CPU 0 instructions: 390000003 cycles: 369030422 heartbeat IPC: 0.943785 cumulative IPC: 0.889433 (Simulation time: 0 hr 10 min 19 sec) 
Heartbeat CPU 0 instructions: 400000000 cycles: 379232418 heartbeat IPC: 0.9802 cumulative IPC: 0.892187 (Simulation time: 0 hr 10 min 36 sec) 
Heartbeat CPU 0 instructions: 410000000 cycles: 389727438 heartbeat IPC: 0.952833 cumulative IPC: 0.894022 (Simulation time: 0 hr 10 min 53 sec) 
Heartbeat CPU 0 instructions: 420000000 cycles: 399102232 heartbeat IPC: 1.06669 cumulative IPC: 0.898568 (Simulation time: 0 hr 11 min 10 sec) 
Heartbeat CPU 0 instructions: 430000002 cycles: 408190905 heartbeat IPC: 1.10027 cumulative IPC: 0.903587 (Simulation time: 0 hr 11 min 27 sec) 
Heartbeat CPU 0 instructions: 440000000 cycles: 418428700 heartbeat IPC: 0.976773 cumulative IPC: 0.905583 (Simulation time: 0 hr 11 min 44 sec) 
Heartbeat CPU 0 instructions: 450000002 cycles: 429464732 heartbeat IPC: 0.906123 cumulative IPC: 0.905598 (Simulation time: 0 hr 12 min 1 sec) 
Heartbeat CPU 0 instructions: 460000000 cycles: 440971590 heartbeat IPC: 0.869047 cumulative IPC: 0.904542 (Simulation time: 0 hr 12 min 18 sec) 
Heartbeat CPU 0 instructions: 470000003 cycles: 451146877 heartbeat IPC: 0.982774 cumulative IPC: 0.906492 (Simulation time: 0 hr 12 min 35 sec) 
Heartbeat CPU 0 instructions: 480000000 cycles: 461653595 heartbeat IPC: 0.951772 cumulative IPC: 0.907628 (Simulation time: 0 hr 12 min 52 sec) 
Heartbeat CPU 0 instructions: 490000000 cycles: 471585038 heartbeat IPC: 1.0069 cumulative IPC: 0.909929 (Simulation time: 0 hr 13 min 9 sec) 
Heartbeat CPU 0 instructions: 500000000 cycles: 483324399 heartbeat IPC: 0.851835 cumulative IPC: 0.90838 (Simulation time: 0 hr 13 min 26 sec) 
Heartbeat CPU 0 instructions: 510000002 cycles: 495708512 heartbeat IPC: 0.807486 cumulative IPC: 0.90562 (Simulation time: 0 hr 13 min 44 sec) 
Heartbeat CPU 0 instructions: 520000000 cycles: 507555267 heartbeat IPC: 0.844113 cumulative IPC: 0.904051 (Simulation time: 0 hr 14 min 1 sec) 
Heartbeat CPU 0 instructions: 530000001 cycles: 519356066 heartbeat IPC: 0.8474 cumulative IPC: 0.902648 (Simulation time: 0 hr 14 min 19 sec) 
Heartbeat CPU 0 instructions: 540000000 cycles: 530919264 heartbeat IPC: 0.864813 cumulative IPC: 0.901751 (Simulation time: 0 hr 14 min 36 sec) 
Heartbeat CPU 0 instructions: 550000001 cycles: 542262634 heartbeat IPC: 0.881572 cumulative IPC: 0.901293 (Simulation time: 0 hr 14 min 53 sec) 
Heartbeat CPU 0 instructions: 560000000 cycles: 553776706 heartbeat IPC: 0.868502 cumulative IPC: 0.900554 (Simulation time: 0 hr 15 min 11 sec) 
Heartbeat CPU 0 instructions: 570000000 cycles: 565147216 heartbeat IPC: 0.879468 cumulative IPC: 0.900095 (Simulation time: 0 hr 15 min 28 sec) 
Heartbeat CPU 0 instructions: 580000000 cycles: 575875629 heartbeat IPC: 0.932104 cumulative IPC: 0.900739 (Simulation time: 0 hr 15 min 45 sec) 
Heartbeat CPU 0 instructions: 590000003 cycles: 587226231 heartbeat IPC: 0.881011 cumulative IPC: 0.900328 (Simulation time: 0 hr 16 min 2 sec) 
Heartbeat CPU 0 instructions: 600000000 cycles: 597777118 heartbeat IPC: 0.947787 cumulative IPC: 0.90123 (Simulation time: 0 hr 16 min 19 sec) 
Finished CPU 0 instructions: 500000001 cycles: 554797172 cumulative IPC: 0.90123 (Simulation time: 0 hr 16 min 19 sec) 

CPU 0 Branch Prediction Accuracy: 93.0095% MPKI: 10.0046
Number of Branches: 71558147 Number of Mispredictions: 5002285
Number of LOAD Instructions: 145708893
Number of LOAD Instructions (ROI): 145708893
Number of STORE Instructions: 40463820
Number of STORE Instructions (ROI): 40463820
Total Destination Memory Operands: 45240498
Total Destination Memory Operands (ROI): 45240498
Total Source Memory Operands: 145708893
Total Source Memory Operands (ROI): 145708893
Number of DEPENDED LOADS: 10669933
Number of DEPENDED LOADS (ROI): 10669933
Number of SQ_ADDED: 45240498
Number of SQ_ADDED (ROI): 45240498
Number of LQ_ADDED: 193319149
Number of LQ_ADDED (ROI): 193319149
Number of Instructions read from trace: 600000002

ChampSim completed all CPUs

Region of Interest Statistics

CPU 0 cumulative IPC: 0.90123 instructions: 500000001 cycles: 554797172
ITLB TOTAL     ACCESS:   77992872  HIT:   77992871  MISS:          1
ITLB LOAD      ACCESS:   77992872  HIT:   77992871  MISS:          1
ITLB RFO       ACCESS:          0  HIT:          0  MISS:          0
ITLB PREFETCH  ACCESS:          0  HIT:          0  MISS:          0
ITLB WRITEBACK ACCESS:          0  HIT:          0  MISS:          0
ITLB PREFETCH  REQUESTED:          0  ISSUED:          0  USEFUL:          0  USELESS:          0
ITLB TOTAL MSHR MERGED:          0
ITLB LOAD MSHR MERGED:          0
ITLB RFO MSHR MERGED:          0
ITLB PREFETCH MSHR MERGED:          0
ITLB WRITEBACK MSHR MERGED:          0
ITLB TOTAL ACCESSES:   77992872 HITS:   77992871 MISSES:          1
ITLB LOAD ACCESSES:   77992872 HITS:   77992871 MISSES:          1
ITLB RFO ACCESSES:          0 HITS:          0 MISSES:          0
ITLB PREFETCH ACCESSES:          0 HITS:          0 MISSES:          0
ITLB WRITEBACK ACCESSES:          0 HITS:          0 MISSES:          0
ITLB RQ ACCESS:  499999995
ITLB RQ TO_CACHE:   77992872
ITLB RQ MERGED:  422007123
ITLB RQ FORWARD:          0
ITLB WQ ACCESS:          0
ITLB WQ TO_CACHE:          0
ITLB WQ MERGED:          0
ITLB WQ FORWARD:          0
DTLB TOTAL     ACCESS:   98669985  HIT:   97788649  MISS:     881336
DTLB LOAD      ACCESS:   70890107  HIT:   70028574  MISS:     861533
DTLB RFO       ACCESS:   27779878  HIT:   27760075  MISS:      19803
DTLB PREFETCH  ACCESS:          0  HIT:          0  MISS:          0
DTLB WRITEBACK ACCESS:          0  HIT:          0  MISS:          0
DTLB PREFETCH  REQUESTED:          0  ISSUED:          0  USEFUL:          0  USELESS:          0
DTLB TOTAL MSHR MERGED:      87432
DTLB LOAD MSHR MERGED:      65696
DTLB RFO MSHR MERGED:      21736
DTLB PREFETCH MSHR MERGED:          0
DTLB WRITEBACK MSHR MERGED:          0
DTLB TOTAL ACCESSES:   98757417 HITS:   97788649 MISSES:     968768
DTLB LOAD ACCESSES:   70955803 HITS:   70028574 MISSES:     927229
DTLB RFO ACCESSES:   27801614 HITS:   27760075 MISSES:      41539
DTLB PREFETCH ACCESSES:          0 HITS:          0 MISSES:          0
DTLB WRITEBACK ACCESSES:          0 HITS:          0 MISSES:          0
DTLB RQ ACCESS:  150275121
DTLB RQ TO_CACHE:   98757417
DTLB RQ MERGED:   51517704
DTLB RQ FORWARD:          0
DTLB WQ ACCESS:          0
DTLB WQ TO_CACHE:          0
DTLB WQ MERGED:          0
DTLB WQ FORWARD:          0
L1D TOTAL     ACCESS:  173333355  HIT:  169164721  MISS:    4168634
L1D LOAD      ACCESS:   75283327  HIT:   73402003  MISS:    1881324
L1D RFO       ACCESS:   36778612  HIT:   36572020  MISS:     206592
L1D PREFETCH  ACCESS:   61271416  HIT:   59190698  MISS:    2080718
L1D WRITEBACK ACCESS:          0  HIT:          0  MISS:          0
L1D PREFETCH  REQUESTED:   75386588  ISSUED:   74822406  USEFUL:     415157  USELESS:    1665550
L1D TOTAL MSHR MERGED:     372889
L1D LOAD MSHR MERGED:     112019
L1D RFO MSHR MERGED:     132848
L1D PREFETCH MSHR MERGED:     128022
L1D WRITEBACK MSHR MERGED:          0
L1D TOTAL ACCESSES:  173857888 HITS:  169316365 MISSES:    4541523
L1D LOAD ACCESSES:   75389564 HITS:   73404979 MISSES:    1984585
L1D RFO ACCESSES:   36910080 HITS:   36572020 MISSES:     338060
L1D PREFETCH ACCESSES:   61558244 HITS:   59339366 MISSES:    2218878
L1D WRITEBACK ACCESSES:          0 HITS:          0 MISSES:          0
L1D RQ ACCESS:  112612718
L1D RQ TO_CACHE:   75386588
L1D RQ MERGED:   37223154
L1D RQ FORWARD:          0
L1D WQ ACCESS:   37662403
L1D WQ TO_CACHE:   36910080
L1D WQ MERGED:     752323
L1D WQ FORWARD:     151644
L1I TOTAL     ACCESS:  100700739  HIT:  100700714  MISS:         25
L1I LOAD      ACCESS:  100700739  HIT:  100700714  MISS:         25
L1I RFO       ACCESS:          0  HIT:          0  MISS:          0
L1I PREFETCH  ACCESS:          0  HIT:          0  MISS:          0
L1I WRITEBACK ACCESS:          0  HIT:          0  MISS:          0
L1I PREFETCH  REQUESTED:          0  ISSUED:          0  USEFUL:          0  USELESS:          0
L1I TOTAL MSHR MERGED:         10
L1I LOAD MSHR MERGED:         10
L1I RFO MSHR MERGED:          0
L1I PREFETCH MSHR MERGED:          0
L1I WRITEBACK MSHR MERGED:          0
L1I TOTAL ACCESSES:  100700749 HITS:  100700714 MISSES:         35
L1I LOAD ACCESSES:  100700749 HITS:  100700714 MISSES:         35
L1I RFO ACCESSES:          0 HITS:          0 MISSES:          0
L1I PREFETCH ACCESSES:          0 HITS:          0 MISSES:          0
L1I WRITEBACK ACCESSES:          0 HITS:          0 MISSES:          0
L1I RQ ACCESS:  499999995
L1I RQ TO_CACHE:  100700749
L1I RQ MERGED:  399299246
L1I RQ FORWARD:          0
L1I WQ ACCESS:          0
L1I WQ TO_CACHE:          0
L1I WQ MERGED:          0
L1I WQ FORWARD:          0
L2C TOTAL     ACCESS:    5852584  HIT:    4009394  MISS:    1843190
L2C LOAD      ACCESS:    1872466  HIT:    1061502  MISS:     810964
L2C RFO       ACCESS:     205205  HIT:     100565  MISS:     104640
L2C PREFETCH  ACCESS:    2169280  HIT:    1246114  MISS:     923166
L2C WRITEBACK ACCESS:    1605633  HIT:    1601213  MISS:       4420
L2C PREFETCH  REQUESTED:      91709  ISSUED:      91709  USEFUL:      86451  USELESS:     836738
L2C TOTAL MSHR MERGED:       1004
L2C LOAD MSHR MERGED:        254
L2C RFO MSHR MERGED:          0
L2C PREFETCH MSHR MERGED:        750
L2C WRITEBACK MSHR MERGED:          0
L2C TOTAL ACCESSES:    5853923 HITS:    4009563 MISSES:    1844360
L2C LOAD ACCESSES:    1872591 HITS:    1061627 MISSES:     810964
L2C RFO ACCESSES:     205212 HITS:     100572 MISSES:     104640
L2C PREFETCH ACCESSES:    2170487 HITS:    1246151 MISSES:     924336
L2C WRITEBACK ACCESSES:    1605633 HITS:    1601213 MISSES:       4420
L2C RQ ACCESS:    2077803
L2C RQ TO_CACHE:    2077671
L2C RQ MERGED:          0
L2C RQ FORWARD:          0
L2C WQ ACCESS:    1605633
L2C WQ TO_CACHE:    1605633
L2C WQ MERGED:          0
L2C WQ FORWARD:        169
LLC TOTAL     ACCESS:    2673579  HIT:    2211371  MISS:     462208
LLC LOAD      ACCESS:     810701  HIT:     648995  MISS:     161706
LLC RFO       ACCESS:     104640  HIT:      60712  MISS:      43928
LLC PREFETCH  ACCESS:     923564  HIT:     693891  MISS:     229673
LLC WRITEBACK ACCESS:     834674  HIT:     807773  MISS:      26901
LLC PREFETCH  REQUESTED:          0  ISSUED:          0  USEFUL:       7098  USELESS:     222846
LLC TOTAL MSHR MERGED:          4
LLC LOAD MSHR MERGED:          1
LLC RFO MSHR MERGED:          0
LLC PREFETCH MSHR MERGED:          3
LLC WRITEBACK MSHR MERGED:          0
LLC TOTAL ACCESSES:    2673594 HITS:    2211382 MISSES:     462212
LLC LOAD ACCESSES:     810710 HITS:     649004 MISSES:     161706
LLC RFO ACCESSES:     104640 HITS:      60712 MISSES:      43928
LLC PREFETCH ACCESSES:     923570 HITS:     693893 MISSES:     229677
LLC WRITEBACK ACCESSES:     834674 HITS:     807773 MISSES:      26901
LLC 0 RQ ACCESS:     915350
LLC 0 RQ TO_CACHE:     915341
LLC 0 RQ MERGED:          0
LLC 0 RQ FORWARD:          0
LLC WQ ACCESS:     834674
LLC WQ TO_CACHE:     834674
LLC WQ MERGED:          0
LLC WQ FORWARD:         11
Major fault: 0 Minor fault: 11278
CPU 0 L1D next line prefetcher final stats
CPU 0 L2C PC-based stride prefetcher final stats
All Misses: 572173
All Hits: 2482424
SD Algo Stats - Switches: 0 SRR-Repls: 194127 BRR-Repls: 0

DRAM Statistics
 CHANNEL 0
 RQ ROW_BUFFER_HIT:      28847  ROW_BUFFER_MISS:     406193
 DBUS_CONGESTED:     332073
 WQ ROW_BUFFER_HIT:      12816  ROW_BUFFER_MISS:     191205  FULL:          0

 AVG_CONGESTED_CYCLE: 13
LOADS RETIRED: 121769268
INSTR RETIRED: 500000000
