
*** ChampSim Multicore Out-of-Order Simulator ***

Warmup Instructions: 100000000
Simulation Instructions: 500000000
Number of CPUs: 1
LLC sets: 2048
LLC ways: 16
Clean RRIP Policies: 2213230222132302 Dirty RRIP Policies: 1203130212031302 PSEL Width: 10 Track Set: 4294967295 PSEL Mask: 1 Demote Mask: 1043100010431000DS Algo: 0Window size: 0
Off-chip DRAM Size: 4096 MB Channels: 1 Width: 64-bit Data Rate: 1600 MT/s

CPU 0 runs /mnt/beegfs/iconst01/spec2017/Xz.trace.gz
NOT SORTED
TRACE STRING: /mnt/beegfs/iconst01/spec2017/Xz.trace.gz
SORTED
TRACE STRING: /mnt/beegfs/iconst01/spec2017/Xz.trace.gz
INITIAL
TRACE STRING: /mnt/beegfs/iconst01/spec2017/Xz.trace.gz

champsim_seed used: 210

CPU 0 L1D next line prefetcher
CPU 0 L2C IP-based stride prefetcher
Initialize DRRIP state
Assign rand_sets[0]: 454  LLC: 2048
rand_sets[0]: 454
Assign rand_sets[1]: 1662  LLC: 2048
rand_sets[1]: 1662
Assign rand_sets[2]: 1921  LLC: 2048
rand_sets[2]: 1921
Assign rand_sets[3]: 1131  LLC: 2048
rand_sets[3]: 1131
Assign rand_sets[4]: 331  LLC: 2048
rand_sets[4]: 331
Assign rand_sets[5]: 1531  LLC: 2048
rand_sets[5]: 1531
Assign rand_sets[6]: 482  LLC: 2048
rand_sets[6]: 482
Assign rand_sets[7]: 1275  LLC: 2048
rand_sets[7]: 1275
Assign rand_sets[8]: 1876  LLC: 2048
rand_sets[8]: 1876
Assign rand_sets[9]: 2038  LLC: 2048
rand_sets[9]: 2038
Assign rand_sets[10]: 701  LLC: 2048
rand_sets[10]: 701
Assign rand_sets[11]: 479  LLC: 2048
rand_sets[11]: 479
Assign rand_sets[12]: 892  LLC: 2048
rand_sets[12]: 892
Assign rand_sets[13]: 1820  LLC: 2048
rand_sets[13]: 1820
Assign rand_sets[14]: 1505  LLC: 2048
rand_sets[14]: 1505
Assign rand_sets[15]: 1159  LLC: 2048
rand_sets[15]: 1159
Assign rand_sets[16]: 513  LLC: 2048
rand_sets[16]: 513
Assign rand_sets[17]: 703  LLC: 2048
rand_sets[17]: 703
Assign rand_sets[18]: 561  LLC: 2048
rand_sets[18]: 561
Assign rand_sets[19]: 990  LLC: 2048
rand_sets[19]: 990
Assign rand_sets[20]: 342  LLC: 2048
rand_sets[20]: 342
Assign rand_sets[21]: 882  LLC: 2048
rand_sets[21]: 882
Assign rand_sets[22]: 15  LLC: 2048
rand_sets[22]: 15
Assign rand_sets[23]: 71  LLC: 2048
rand_sets[23]: 71
Assign rand_sets[24]: 1127  LLC: 2048
rand_sets[24]: 1127
Assign rand_sets[25]: 1382  LLC: 2048
rand_sets[25]: 1382
Assign rand_sets[26]: 647  LLC: 2048
rand_sets[26]: 647
Assign rand_sets[27]: 857  LLC: 2048
rand_sets[27]: 857
Assign rand_sets[28]: 1450  LLC: 2048
rand_sets[28]: 1450
Assign rand_sets[29]: 1160  LLC: 2048
rand_sets[29]: 1160
Assign rand_sets[30]: 1852  LLC: 2048
rand_sets[30]: 1852
Assign rand_sets[31]: 1881  LLC: 2048
rand_sets[31]: 1881
Assign rand_sets[32]: 1770  LLC: 2048
rand_sets[32]: 1770
Assign rand_sets[33]: 1622  LLC: 2048
rand_sets[33]: 1622
Assign rand_sets[34]: 275  LLC: 2048
rand_sets[34]: 275
Assign rand_sets[35]: 635  LLC: 2048
rand_sets[35]: 635
Assign rand_sets[36]: 466  LLC: 2048
rand_sets[36]: 466
Assign rand_sets[37]: 1413  LLC: 2048
rand_sets[37]: 1413
Assign rand_sets[38]: 417  LLC: 2048
rand_sets[38]: 417
Assign rand_sets[39]: 472  LLC: 2048
rand_sets[39]: 472
Assign rand_sets[40]: 1340  LLC: 2048
rand_sets[40]: 1340
Assign rand_sets[41]: 852  LLC: 2048
rand_sets[41]: 852
Assign rand_sets[42]: 1365  LLC: 2048
rand_sets[42]: 1365
Assign rand_sets[43]: 47  LLC: 2048
rand_sets[43]: 47
Assign rand_sets[44]: 823  LLC: 2048
rand_sets[44]: 823
Assign rand_sets[45]: 686  LLC: 2048
rand_sets[45]: 686
Assign rand_sets[46]: 1637  LLC: 2048
rand_sets[46]: 1637
Assign rand_sets[47]: 1115  LLC: 2048
rand_sets[47]: 1115
Assign rand_sets[48]: 986  LLC: 2048
rand_sets[48]: 986
Assign rand_sets[49]: 258  LLC: 2048
rand_sets[49]: 258
Assign rand_sets[50]: 633  LLC: 2048
rand_sets[50]: 633
Assign rand_sets[51]: 920  LLC: 2048
rand_sets[51]: 920
Assign rand_sets[52]: 204  LLC: 2048
rand_sets[52]: 204
Assign rand_sets[53]: 227  LLC: 2048
rand_sets[53]: 227
Assign rand_sets[54]: 1818  LLC: 2048
rand_sets[54]: 1818
Assign rand_sets[55]: 886  LLC: 2048
rand_sets[55]: 886
Assign rand_sets[56]: 1422  LLC: 2048
rand_sets[56]: 1422
Assign rand_sets[57]: 607  LLC: 2048
rand_sets[57]: 607
Assign rand_sets[58]: 217  LLC: 2048
rand_sets[58]: 217
Assign rand_sets[59]: 1945  LLC: 2048
rand_sets[59]: 1945
Assign rand_sets[60]: 143  LLC: 2048
rand_sets[60]: 143
Assign rand_sets[61]: 1311  LLC: 2048
rand_sets[61]: 1311
Assign rand_sets[62]: 319  LLC: 2048
rand_sets[62]: 319
Assign rand_sets[63]: 1846  LLC: 2048
rand_sets[63]: 1846
 CLEAN-RRIP-POLICY-1: 2-2-1-3-2-3-0-2- CLEAN-RRIP-POLICY-2: 2-2-1-3-2-3-0-2-
 DIRTY-RRIP-POLICY-1: 1-2-0-3-1-3-0-2- DIRTY-RRIP-POLICY-2: 1-2-0-3-1-3-0-2-
 PSEL width: 10
Heartbeat CPU 0 instructions: 10000000 cycles: 4305270 heartbeat IPC: 2.32273 cumulative IPC: 2.32273 (Simulation time: 0 hr 0 min 12 sec) 
Heartbeat CPU 0 instructions: 20000000 cycles: 8617101 heartbeat IPC: 2.3192 cumulative IPC: 2.32097 (Simulation time: 0 hr 0 min 24 sec) 
Heartbeat CPU 0 instructions: 30000003 cycles: 13160980 heartbeat IPC: 2.20076 cumulative IPC: 2.27947 (Simulation time: 0 hr 0 min 37 sec) 
Heartbeat CPU 0 instructions: 40000000 cycles: 17515468 heartbeat IPC: 2.29648 cumulative IPC: 2.2837 (Simulation time: 0 hr 0 min 49 sec) 
Heartbeat CPU 0 instructions: 50000001 cycles: 21878261 heartbeat IPC: 2.29211 cumulative IPC: 2.28537 (Simulation time: 0 hr 1 min 0 sec) 
Heartbeat CPU 0 instructions: 60000000 cycles: 26178459 heartbeat IPC: 2.32547 cumulative IPC: 2.29196 (Simulation time: 0 hr 1 min 12 sec) 
Heartbeat CPU 0 instructions: 70000001 cycles: 30244341 heartbeat IPC: 2.45949 cumulative IPC: 2.31448 (Simulation time: 0 hr 1 min 23 sec) 
Heartbeat CPU 0 instructions: 80000000 cycles: 34523123 heartbeat IPC: 2.33711 cumulative IPC: 2.31729 (Simulation time: 0 hr 1 min 35 sec) 
Heartbeat CPU 0 instructions: 90000001 cycles: 38739762 heartbeat IPC: 2.37156 cumulative IPC: 2.32319 (Simulation time: 0 hr 1 min 46 sec) 
Heartbeat CPU 0 instructions: 100000000 cycles: 42980145 heartbeat IPC: 2.35828 cumulative IPC: 2.32666 (Simulation time: 0 hr 1 min 57 sec) 

Warmup complete CPU 0 instructions: 100000001 cycles: 42980146 (Simulation time: 0 hr 1 min 57 sec) 

Heartbeat CPU 0 instructions: 110000000 cycles: 53101123 heartbeat IPC: 0.988047 cumulative IPC: 0.988047 (Simulation time: 0 hr 2 min 15 sec) 
Heartbeat CPU 0 instructions: 120000000 cycles: 63714147 heartbeat IPC: 0.942239 cumulative IPC: 0.964599 (Simulation time: 0 hr 2 min 32 sec) 
Heartbeat CPU 0 instructions: 130000001 cycles: 74298112 heartbeat IPC: 0.944826 cumulative IPC: 0.957917 (Simulation time: 0 hr 2 min 50 sec) 
Heartbeat CPU 0 instructions: 140000000 cycles: 83979499 heartbeat IPC: 1.03291 cumulative IPC: 0.975625 (Simulation time: 0 hr 3 min 7 sec) 
Heartbeat CPU 0 instructions: 150000001 cycles: 94277565 heartbeat IPC: 0.971056 cumulative IPC: 0.974708 (Simulation time: 0 hr 3 min 24 sec) 
Heartbeat CPU 0 instructions: 160000000 cycles: 104318392 heartbeat IPC: 0.995934 cumulative IPC: 0.978182 (Simulation time: 0 hr 3 min 42 sec) 
Heartbeat CPU 0 instructions: 170000000 cycles: 113974480 heartbeat IPC: 1.03562 cumulative IPC: 0.985994 (Simulation time: 0 hr 3 min 59 sec) 
Heartbeat CPU 0 instructions: 180000000 cycles: 124495817 heartbeat IPC: 0.95045 cumulative IPC: 0.981406 (Simulation time: 0 hr 4 min 16 sec) 
Heartbeat CPU 0 instructions: 190000001 cycles: 134743549 heartbeat IPC: 0.975826 cumulative IPC: 0.980783 (Simulation time: 0 hr 4 min 34 sec) 
Heartbeat CPU 0 instructions: 200000000 cycles: 145290768 heartbeat IPC: 0.948117 cumulative IPC: 0.977416 (Simulation time: 0 hr 4 min 52 sec) 
Heartbeat CPU 0 instructions: 210000002 cycles: 157731393 heartbeat IPC: 0.803818 cumulative IPC: 0.958595 (Simulation time: 0 hr 5 min 10 sec) 
Heartbeat CPU 0 instructions: 220000000 cycles: 170237375 heartbeat IPC: 0.799617 cumulative IPC: 0.942972 (Simulation time: 0 hr 5 min 29 sec) 
Heartbeat CPU 0 instructions: 230000000 cycles: 182383574 heartbeat IPC: 0.823303 cumulative IPC: 0.932545 (Simulation time: 0 hr 5 min 48 sec) 
Heartbeat CPU 0 instructions: 240000000 cycles: 194480281 heartbeat IPC: 0.826671 cumulative IPC: 0.924092 (Simulation time: 0 hr 6 min 7 sec) 
Heartbeat CPU 0 instructions: 250000000 cycles: 206411359 heartbeat IPC: 0.838147 cumulative IPC: 0.917817 (Simulation time: 0 hr 6 min 25 sec) 
Heartbeat CPU 0 instructions: 260000000 cycles: 217938578 heartbeat IPC: 0.867512 cumulative IPC: 0.914503 (Simulation time: 0 hr 6 min 44 sec) 
Heartbeat CPU 0 instructions: 270000003 cycles: 229778512 heartbeat IPC: 0.8446 cumulative IPC: 0.910072 (Simulation time: 0 hr 7 min 2 sec) 
Heartbeat CPU 0 instructions: 280000000 cycles: 241285034 heartbeat IPC: 0.869072 cumulative IPC: 0.907693 (Simulation time: 0 hr 7 min 20 sec) 
Heartbeat CPU 0 instructions: 290000002 cycles: 252762992 heartbeat IPC: 0.871235 cumulative IPC: 0.905698 (Simulation time: 0 hr 7 min 39 sec) 
Heartbeat CPU 0 instructions: 300000000 cycles: 265174167 heartbeat IPC: 0.805725 cumulative IPC: 0.900114 (Simulation time: 0 hr 7 min 57 sec) 
Heartbeat CPU 0 instructions: 310000000 cycles: 277282055 heartbeat IPC: 0.825908 cumulative IPC: 0.89628 (Simulation time: 0 hr 8 min 16 sec) 
Heartbeat CPU 0 instructions: 320000000 cycles: 289900486 heartbeat IPC: 0.792492 cumulative IPC: 0.890976 (Simulation time: 0 hr 8 min 35 sec) 
Heartbeat CPU 0 instructions: 330000003 cycles: 301798319 heartbeat IPC: 0.840489 cumulative IPC: 0.888655 (Simulation time: 0 hr 8 min 53 sec) 
Heartbeat CPU 0 instructions: 340000000 cycles: 313866655 heartbeat IPC: 0.828614 cumulative IPC: 0.88598 (Simulation time: 0 hr 9 min 12 sec) 
Heartbeat CPU 0 instructions: 350000001 cycles: 324847227 heartbeat IPC: 0.910699 cumulative IPC: 0.886943 (Simulation time: 0 hr 9 min 30 sec) 
Heartbeat CPU 0 instructions: 360000000 cycles: 336600767 heartbeat IPC: 0.850807 cumulative IPC: 0.885496 (Simulation time: 0 hr 9 min 48 sec) 
Heartbeat CPU 0 instructions: 370000001 cycles: 348009293 heartbeat IPC: 0.876538 cumulative IPC: 0.885161 (Simulation time: 0 hr 10 min 6 sec) 
Heartbeat CPU 0 instructions: 380000000 cycles: 359001857 heartbeat IPC: 0.909706 cumulative IPC: 0.886015 (Simulation time: 0 hr 10 min 24 sec) 
Heartbeat CPU 0 instructions: 390000003 cycles: 369619866 heartbeat IPC: 0.941796 cumulative IPC: 0.887828 (Simulation time: 0 hr 10 min 42 sec) 
Heartbeat CPU 0 instructions: 400000000 cycles: 379836681 heartbeat IPC: 0.978778 cumulative IPC: 0.890587 (Simulation time: 0 hr 11 min 0 sec) 
Heartbeat CPU 0 instructions: 410000000 cycles: 390345867 heartbeat IPC: 0.951548 cumulative IPC: 0.892431 (Simulation time: 0 hr 11 min 18 sec) 
Heartbeat CPU 0 instructions: 420000000 cycles: 399725617 heartbeat IPC: 1.06613 cumulative IPC: 0.896998 (Simulation time: 0 hr 11 min 35 sec) 
Heartbeat CPU 0 instructions: 430000002 cycles: 408813482 heartbeat IPC: 1.10037 cumulative IPC: 0.90205 (Simulation time: 0 hr 11 min 53 sec) 
Heartbeat CPU 0 instructions: 440000000 cycles: 419065617 heartbeat IPC: 0.975406 cumulative IPC: 0.90405 (Simulation time: 0 hr 12 min 10 sec) 
Heartbeat CPU 0 instructions: 450000002 cycles: 430141715 heartbeat IPC: 0.902845 cumulative IPC: 0.904015 (Simulation time: 0 hr 12 min 28 sec) 
Heartbeat CPU 0 instructions: 460000000 cycles: 441680274 heartbeat IPC: 0.866659 cumulative IPC: 0.902934 (Simulation time: 0 hr 12 min 46 sec) 
Heartbeat CPU 0 instructions: 470000003 cycles: 451867080 heartbeat IPC: 0.981662 cumulative IPC: 0.904896 (Simulation time: 0 hr 13 min 3 sec) 
Heartbeat CPU 0 instructions: 480000000 cycles: 462388370 heartbeat IPC: 0.950454 cumulative IPC: 0.906039 (Simulation time: 0 hr 13 min 21 sec) 
Heartbeat CPU 0 instructions: 490000000 cycles: 472332057 heartbeat IPC: 1.00566 cumulative IPC: 0.908346 (Simulation time: 0 hr 13 min 38 sec) 
Heartbeat CPU 0 instructions: 500000000 cycles: 484097834 heartbeat IPC: 0.849923 cumulative IPC: 0.906788 (Simulation time: 0 hr 13 min 56 sec) 
Heartbeat CPU 0 instructions: 510000002 cycles: 496521386 heartbeat IPC: 0.804923 cumulative IPC: 0.903997 (Simulation time: 0 hr 14 min 15 sec) 
Heartbeat CPU 0 instructions: 520000000 cycles: 508386169 heartbeat IPC: 0.84283 cumulative IPC: 0.902438 (Simulation time: 0 hr 14 min 33 sec) 
Heartbeat CPU 0 instructions: 530000001 cycles: 520222713 heartbeat IPC: 0.844841 cumulative IPC: 0.901009 (Simulation time: 0 hr 14 min 51 sec) 
Heartbeat CPU 0 instructions: 540000000 cycles: 531800651 heartbeat IPC: 0.863712 cumulative IPC: 0.900126 (Simulation time: 0 hr 15 min 9 sec) 
Heartbeat CPU 0 instructions: 550000001 cycles: 543161973 heartbeat IPC: 0.880179 cumulative IPC: 0.899673 (Simulation time: 0 hr 15 min 27 sec) 
Heartbeat CPU 0 instructions: 560000000 cycles: 554691203 heartbeat IPC: 0.867361 cumulative IPC: 0.898945 (Simulation time: 0 hr 15 min 45 sec) 
Heartbeat CPU 0 instructions: 570000000 cycles: 566067712 heartbeat IPC: 0.879004 cumulative IPC: 0.898511 (Simulation time: 0 hr 16 min 3 sec) 
Heartbeat CPU 0 instructions: 580000000 cycles: 576807851 heartbeat IPC: 0.931087 cumulative IPC: 0.899167 (Simulation time: 0 hr 16 min 20 sec) 
Heartbeat CPU 0 instructions: 590000003 cycles: 588172352 heartbeat IPC: 0.879933 cumulative IPC: 0.898766 (Simulation time: 0 hr 16 min 38 sec) 
Heartbeat CPU 0 instructions: 600000000 cycles: 598742131 heartbeat IPC: 0.946093 cumulative IPC: 0.899666 (Simulation time: 0 hr 16 min 55 sec) 
Finished CPU 0 instructions: 500000001 cycles: 555761993 cumulative IPC: 0.899666 (Simulation time: 0 hr 16 min 55 sec) 

CPU 0 Branch Prediction Accuracy: 93.0095% MPKI: 10.0046
Number of Branches: 71558147 Number of Mispredictions: 5002285
Number of LOAD Instructions: 145708893
Number of LOAD Instructions (ROI): 145708893
Number of STORE Instructions: 40463820
Number of STORE Instructions (ROI): 40463820
Total Destination Memory Operands: 45240498
Total Destination Memory Operands (ROI): 45240498
Total Source Memory Operands: 145708893
Total Source Memory Operands (ROI): 145708893
Number of DEPENDED LOADS: 10667871
Number of DEPENDED LOADS (ROI): 10667871
Number of SQ_ADDED: 45240498
Number of SQ_ADDED (ROI): 45240498
Number of LQ_ADDED: 193332977
Number of LQ_ADDED (ROI): 193332977
Number of Instructions read from trace: 600000002

ChampSim completed all CPUs

Region of Interest Statistics

CPU 0 cumulative IPC: 0.899666 instructions: 500000001 cycles: 555761993
ITLB TOTAL     ACCESS:   77992037  HIT:   77992036  MISS:          1
ITLB LOAD      ACCESS:   77992037  HIT:   77992036  MISS:          1
ITLB RFO       ACCESS:          0  HIT:          0  MISS:          0
ITLB PREFETCH  ACCESS:          0  HIT:          0  MISS:          0
ITLB WRITEBACK ACCESS:          0  HIT:          0  MISS:          0
ITLB PREFETCH  REQUESTED:          0  ISSUED:          0  USEFUL:          0  USELESS:          0
ITLB TOTAL MSHR MERGED:          0
ITLB LOAD MSHR MERGED:          0
ITLB RFO MSHR MERGED:          0
ITLB PREFETCH MSHR MERGED:          0
ITLB WRITEBACK MSHR MERGED:          0
ITLB TOTAL ACCESSES:   77992037 HITS:   77992036 MISSES:          1
ITLB LOAD ACCESSES:   77992037 HITS:   77992036 MISSES:          1
ITLB RFO ACCESSES:          0 HITS:          0 MISSES:          0
ITLB PREFETCH ACCESSES:          0 HITS:          0 MISSES:          0
ITLB WRITEBACK ACCESSES:          0 HITS:          0 MISSES:          0
ITLB RQ ACCESS:  499999995
ITLB RQ TO_CACHE:   77992037
ITLB RQ MERGED:  422007958
ITLB RQ FORWARD:          0
ITLB WQ ACCESS:          0
ITLB WQ TO_CACHE:          0
ITLB WQ MERGED:          0
ITLB WQ FORWARD:          0
DTLB TOTAL     ACCESS:   98670418  HIT:   97789081  MISS:     881337
DTLB LOAD      ACCESS:   70890825  HIT:   70029291  MISS:     861534
DTLB RFO       ACCESS:   27779593  HIT:   27759790  MISS:      19803
DTLB PREFETCH  ACCESS:          0  HIT:          0  MISS:          0
DTLB WRITEBACK ACCESS:          0  HIT:          0  MISS:          0
DTLB PREFETCH  REQUESTED:          0  ISSUED:          0  USEFUL:          0  USELESS:          0
DTLB TOTAL MSHR MERGED:      87374
DTLB LOAD MSHR MERGED:      65629
DTLB RFO MSHR MERGED:      21745
DTLB PREFETCH MSHR MERGED:          0
DTLB WRITEBACK MSHR MERGED:          0
DTLB TOTAL ACCESSES:   98757792 HITS:   97789081 MISSES:     968711
DTLB LOAD ACCESSES:   70956454 HITS:   70029291 MISSES:     927163
DTLB RFO ACCESSES:   27801338 HITS:   27759790 MISSES:      41548
DTLB PREFETCH ACCESSES:          0 HITS:          0 MISSES:          0
DTLB WRITEBACK ACCESSES:          0 HITS:          0 MISSES:          0
DTLB RQ ACCESS:  150277176
DTLB RQ TO_CACHE:   98757792
DTLB RQ MERGED:   51519384
DTLB RQ FORWARD:          0
DTLB WQ ACCESS:          0
DTLB WQ TO_CACHE:          0
DTLB WQ MERGED:          0
DTLB WQ FORWARD:          0
L1D TOTAL     ACCESS:  173336586  HIT:  169167958  MISS:    4168628
L1D LOAD      ACCESS:   75285330  HIT:   73404065  MISS:    1881265
L1D RFO       ACCESS:   36778522  HIT:   36571935  MISS:     206587
L1D PREFETCH  ACCESS:   61272734  HIT:   59191958  MISS:    2080776
L1D WRITEBACK ACCESS:          0  HIT:          0  MISS:          0
L1D PREFETCH  REQUESTED:   75389339  ISSUED:   74825153  USEFUL:     415220  USELESS:    1665545
L1D TOTAL MSHR MERGED:     375498
L1D LOAD MSHR MERGED:     112712
L1D RFO MSHR MERGED:     132923
L1D PREFETCH MSHR MERGED:     129863
L1D WRITEBACK MSHR MERGED:          0
L1D TOTAL ACCESSES:  173863505 HITS:  169319379 MISSES:    4544126
L1D LOAD ACCESSES:   75392173 HITS:   73406899 MISSES:    1985274
L1D RFO ACCESSES:   36910069 HITS:   36571935 MISSES:     338134
L1D PREFETCH ACCESSES:   61561263 HITS:   59340545 MISSES:    2220718
L1D WRITEBACK ACCESSES:          0 HITS:          0 MISSES:          0
L1D RQ ACCESS:  112614773
L1D RQ TO_CACHE:   75389339
L1D RQ MERGED:   37222600
L1D RQ FORWARD:          0
L1D WQ ACCESS:   37662403
L1D WQ TO_CACHE:   36910069
L1D WQ MERGED:     752334
L1D WQ FORWARD:     151421
L1I TOTAL     ACCESS:  100700117  HIT:  100700092  MISS:         25
L1I LOAD      ACCESS:  100700117  HIT:  100700092  MISS:         25
L1I RFO       ACCESS:          0  HIT:          0  MISS:          0
L1I PREFETCH  ACCESS:          0  HIT:          0  MISS:          0
L1I WRITEBACK ACCESS:          0  HIT:          0  MISS:          0
L1I PREFETCH  REQUESTED:          0  ISSUED:          0  USEFUL:          0  USELESS:          0
L1I TOTAL MSHR MERGED:         10
L1I LOAD MSHR MERGED:         10
L1I RFO MSHR MERGED:          0
L1I PREFETCH MSHR MERGED:          0
L1I WRITEBACK MSHR MERGED:          0
L1I TOTAL ACCESSES:  100700127 HITS:  100700092 MISSES:         35
L1I LOAD ACCESSES:  100700127 HITS:  100700092 MISSES:         35
L1I RFO ACCESSES:          0 HITS:          0 MISSES:          0
L1I PREFETCH ACCESSES:          0 HITS:          0 MISSES:          0
L1I WRITEBACK ACCESSES:          0 HITS:          0 MISSES:          0
L1I RQ ACCESS:  499999995
L1I RQ TO_CACHE:  100700127
L1I RQ MERGED:  399299868
L1I RQ FORWARD:          0
L1I WQ ACCESS:          0
L1I WQ TO_CACHE:          0
L1I WQ MERGED:          0
L1I WQ FORWARD:          0
L2C TOTAL     ACCESS:    5852584  HIT:    4009394  MISS:    1843190
L2C LOAD      ACCESS:    1872463  HIT:    1061515  MISS:     810948
L2C RFO       ACCESS:     205204  HIT:     100563  MISS:     104641
L2C PREFETCH  ACCESS:    2169287  HIT:    1246105  MISS:     923182
L2C WRITEBACK ACCESS:    1605630  HIT:    1601211  MISS:       4419
L2C PREFETCH  REQUESTED:      91714  ISSUED:      91714  USEFUL:      86459  USELESS:     836746
L2C TOTAL MSHR MERGED:       1010
L2C LOAD MSHR MERGED:        249
L2C RFO MSHR MERGED:          0
L2C PREFETCH MSHR MERGED:        761
L2C WRITEBACK MSHR MERGED:          0
L2C TOTAL ACCESSES:    5853927 HITS:    4009562 MISSES:    1844365
L2C LOAD ACCESSES:    1872587 HITS:    1061639 MISSES:     810948
L2C RFO ACCESSES:     205211 HITS:     100570 MISSES:     104641
L2C PREFETCH ACCESSES:    2170499 HITS:    1246142 MISSES:     924357
L2C WRITEBACK ACCESSES:    1605630 HITS:    1601211 MISSES:       4419
L2C RQ ACCESS:    2077798
L2C RQ TO_CACHE:    2077667
L2C RQ MERGED:          0
L2C RQ FORWARD:          0
L2C WQ ACCESS:    1605630
L2C WQ TO_CACHE:    1605630
L2C WQ MERGED:          0
L2C WQ FORWARD:        168
LLC TOTAL     ACCESS:    2673579  HIT:    2181764  MISS:     491815
LLC LOAD      ACCESS:     810689  HIT:     640387  MISS:     170302
LLC RFO       ACCESS:     104641  HIT:      60577  MISS:      44064
LLC PREFETCH  ACCESS:     923572  HIT:     680735  MISS:     242837
LLC WRITEBACK ACCESS:     834677  HIT:     800065  MISS:      34612
LLC PREFETCH  REQUESTED:          0  ISSUED:          0  USEFUL:       7547  USELESS:     235617
LLC TOTAL MSHR MERGED:          9
LLC LOAD MSHR MERGED:          2
LLC RFO MSHR MERGED:          0
LLC PREFETCH MSHR MERGED:          7
LLC WRITEBACK MSHR MERGED:          0
LLC TOTAL ACCESSES:    2673600 HITS:    2181776 MISSES:     491824
LLC LOAD ACCESSES:     810699 HITS:     640397 MISSES:     170302
LLC RFO ACCESSES:     104641 HITS:      60577 MISSES:      44064
LLC PREFETCH ACCESSES:     923583 HITS:     680737 MISSES:     242846
LLC WRITEBACK ACCESSES:     834677 HITS:     800065 MISSES:      34612
LLC 0 RQ ACCESS:     915340
LLC 0 RQ TO_CACHE:     915330
LLC 0 RQ MERGED:          0
LLC 0 RQ FORWARD:          0
LLC WQ ACCESS:     834677
LLC WQ TO_CACHE:     834677
LLC WQ MERGED:          0
LLC WQ FORWARD:         12
Major fault: 0 Minor fault: 11278
CPU 0 L1D next line prefetcher final stats
CPU 0 L2C PC-based stride prefetcher final stats
All Misses: 603866
All Hits: 2450731
SD Algo Stats - Switches: 0 SRR-Repls: 203288 BRR-Repls: 0

DRAM Statistics
 CHANNEL 0
 RQ ROW_BUFFER_HIT:      29706  ROW_BUFFER_MISS:     427142
 DBUS_CONGESTED:     337789
 WQ ROW_BUFFER_HIT:      12826  ROW_BUFFER_MISS:     191455  FULL:          0

 AVG_CONGESTED_CYCLE: 13
LOADS RETIRED: 121769268
INSTR RETIRED: 500000000
