
*** ChampSim Multicore Out-of-Order Simulator ***

Warmup Instructions: 100000000
Simulation Instructions: 500000000
Number of CPUs: 1
LLC sets: 2048
LLC ways: 16
Clean RRIP Policies: 2212102322121023 Dirty RRIP Policies: 2222201322222013 PSEL Width: 10 Track Set: 4294967295 PSEL Mask: 1 Demote Mask: 3241144332411443DS Algo: 0Window size: 0
Off-chip DRAM Size: 4096 MB Channels: 1 Width: 64-bit Data Rate: 1600 MT/s

CPU 0 runs /mnt/beegfs/iconst01/spec2017/Gcc.trace.gz
NOT SORTED
TRACE STRING: /mnt/beegfs/iconst01/spec2017/Gcc.trace.gz
SORTED
TRACE STRING: /mnt/beegfs/iconst01/spec2017/Gcc.trace.gz
INITIAL
TRACE STRING: /mnt/beegfs/iconst01/spec2017/Gcc.trace.gz

champsim_seed used: 269

CPU 0 L1D next line prefetcher
CPU 0 L2C IP-based stride prefetcher
Initialize DRRIP state
Assign rand_sets[0]: 454  LLC: 2048
rand_sets[0]: 454
Assign rand_sets[1]: 1662  LLC: 2048
rand_sets[1]: 1662
Assign rand_sets[2]: 1921  LLC: 2048
rand_sets[2]: 1921
Assign rand_sets[3]: 1131  LLC: 2048
rand_sets[3]: 1131
Assign rand_sets[4]: 331  LLC: 2048
rand_sets[4]: 331
Assign rand_sets[5]: 1531  LLC: 2048
rand_sets[5]: 1531
Assign rand_sets[6]: 482  LLC: 2048
rand_sets[6]: 482
Assign rand_sets[7]: 1275  LLC: 2048
rand_sets[7]: 1275
Assign rand_sets[8]: 1876  LLC: 2048
rand_sets[8]: 1876
Assign rand_sets[9]: 2038  LLC: 2048
rand_sets[9]: 2038
Assign rand_sets[10]: 701  LLC: 2048
rand_sets[10]: 701
Assign rand_sets[11]: 479  LLC: 2048
rand_sets[11]: 479
Assign rand_sets[12]: 892  LLC: 2048
rand_sets[12]: 892
Assign rand_sets[13]: 1820  LLC: 2048
rand_sets[13]: 1820
Assign rand_sets[14]: 1505  LLC: 2048
rand_sets[14]: 1505
Assign rand_sets[15]: 1159  LLC: 2048
rand_sets[15]: 1159
Assign rand_sets[16]: 513  LLC: 2048
rand_sets[16]: 513
Assign rand_sets[17]: 703  LLC: 2048
rand_sets[17]: 703
Assign rand_sets[18]: 561  LLC: 2048
rand_sets[18]: 561
Assign rand_sets[19]: 990  LLC: 2048
rand_sets[19]: 990
Assign rand_sets[20]: 342  LLC: 2048
rand_sets[20]: 342
Assign rand_sets[21]: 882  LLC: 2048
rand_sets[21]: 882
Assign rand_sets[22]: 15  LLC: 2048
rand_sets[22]: 15
Assign rand_sets[23]: 71  LLC: 2048
rand_sets[23]: 71
Assign rand_sets[24]: 1127  LLC: 2048
rand_sets[24]: 1127
Assign rand_sets[25]: 1382  LLC: 2048
rand_sets[25]: 1382
Assign rand_sets[26]: 647  LLC: 2048
rand_sets[26]: 647
Assign rand_sets[27]: 857  LLC: 2048
rand_sets[27]: 857
Assign rand_sets[28]: 1450  LLC: 2048
rand_sets[28]: 1450
Assign rand_sets[29]: 1160  LLC: 2048
rand_sets[29]: 1160
Assign rand_sets[30]: 1852  LLC: 2048
rand_sets[30]: 1852
Assign rand_sets[31]: 1881  LLC: 2048
rand_sets[31]: 1881
Assign rand_sets[32]: 1770  LLC: 2048
rand_sets[32]: 1770
Assign rand_sets[33]: 1622  LLC: 2048
rand_sets[33]: 1622
Assign rand_sets[34]: 275  LLC: 2048
rand_sets[34]: 275
Assign rand_sets[35]: 635  LLC: 2048
rand_sets[35]: 635
Assign rand_sets[36]: 466  LLC: 2048
rand_sets[36]: 466
Assign rand_sets[37]: 1413  LLC: 2048
rand_sets[37]: 1413
Assign rand_sets[38]: 417  LLC: 2048
rand_sets[38]: 417
Assign rand_sets[39]: 472  LLC: 2048
rand_sets[39]: 472
Assign rand_sets[40]: 1340  LLC: 2048
rand_sets[40]: 1340
Assign rand_sets[41]: 852  LLC: 2048
rand_sets[41]: 852
Assign rand_sets[42]: 1365  LLC: 2048
rand_sets[42]: 1365
Assign rand_sets[43]: 47  LLC: 2048
rand_sets[43]: 47
Assign rand_sets[44]: 823  LLC: 2048
rand_sets[44]: 823
Assign rand_sets[45]: 686  LLC: 2048
rand_sets[45]: 686
Assign rand_sets[46]: 1637  LLC: 2048
rand_sets[46]: 1637
Assign rand_sets[47]: 1115  LLC: 2048
rand_sets[47]: 1115
Assign rand_sets[48]: 986  LLC: 2048
rand_sets[48]: 986
Assign rand_sets[49]: 258  LLC: 2048
rand_sets[49]: 258
Assign rand_sets[50]: 633  LLC: 2048
rand_sets[50]: 633
Assign rand_sets[51]: 920  LLC: 2048
rand_sets[51]: 920
Assign rand_sets[52]: 204  LLC: 2048
rand_sets[52]: 204
Assign rand_sets[53]: 227  LLC: 2048
rand_sets[53]: 227
Assign rand_sets[54]: 1818  LLC: 2048
rand_sets[54]: 1818
Assign rand_sets[55]: 886  LLC: 2048
rand_sets[55]: 886
Assign rand_sets[56]: 1422  LLC: 2048
rand_sets[56]: 1422
Assign rand_sets[57]: 607  LLC: 2048
rand_sets[57]: 607
Assign rand_sets[58]: 217  LLC: 2048
rand_sets[58]: 217
Assign rand_sets[59]: 1945  LLC: 2048
rand_sets[59]: 1945
Assign rand_sets[60]: 143  LLC: 2048
rand_sets[60]: 143
Assign rand_sets[61]: 1311  LLC: 2048
rand_sets[61]: 1311
Assign rand_sets[62]: 319  LLC: 2048
rand_sets[62]: 319
Assign rand_sets[63]: 1846  LLC: 2048
rand_sets[63]: 1846
 CLEAN-RRIP-POLICY-1: 2-2-1-2-1-0-2-3- CLEAN-RRIP-POLICY-2: 2-2-1-2-1-0-2-3-
 DIRTY-RRIP-POLICY-1: 2-2-2-2-2-0-1-3- DIRTY-RRIP-POLICY-2: 2-2-2-2-2-0-1-3-
 PSEL width: 10
Heartbeat CPU 0 instructions: 10000001 cycles: 7320815 heartbeat IPC: 1.36597 cumulative IPC: 1.36597 (Simulation time: 0 hr 0 min 15 sec) 
Heartbeat CPU 0 instructions: 20000000 cycles: 14325327 heartbeat IPC: 1.42765 cumulative IPC: 1.39613 (Simulation time: 0 hr 0 min 29 sec) 
Heartbeat CPU 0 instructions: 30000001 cycles: 21041799 heartbeat IPC: 1.48888 cumulative IPC: 1.42573 (Simulation time: 0 hr 0 min 45 sec) 
Heartbeat CPU 0 instructions: 40000000 cycles: 27503980 heartbeat IPC: 1.54746 cumulative IPC: 1.45433 (Simulation time: 0 hr 1 min 1 sec) 
Heartbeat CPU 0 instructions: 50000001 cycles: 33607097 heartbeat IPC: 1.63851 cumulative IPC: 1.48778 (Simulation time: 0 hr 1 min 17 sec) 
Heartbeat CPU 0 instructions: 60000000 cycles: 40089757 heartbeat IPC: 1.54258 cumulative IPC: 1.49664 (Simulation time: 0 hr 1 min 33 sec) 
Heartbeat CPU 0 instructions: 70000000 cycles: 47133405 heartbeat IPC: 1.41972 cumulative IPC: 1.48515 (Simulation time: 0 hr 1 min 47 sec) 
Heartbeat CPU 0 instructions: 80000000 cycles: 54229854 heartbeat IPC: 1.40916 cumulative IPC: 1.4752 (Simulation time: 0 hr 2 min 2 sec) 
Heartbeat CPU 0 instructions: 90000003 cycles: 61241382 heartbeat IPC: 1.42622 cumulative IPC: 1.46959 (Simulation time: 0 hr 2 min 17 sec) 
Heartbeat CPU 0 instructions: 100000000 cycles: 68416033 heartbeat IPC: 1.3938 cumulative IPC: 1.46165 (Simulation time: 0 hr 2 min 31 sec) 

Warmup complete CPU 0 instructions: 100000004 cycles: 68416034 (Simulation time: 0 hr 2 min 31 sec) 

Heartbeat CPU 0 instructions: 110000003 cycles: 97322502 heartbeat IPC: 0.345943 cumulative IPC: 0.345943 (Simulation time: 0 hr 3 min 0 sec) 
Heartbeat CPU 0 instructions: 120000000 cycles: 125427772 heartbeat IPC: 0.355805 cumulative IPC: 0.350805 (Simulation time: 0 hr 3 min 29 sec) 
Heartbeat CPU 0 instructions: 130000000 cycles: 150971965 heartbeat IPC: 0.391478 cumulative IPC: 0.36339 (Simulation time: 0 hr 3 min 58 sec) 
Heartbeat CPU 0 instructions: 140000000 cycles: 182686729 heartbeat IPC: 0.315311 cumulative IPC: 0.350046 (Simulation time: 0 hr 4 min 26 sec) 
Heartbeat CPU 0 instructions: 150000000 cycles: 214147859 heartbeat IPC: 0.317853 cumulative IPC: 0.343096 (Simulation time: 0 hr 4 min 55 sec) 
Heartbeat CPU 0 instructions: 160000000 cycles: 242222855 heartbeat IPC: 0.356189 cumulative IPC: 0.345211 (Simulation time: 0 hr 5 min 23 sec) 
Heartbeat CPU 0 instructions: 170000001 cycles: 270948789 heartbeat IPC: 0.348118 cumulative IPC: 0.345623 (Simulation time: 0 hr 5 min 53 sec) 
Heartbeat CPU 0 instructions: 180000000 cycles: 300231179 heartbeat IPC: 0.341502 cumulative IPC: 0.345103 (Simulation time: 0 hr 6 min 22 sec) 
Heartbeat CPU 0 instructions: 190000002 cycles: 329187739 heartbeat IPC: 0.345345 cumulative IPC: 0.345129 (Simulation time: 0 hr 6 min 51 sec) 
Heartbeat CPU 0 instructions: 200000000 cycles: 358463309 heartbeat IPC: 0.341582 cumulative IPC: 0.344771 (Simulation time: 0 hr 7 min 20 sec) 
Heartbeat CPU 0 instructions: 210000002 cycles: 387241846 heartbeat IPC: 0.347481 cumulative IPC: 0.345016 (Simulation time: 0 hr 7 min 49 sec) 
Heartbeat CPU 0 instructions: 220000000 cycles: 418453062 heartbeat IPC: 0.320398 cumulative IPC: 0.342821 (Simulation time: 0 hr 8 min 18 sec) 
Heartbeat CPU 0 instructions: 230000000 cycles: 447170913 heartbeat IPC: 0.348215 cumulative IPC: 0.34323 (Simulation time: 0 hr 8 min 46 sec) 
Heartbeat CPU 0 instructions: 240000000 cycles: 474129750 heartbeat IPC: 0.370936 cumulative IPC: 0.345071 (Simulation time: 0 hr 9 min 13 sec) 
Heartbeat CPU 0 instructions: 250000000 cycles: 505081960 heartbeat IPC: 0.323079 cumulative IPC: 0.343512 (Simulation time: 0 hr 9 min 43 sec) 
Heartbeat CPU 0 instructions: 260000000 cycles: 532773463 heartbeat IPC: 0.361122 cumulative IPC: 0.344562 (Simulation time: 0 hr 10 min 11 sec) 
Heartbeat CPU 0 instructions: 270000003 cycles: 561996542 heartbeat IPC: 0.342195 cumulative IPC: 0.344422 (Simulation time: 0 hr 10 min 41 sec) 
Heartbeat CPU 0 instructions: 280000000 cycles: 590999889 heartbeat IPC: 0.344788 cumulative IPC: 0.344442 (Simulation time: 0 hr 11 min 11 sec) 
Heartbeat CPU 0 instructions: 290000000 cycles: 620727911 heartbeat IPC: 0.336383 cumulative IPC: 0.344009 (Simulation time: 0 hr 11 min 41 sec) 
Heartbeat CPU 0 instructions: 300000000 cycles: 652340715 heartbeat IPC: 0.316328 cumulative IPC: 0.34251 (Simulation time: 0 hr 12 min 9 sec) 
Heartbeat CPU 0 instructions: 310000001 cycles: 683062022 heartbeat IPC: 0.325507 cumulative IPC: 0.34166 (Simulation time: 0 hr 12 min 38 sec) 
Heartbeat CPU 0 instructions: 320000000 cycles: 712731277 heartbeat IPC: 0.337049 cumulative IPC: 0.341448 (Simulation time: 0 hr 13 min 6 sec) 
Heartbeat CPU 0 instructions: 330000000 cycles: 742456281 heartbeat IPC: 0.336417 cumulative IPC: 0.341226 (Simulation time: 0 hr 13 min 35 sec) 
Heartbeat CPU 0 instructions: 340000000 cycles: 773101132 heartbeat IPC: 0.326319 cumulative IPC: 0.340578 (Simulation time: 0 hr 14 min 4 sec) 
Heartbeat CPU 0 instructions: 350000003 cycles: 800960798 heartbeat IPC: 0.358942 cumulative IPC: 0.341276 (Simulation time: 0 hr 14 min 32 sec) 
Heartbeat CPU 0 instructions: 360000000 cycles: 832413782 heartbeat IPC: 0.317935 cumulative IPC: 0.340315 (Simulation time: 0 hr 15 min 0 sec) 
Heartbeat CPU 0 instructions: 370000000 cycles: 864053439 heartbeat IPC: 0.316059 cumulative IPC: 0.339351 (Simulation time: 0 hr 15 min 29 sec) 
Heartbeat CPU 0 instructions: 380000000 cycles: 896074695 heartbeat IPC: 0.312293 cumulative IPC: 0.338304 (Simulation time: 0 hr 15 min 57 sec) 
Heartbeat CPU 0 instructions: 390000001 cycles: 927112077 heartbeat IPC: 0.322192 cumulative IPC: 0.337721 (Simulation time: 0 hr 16 min 25 sec) 
Heartbeat CPU 0 instructions: 400000000 cycles: 959170442 heartbeat IPC: 0.311931 cumulative IPC: 0.336793 (Simulation time: 0 hr 16 min 54 sec) 
Heartbeat CPU 0 instructions: 410000001 cycles: 989966755 heartbeat IPC: 0.324714 cumulative IPC: 0.33639 (Simulation time: 0 hr 17 min 22 sec) 
Heartbeat CPU 0 instructions: 420000000 cycles: 1020685014 heartbeat IPC: 0.325539 cumulative IPC: 0.33604 (Simulation time: 0 hr 17 min 50 sec) 
Heartbeat CPU 0 instructions: 430000002 cycles: 1051918209 heartbeat IPC: 0.320172 cumulative IPC: 0.335536 (Simulation time: 0 hr 18 min 18 sec) 
Heartbeat CPU 0 instructions: 440000000 cycles: 1084378912 heartbeat IPC: 0.308065 cumulative IPC: 0.334658 (Simulation time: 0 hr 18 min 47 sec) 
Heartbeat CPU 0 instructions: 450000002 cycles: 1116748676 heartbeat IPC: 0.30893 cumulative IPC: 0.333863 (Simulation time: 0 hr 19 min 16 sec) 
Heartbeat CPU 0 instructions: 460000000 cycles: 1147808238 heartbeat IPC: 0.321962 cumulative IPC: 0.333521 (Simulation time: 0 hr 19 min 44 sec) 
Heartbeat CPU 0 instructions: 470000000 cycles: 1178445906 heartbeat IPC: 0.326396 cumulative IPC: 0.333324 (Simulation time: 0 hr 20 min 12 sec) 
Heartbeat CPU 0 instructions: 480000000 cycles: 1209366731 heartbeat IPC: 0.323407 cumulative IPC: 0.333056 (Simulation time: 0 hr 20 min 40 sec) 
Heartbeat CPU 0 instructions: 490000000 cycles: 1240049872 heartbeat IPC: 0.325912 cumulative IPC: 0.332868 (Simulation time: 0 hr 21 min 8 sec) 
Heartbeat CPU 0 instructions: 500000000 cycles: 1271063815 heartbeat IPC: 0.322436 cumulative IPC: 0.332599 (Simulation time: 0 hr 21 min 36 sec) 
Heartbeat CPU 0 instructions: 510000000 cycles: 1307031037 heartbeat IPC: 0.278031 cumulative IPC: 0.331015 (Simulation time: 0 hr 22 min 7 sec) 
Heartbeat CPU 0 instructions: 520000000 cycles: 1335489725 heartbeat IPC: 0.351387 cumulative IPC: 0.331472 (Simulation time: 0 hr 22 min 36 sec) 
Heartbeat CPU 0 instructions: 530000001 cycles: 1366543255 heartbeat IPC: 0.322025 cumulative IPC: 0.331246 (Simulation time: 0 hr 23 min 4 sec) 
Heartbeat CPU 0 instructions: 540000000 cycles: 1396036864 heartbeat IPC: 0.339056 cumulative IPC: 0.33142 (Simulation time: 0 hr 23 min 33 sec) 
Heartbeat CPU 0 instructions: 550000001 cycles: 1425902080 heartbeat IPC: 0.334838 cumulative IPC: 0.331495 (Simulation time: 0 hr 24 min 3 sec) 
Heartbeat CPU 0 instructions: 560000000 cycles: 1451891189 heartbeat IPC: 0.384777 cumulative IPC: 0.332496 (Simulation time: 0 hr 24 min 30 sec) 
Heartbeat CPU 0 instructions: 570000000 cycles: 1482850304 heartbeat IPC: 0.323007 cumulative IPC: 0.332288 (Simulation time: 0 hr 24 min 59 sec) 
Heartbeat CPU 0 instructions: 580000000 cycles: 1512137038 heartbeat IPC: 0.341452 cumulative IPC: 0.332474 (Simulation time: 0 hr 25 min 28 sec) 
Heartbeat CPU 0 instructions: 590000001 cycles: 1537864077 heartbeat IPC: 0.388696 cumulative IPC: 0.333459 (Simulation time: 0 hr 25 min 55 sec) 
Heartbeat CPU 0 instructions: 600000000 cycles: 1565835169 heartbeat IPC: 0.357512 cumulative IPC: 0.333908 (Simulation time: 0 hr 26 min 23 sec) 
Finished CPU 0 instructions: 500000000 cycles: 1497419157 cumulative IPC: 0.333908 (Simulation time: 0 hr 26 min 23 sec) 

CPU 0 Branch Prediction Accuracy: 86.4311% MPKI: 26.2662
Number of Branches: 96788573 Number of Mispredictions: 13133102
Number of LOAD Instructions: 164682285
Number of LOAD Instructions (ROI): 164682285
Number of STORE Instructions: 78194750
Number of STORE Instructions (ROI): 78194750
Total Destination Memory Operands: 83268534
Total Destination Memory Operands (ROI): 83268534
Total Source Memory Operands: 164712438
Total Source Memory Operands (ROI): 164712438
Number of DEPENDED LOADS: 7059838
Number of DEPENDED LOADS (ROI): 7059838
Number of SQ_ADDED: 83268522
Number of SQ_ADDED (ROI): 83268522
Number of LQ_ADDED: 236499963
Number of LQ_ADDED (ROI): 236499963
Number of Instructions read from trace: 600000066

ChampSim completed all CPUs

Region of Interest Statistics

CPU 0 cumulative IPC: 0.333908 instructions: 500000000 cycles: 1497419157
ITLB TOTAL     ACCESS:  100527987  HIT:  100323541  MISS:     204446
ITLB LOAD      ACCESS:  100527987  HIT:  100323541  MISS:     204446
ITLB RFO       ACCESS:          0  HIT:          0  MISS:          0
ITLB PREFETCH  ACCESS:          0  HIT:          0  MISS:          0
ITLB WRITEBACK ACCESS:          0  HIT:          0  MISS:          0
ITLB PREFETCH  REQUESTED:          0  ISSUED:          0  USEFUL:          0  USELESS:          0
ITLB TOTAL MSHR MERGED:     172423
ITLB LOAD MSHR MERGED:     172423
ITLB RFO MSHR MERGED:          0
ITLB PREFETCH MSHR MERGED:          0
ITLB WRITEBACK MSHR MERGED:          0
ITLB TOTAL ACCESSES:  100700410 HITS:  100323541 MISSES:     376869
ITLB LOAD ACCESSES:  100700410 HITS:  100323541 MISSES:     376869
ITLB RFO ACCESSES:          0 HITS:          0 MISSES:          0
ITLB PREFETCH ACCESSES:          0 HITS:          0 MISSES:          0
ITLB WRITEBACK ACCESSES:          0 HITS:          0 MISSES:          0
ITLB RQ ACCESS:  500000057
ITLB RQ TO_CACHE:  100700410
ITLB RQ MERGED:  399299647
ITLB RQ FORWARD:          0
ITLB WQ ACCESS:          0
ITLB WQ TO_CACHE:          0
ITLB WQ MERGED:          0
ITLB WQ FORWARD:          0
DTLB TOTAL     ACCESS:  165356351  HIT:  164722002  MISS:     634349
DTLB LOAD      ACCESS:  106304490  HIT:  105734408  MISS:     570082
DTLB RFO       ACCESS:   59051861  HIT:   58987594  MISS:      64267
DTLB PREFETCH  ACCESS:          0  HIT:          0  MISS:          0
DTLB WRITEBACK ACCESS:          0  HIT:          0  MISS:          0
DTLB PREFETCH  REQUESTED:          0  ISSUED:          0  USEFUL:          0  USELESS:          0
DTLB TOTAL MSHR MERGED:      99407
DTLB LOAD MSHR MERGED:      59166
DTLB RFO MSHR MERGED:      40241
DTLB PREFETCH MSHR MERGED:          0
DTLB WRITEBACK MSHR MERGED:          0
DTLB TOTAL ACCESSES:  165455758 HITS:  164722002 MISSES:     733756
DTLB LOAD ACCESSES:  106363656 HITS:  105734408 MISSES:     629248
DTLB RFO ACCESSES:   59092102 HITS:   58987594 MISSES:     104508
DTLB PREFETCH ACCESSES:          0 HITS:          0 MISSES:          0
DTLB WRITEBACK ACCESSES:          0 HITS:          0 MISSES:          0
DTLB RQ ACCESS:  200311085
DTLB RQ TO_CACHE:  165455758
DTLB RQ MERGED:   34855327
DTLB RQ FORWARD:          0
DTLB WQ ACCESS:          0
DTLB WQ TO_CACHE:          0
DTLB WQ MERGED:          0
DTLB WQ FORWARD:          0
L1D TOTAL     ACCESS:  281884838  HIT:  273975412  MISS:    7909426
L1D LOAD      ACCESS:  110440310  HIT:  107163100  MISS:    3277210
L1D RFO       ACCESS:   67120470  HIT:   66229854  MISS:     890616
L1D PREFETCH  ACCESS:  104324058  HIT:  100582458  MISS:    3741600
L1D WRITEBACK ACCESS:          0  HIT:          0  MISS:          0
L1D PREFETCH  REQUESTED:  110833701  ISSUED:  109134263  USEFUL:    1662214  USELESS:    2079350
L1D TOTAL MSHR MERGED:    2861211
L1D LOAD MSHR MERGED:     490744
L1D RFO MSHR MERGED:    1864664
L1D PREFETCH MSHR MERGED:     505803
L1D WRITEBACK MSHR MERGED:          0
L1D TOTAL ACCESSES:  284773577 HITS:  274002940 MISSES:   10770637
L1D LOAD ACCESSES:  110835178 HITS:  107164577 MISSES:    3670601
L1D RFO ACCESSES:   68973243 HITS:   66229854 MISSES:    2743389
L1D PREFETCH ACCESSES:  104965156 HITS:  100608509 MISSES:    4356647
L1D WRITEBACK ACCESSES:          0 HITS:          0 MISSES:          0
L1D RQ ACCESS:  130758482
L1D RQ TO_CACHE:  110833704
L1D RQ MERGED:   19923301
L1D RQ FORWARD:          0
L1D WQ ACCESS:   69552603
L1D WQ TO_CACHE:   68973244
L1D WQ MERGED:     579359
L1D WQ FORWARD:      27528
L1I TOTAL     ACCESS:  126569147  HIT:  122330631  MISS:    4238516
L1I LOAD      ACCESS:  126569147  HIT:  122330631  MISS:    4238516
L1I RFO       ACCESS:          0  HIT:          0  MISS:          0
L1I PREFETCH  ACCESS:          0  HIT:          0  MISS:          0
L1I WRITEBACK ACCESS:          0  HIT:          0  MISS:          0
L1I PREFETCH  REQUESTED:          0  ISSUED:          0  USEFUL:          0  USELESS:          0
L1I TOTAL MSHR MERGED:    1840965
L1I LOAD MSHR MERGED:    1840965
L1I RFO MSHR MERGED:          0
L1I PREFETCH MSHR MERGED:          0
L1I WRITEBACK MSHR MERGED:          0
L1I TOTAL ACCESSES:  128410115 HITS:  122330631 MISSES:    6079484
L1I LOAD ACCESSES:  128410115 HITS:  122330631 MISSES:    6079484
L1I RFO ACCESSES:          0 HITS:          0 MISSES:          0
L1I PREFETCH ACCESSES:          0 HITS:          0 MISSES:          0
L1I WRITEBACK ACCESSES:          0 HITS:          0 MISSES:          0
L1I RQ ACCESS:  500000057
L1I RQ TO_CACHE:  128410115
L1I RQ MERGED:  371589942
L1I RQ FORWARD:          0
L1I WQ ACCESS:          0
L1I WQ TO_CACHE:          0
L1I WQ MERGED:          0
L1I WQ FORWARD:          0
L2C TOTAL     ACCESS:   14905439  HIT:   11159091  MISS:    3746348
L2C LOAD      ACCESS:    7418168  HIT:    5098534  MISS:    2319634
L2C RFO       ACCESS:     878631  HIT:     409965  MISS:     468666
L2C PREFETCH  ACCESS:    4569376  HIT:    3628585  MISS:     940791
L2C WRITEBACK ACCESS:    2039264  HIT:    2022007  MISS:      17257
L2C PREFETCH  REQUESTED:     842545  ISSUED:     842545  USEFUL:     203461  USELESS:     737035
L2C TOTAL MSHR MERGED:       6712
L2C LOAD MSHR MERGED:        755
L2C RFO MSHR MERGED:          0
L2C PREFETCH MSHR MERGED:       5957
L2C WRITEBACK MSHR MERGED:          0
L2C TOTAL ACCESSES:   14913104 HITS:   11159534 MISSES:    3753570
L2C LOAD ACCESSES:    7418373 HITS:    5098739 MISSES:    2319634
L2C RFO ACCESSES:     878725 HITS:     410059 MISSES:     468666
L2C PREFETCH ACCESSES:    4576742 HITS:    3628729 MISSES:     948013
L2C WRITEBACK ACCESSES:    2039264 HITS:    2022007 MISSES:      17257
L2C RQ ACCESS:    8297101
L2C RQ TO_CACHE:    8296802
L2C RQ MERGED:          0
L2C RQ FORWARD:          0
L2C WQ ACCESS:    2039264
L2C WQ TO_CACHE:    2039264
L2C WQ MERGED:          0
L2C WQ FORWARD:        443
LLC TOTAL     ACCESS:    4609671  HIT:    2995382  MISS:    1614289
LLC LOAD      ACCESS:    2318869  HIT:    1201343  MISS:    1117526
LLC RFO       ACCESS:     468656  HIT:     394813  MISS:      73843
LLC PREFETCH  ACCESS:     941915  HIT:     634937  MISS:     306978
LLC WRITEBACK ACCESS:     880231  HIT:     764289  MISS:     115942
LLC PREFETCH  REQUESTED:          0  ISSUED:          0  USEFUL:      16177  USELESS:     291541
LLC TOTAL MSHR MERGED:        120
LLC LOAD MSHR MERGED:         35
LLC RFO MSHR MERGED:          0
LLC PREFETCH MSHR MERGED:         85
LLC WRITEBACK MSHR MERGED:          0
LLC TOTAL ACCESSES:    4609822 HITS:    2995413 MISSES:    1614409
LLC LOAD ACCESSES:    2318879 HITS:    1201353 MISSES:    1117526
LLC RFO ACCESSES:     468666 HITS:     394823 MISSES:      73843
LLC PREFETCH ACCESSES:     942046 HITS:     634948 MISSES:     307098
LLC WRITEBACK ACCESSES:     880231 HITS:     764289 MISSES:     115942
LLC 0 RQ ACCESS:    2787545
LLC 0 RQ TO_CACHE:    2787525
LLC 0 RQ MERGED:          0
LLC 0 RQ FORWARD:          0
LLC WQ ACCESS:     880231
LLC WQ TO_CACHE:     880231
LLC WQ MERGED:          0
LLC WQ FORWARD:         31
Major fault: 0 Minor fault: 12862
CPU 0 L1D next line prefetcher final stats
CPU 0 L2C PC-based stride prefetcher final stats
All Misses: 1846439
All Hits: 3580237
SD Algo Stats - Switches: 0 SRR-Repls: 1248069 BRR-Repls: 0

DRAM Statistics
 CHANNEL 0
 RQ ROW_BUFFER_HIT:     441286  ROW_BUFFER_MISS:    1051125
 DBUS_CONGESTED:     564258
 WQ ROW_BUFFER_HIT:      18317  ROW_BUFFER_MISS:     222859  FULL:          0

 AVG_CONGESTED_CYCLE: 13
LOADS RETIRED: 136549171
INSTR RETIRED: 500000000
