
*** ChampSim Multicore Out-of-Order Simulator ***

Warmup Instructions: 100000000
Simulation Instructions: 500000000
Number of CPUs: 1
LLC sets: 2048
LLC ways: 16
Clean RRIP Policies: 1213230112132301 Dirty RRIP Policies: 2203130122031301 PSEL Width: 10 Track Set: 4294967295 PSEL Mask: 1 Demote Mask: 3040100030401000DS Algo: 0Window size: 0
Off-chip DRAM Size: 4096 MB Channels: 1 Width: 64-bit Data Rate: 1600 MT/s

CPU 0 runs /mnt/beegfs/iconst01/spec2017/Gcc.trace.gz
NOT SORTED
TRACE STRING: /mnt/beegfs/iconst01/spec2017/Gcc.trace.gz
SORTED
TRACE STRING: /mnt/beegfs/iconst01/spec2017/Gcc.trace.gz
INITIAL
TRACE STRING: /mnt/beegfs/iconst01/spec2017/Gcc.trace.gz

champsim_seed used: 269

CPU 0 L1D next line prefetcher
CPU 0 L2C IP-based stride prefetcher
Initialize DRRIP state
Assign rand_sets[0]: 454  LLC: 2048
rand_sets[0]: 454
Assign rand_sets[1]: 1662  LLC: 2048
rand_sets[1]: 1662
Assign rand_sets[2]: 1921  LLC: 2048
rand_sets[2]: 1921
Assign rand_sets[3]: 1131  LLC: 2048
rand_sets[3]: 1131
Assign rand_sets[4]: 331  LLC: 2048
rand_sets[4]: 331
Assign rand_sets[5]: 1531  LLC: 2048
rand_sets[5]: 1531
Assign rand_sets[6]: 482  LLC: 2048
rand_sets[6]: 482
Assign rand_sets[7]: 1275  LLC: 2048
rand_sets[7]: 1275
Assign rand_sets[8]: 1876  LLC: 2048
rand_sets[8]: 1876
Assign rand_sets[9]: 2038  LLC: 2048
rand_sets[9]: 2038
Assign rand_sets[10]: 701  LLC: 2048
rand_sets[10]: 701
Assign rand_sets[11]: 479  LLC: 2048
rand_sets[11]: 479
Assign rand_sets[12]: 892  LLC: 2048
rand_sets[12]: 892
Assign rand_sets[13]: 1820  LLC: 2048
rand_sets[13]: 1820
Assign rand_sets[14]: 1505  LLC: 2048
rand_sets[14]: 1505
Assign rand_sets[15]: 1159  LLC: 2048
rand_sets[15]: 1159
Assign rand_sets[16]: 513  LLC: 2048
rand_sets[16]: 513
Assign rand_sets[17]: 703  LLC: 2048
rand_sets[17]: 703
Assign rand_sets[18]: 561  LLC: 2048
rand_sets[18]: 561
Assign rand_sets[19]: 990  LLC: 2048
rand_sets[19]: 990
Assign rand_sets[20]: 342  LLC: 2048
rand_sets[20]: 342
Assign rand_sets[21]: 882  LLC: 2048
rand_sets[21]: 882
Assign rand_sets[22]: 15  LLC: 2048
rand_sets[22]: 15
Assign rand_sets[23]: 71  LLC: 2048
rand_sets[23]: 71
Assign rand_sets[24]: 1127  LLC: 2048
rand_sets[24]: 1127
Assign rand_sets[25]: 1382  LLC: 2048
rand_sets[25]: 1382
Assign rand_sets[26]: 647  LLC: 2048
rand_sets[26]: 647
Assign rand_sets[27]: 857  LLC: 2048
rand_sets[27]: 857
Assign rand_sets[28]: 1450  LLC: 2048
rand_sets[28]: 1450
Assign rand_sets[29]: 1160  LLC: 2048
rand_sets[29]: 1160
Assign rand_sets[30]: 1852  LLC: 2048
rand_sets[30]: 1852
Assign rand_sets[31]: 1881  LLC: 2048
rand_sets[31]: 1881
Assign rand_sets[32]: 1770  LLC: 2048
rand_sets[32]: 1770
Assign rand_sets[33]: 1622  LLC: 2048
rand_sets[33]: 1622
Assign rand_sets[34]: 275  LLC: 2048
rand_sets[34]: 275
Assign rand_sets[35]: 635  LLC: 2048
rand_sets[35]: 635
Assign rand_sets[36]: 466  LLC: 2048
rand_sets[36]: 466
Assign rand_sets[37]: 1413  LLC: 2048
rand_sets[37]: 1413
Assign rand_sets[38]: 417  LLC: 2048
rand_sets[38]: 417
Assign rand_sets[39]: 472  LLC: 2048
rand_sets[39]: 472
Assign rand_sets[40]: 1340  LLC: 2048
rand_sets[40]: 1340
Assign rand_sets[41]: 852  LLC: 2048
rand_sets[41]: 852
Assign rand_sets[42]: 1365  LLC: 2048
rand_sets[42]: 1365
Assign rand_sets[43]: 47  LLC: 2048
rand_sets[43]: 47
Assign rand_sets[44]: 823  LLC: 2048
rand_sets[44]: 823
Assign rand_sets[45]: 686  LLC: 2048
rand_sets[45]: 686
Assign rand_sets[46]: 1637  LLC: 2048
rand_sets[46]: 1637
Assign rand_sets[47]: 1115  LLC: 2048
rand_sets[47]: 1115
Assign rand_sets[48]: 986  LLC: 2048
rand_sets[48]: 986
Assign rand_sets[49]: 258  LLC: 2048
rand_sets[49]: 258
Assign rand_sets[50]: 633  LLC: 2048
rand_sets[50]: 633
Assign rand_sets[51]: 920  LLC: 2048
rand_sets[51]: 920
Assign rand_sets[52]: 204  LLC: 2048
rand_sets[52]: 204
Assign rand_sets[53]: 227  LLC: 2048
rand_sets[53]: 227
Assign rand_sets[54]: 1818  LLC: 2048
rand_sets[54]: 1818
Assign rand_sets[55]: 886  LLC: 2048
rand_sets[55]: 886
Assign rand_sets[56]: 1422  LLC: 2048
rand_sets[56]: 1422
Assign rand_sets[57]: 607  LLC: 2048
rand_sets[57]: 607
Assign rand_sets[58]: 217  LLC: 2048
rand_sets[58]: 217
Assign rand_sets[59]: 1945  LLC: 2048
rand_sets[59]: 1945
Assign rand_sets[60]: 143  LLC: 2048
rand_sets[60]: 143
Assign rand_sets[61]: 1311  LLC: 2048
rand_sets[61]: 1311
Assign rand_sets[62]: 319  LLC: 2048
rand_sets[62]: 319
Assign rand_sets[63]: 1846  LLC: 2048
rand_sets[63]: 1846
 CLEAN-RRIP-POLICY-1: 1-2-1-3-2-3-0-1- CLEAN-RRIP-POLICY-2: 1-2-1-3-2-3-0-1-
 DIRTY-RRIP-POLICY-1: 2-2-0-3-1-3-0-1- DIRTY-RRIP-POLICY-2: 2-2-0-3-1-3-0-1-
 PSEL width: 10
Heartbeat CPU 0 instructions: 10000001 cycles: 7315979 heartbeat IPC: 1.36687 cumulative IPC: 1.36687 (Simulation time: 0 hr 0 min 14 sec) 
Heartbeat CPU 0 instructions: 20000000 cycles: 14307522 heartbeat IPC: 1.4303 cumulative IPC: 1.39787 (Simulation time: 0 hr 0 min 27 sec) 
Heartbeat CPU 0 instructions: 30000001 cycles: 21020479 heartbeat IPC: 1.48966 cumulative IPC: 1.42718 (Simulation time: 0 hr 0 min 42 sec) 
Heartbeat CPU 0 instructions: 40000000 cycles: 27481316 heartbeat IPC: 1.54779 cumulative IPC: 1.45553 (Simulation time: 0 hr 0 min 56 sec) 
Heartbeat CPU 0 instructions: 50000001 cycles: 33583190 heartbeat IPC: 1.63884 cumulative IPC: 1.48884 (Simulation time: 0 hr 1 min 10 sec) 
Heartbeat CPU 0 instructions: 60000000 cycles: 40064457 heartbeat IPC: 1.54291 cumulative IPC: 1.49759 (Simulation time: 0 hr 1 min 25 sec) 
Heartbeat CPU 0 instructions: 70000000 cycles: 47103880 heartbeat IPC: 1.42057 cumulative IPC: 1.48608 (Simulation time: 0 hr 1 min 39 sec) 
Heartbeat CPU 0 instructions: 80000000 cycles: 54193738 heartbeat IPC: 1.41047 cumulative IPC: 1.47619 (Simulation time: 0 hr 1 min 52 sec) 
Heartbeat CPU 0 instructions: 90000003 cycles: 61198149 heartbeat IPC: 1.42767 cumulative IPC: 1.47063 (Simulation time: 0 hr 2 min 6 sec) 
Heartbeat CPU 0 instructions: 100000000 cycles: 68365538 heartbeat IPC: 1.39521 cumulative IPC: 1.46273 (Simulation time: 0 hr 2 min 19 sec) 

Warmup complete CPU 0 instructions: 100000004 cycles: 68365539 (Simulation time: 0 hr 2 min 19 sec) 

Heartbeat CPU 0 instructions: 110000003 cycles: 96017365 heartbeat IPC: 0.36164 cumulative IPC: 0.36164 (Simulation time: 0 hr 2 min 45 sec) 
Heartbeat CPU 0 instructions: 120000000 cycles: 123482930 heartbeat IPC: 0.364092 cumulative IPC: 0.362862 (Simulation time: 0 hr 3 min 11 sec) 
Heartbeat CPU 0 instructions: 130000000 cycles: 148485637 heartbeat IPC: 0.399957 cumulative IPC: 0.374438 (Simulation time: 0 hr 3 min 36 sec) 
Heartbeat CPU 0 instructions: 140000000 cycles: 178020114 heartbeat IPC: 0.338587 cumulative IPC: 0.364782 (Simulation time: 0 hr 4 min 1 sec) 
Heartbeat CPU 0 instructions: 150000000 cycles: 207888911 heartbeat IPC: 0.334798 cumulative IPC: 0.358363 (Simulation time: 0 hr 4 min 26 sec) 
Heartbeat CPU 0 instructions: 160000000 cycles: 235315697 heartbeat IPC: 0.364607 cumulative IPC: 0.359389 (Simulation time: 0 hr 4 min 50 sec) 
Heartbeat CPU 0 instructions: 170000001 cycles: 263360261 heartbeat IPC: 0.356575 cumulative IPC: 0.358984 (Simulation time: 0 hr 5 min 17 sec) 
Heartbeat CPU 0 instructions: 180000000 cycles: 291837807 heartbeat IPC: 0.351154 cumulative IPC: 0.357986 (Simulation time: 0 hr 5 min 43 sec) 
Heartbeat CPU 0 instructions: 190000002 cycles: 319885583 heartbeat IPC: 0.356535 cumulative IPC: 0.357824 (Simulation time: 0 hr 6 min 8 sec) 
Heartbeat CPU 0 instructions: 200000000 cycles: 348230754 heartbeat IPC: 0.352794 cumulative IPC: 0.357315 (Simulation time: 0 hr 6 min 34 sec) 
Heartbeat CPU 0 instructions: 210000002 cycles: 376093190 heartbeat IPC: 0.358906 cumulative IPC: 0.357459 (Simulation time: 0 hr 6 min 59 sec) 
Heartbeat CPU 0 instructions: 220000000 cycles: 405240524 heartbeat IPC: 0.343084 cumulative IPC: 0.356215 (Simulation time: 0 hr 7 min 23 sec) 
Heartbeat CPU 0 instructions: 230000000 cycles: 432791337 heartbeat IPC: 0.362966 cumulative IPC: 0.356726 (Simulation time: 0 hr 7 min 48 sec) 
Heartbeat CPU 0 instructions: 240000000 cycles: 458692153 heartbeat IPC: 0.386088 cumulative IPC: 0.358674 (Simulation time: 0 hr 8 min 12 sec) 
Heartbeat CPU 0 instructions: 250000000 cycles: 488840708 heartbeat IPC: 0.331691 cumulative IPC: 0.356739 (Simulation time: 0 hr 8 min 39 sec) 
Heartbeat CPU 0 instructions: 260000000 cycles: 515948211 heartbeat IPC: 0.368902 cumulative IPC: 0.357476 (Simulation time: 0 hr 9 min 4 sec) 
Heartbeat CPU 0 instructions: 270000003 cycles: 544425838 heartbeat IPC: 0.351153 cumulative IPC: 0.357098 (Simulation time: 0 hr 9 min 30 sec) 
Heartbeat CPU 0 instructions: 280000000 cycles: 572658442 heartbeat IPC: 0.3542 cumulative IPC: 0.356935 (Simulation time: 0 hr 9 min 56 sec) 
Heartbeat CPU 0 instructions: 290000000 cycles: 601597309 heartbeat IPC: 0.345556 cumulative IPC: 0.356318 (Simulation time: 0 hr 10 min 23 sec) 
Heartbeat CPU 0 instructions: 300000000 cycles: 631574881 heartbeat IPC: 0.333583 cumulative IPC: 0.355108 (Simulation time: 0 hr 10 min 47 sec) 
Heartbeat CPU 0 instructions: 310000001 cycles: 660979585 heartbeat IPC: 0.340082 cumulative IPC: 0.354362 (Simulation time: 0 hr 11 min 12 sec) 
Heartbeat CPU 0 instructions: 320000000 cycles: 689213651 heartbeat IPC: 0.354182 cumulative IPC: 0.354354 (Simulation time: 0 hr 11 min 37 sec) 
Heartbeat CPU 0 instructions: 330000000 cycles: 717863846 heartbeat IPC: 0.349038 cumulative IPC: 0.354119 (Simulation time: 0 hr 12 min 2 sec) 
Heartbeat CPU 0 instructions: 340000000 cycles: 747149847 heartbeat IPC: 0.34146 cumulative IPC: 0.353573 (Simulation time: 0 hr 12 min 27 sec) 
Heartbeat CPU 0 instructions: 350000003 cycles: 774207108 heartbeat IPC: 0.369587 cumulative IPC: 0.354187 (Simulation time: 0 hr 12 min 52 sec) 
Heartbeat CPU 0 instructions: 360000000 cycles: 802318720 heartbeat IPC: 0.355725 cumulative IPC: 0.354246 (Simulation time: 0 hr 13 min 15 sec) 
Heartbeat CPU 0 instructions: 370000000 cycles: 830489868 heartbeat IPC: 0.354973 cumulative IPC: 0.354273 (Simulation time: 0 hr 13 min 39 sec) 
Heartbeat CPU 0 instructions: 380000000 cycles: 858998747 heartbeat IPC: 0.350768 cumulative IPC: 0.354147 (Simulation time: 0 hr 14 min 3 sec) 
Heartbeat CPU 0 instructions: 390000001 cycles: 886609971 heartbeat IPC: 0.362172 cumulative IPC: 0.354417 (Simulation time: 0 hr 14 min 27 sec) 
Heartbeat CPU 0 instructions: 400000000 cycles: 915232435 heartbeat IPC: 0.349376 cumulative IPC: 0.354247 (Simulation time: 0 hr 14 min 51 sec) 
Heartbeat CPU 0 instructions: 410000001 cycles: 942518789 heartbeat IPC: 0.366484 cumulative IPC: 0.354629 (Simulation time: 0 hr 15 min 14 sec) 
Heartbeat CPU 0 instructions: 420000000 cycles: 969815661 heartbeat IPC: 0.366342 cumulative IPC: 0.354984 (Simulation time: 0 hr 15 min 38 sec) 
Heartbeat CPU 0 instructions: 430000002 cycles: 997516117 heartbeat IPC: 0.361005 cumulative IPC: 0.355163 (Simulation time: 0 hr 16 min 2 sec) 
Heartbeat CPU 0 instructions: 440000000 cycles: 1027077240 heartbeat IPC: 0.338282 cumulative IPC: 0.354643 (Simulation time: 0 hr 16 min 26 sec) 
Heartbeat CPU 0 instructions: 450000002 cycles: 1056317397 heartbeat IPC: 0.341996 cumulative IPC: 0.354268 (Simulation time: 0 hr 16 min 50 sec) 
Heartbeat CPU 0 instructions: 460000000 cycles: 1084013844 heartbeat IPC: 0.361057 cumulative IPC: 0.354453 (Simulation time: 0 hr 17 min 14 sec) 
Heartbeat CPU 0 instructions: 470000000 cycles: 1111645237 heartbeat IPC: 0.361907 cumulative IPC: 0.354651 (Simulation time: 0 hr 17 min 38 sec) 
Heartbeat CPU 0 instructions: 480000000 cycles: 1139525313 heartbeat IPC: 0.358679 cumulative IPC: 0.354756 (Simulation time: 0 hr 18 min 2 sec) 
Heartbeat CPU 0 instructions: 490000000 cycles: 1167111501 heartbeat IPC: 0.3625 cumulative IPC: 0.35495 (Simulation time: 0 hr 18 min 25 sec) 
Heartbeat CPU 0 instructions: 500000000 cycles: 1195436608 heartbeat IPC: 0.353044 cumulative IPC: 0.354902 (Simulation time: 0 hr 18 min 49 sec) 
Heartbeat CPU 0 instructions: 510000000 cycles: 1229835940 heartbeat IPC: 0.290703 cumulative IPC: 0.353001 (Simulation time: 0 hr 19 min 16 sec) 
Heartbeat CPU 0 instructions: 520000000 cycles: 1257835536 heartbeat IPC: 0.357148 cumulative IPC: 0.353098 (Simulation time: 0 hr 19 min 41 sec) 
Heartbeat CPU 0 instructions: 530000001 cycles: 1287150756 heartbeat IPC: 0.34112 cumulative IPC: 0.35281 (Simulation time: 0 hr 20 min 6 sec) 
Heartbeat CPU 0 instructions: 540000000 cycles: 1315181332 heartbeat IPC: 0.356753 cumulative IPC: 0.352899 (Simulation time: 0 hr 20 min 31 sec) 
Heartbeat CPU 0 instructions: 550000001 cycles: 1344370176 heartbeat IPC: 0.342597 cumulative IPC: 0.352663 (Simulation time: 0 hr 20 min 57 sec) 
Heartbeat CPU 0 instructions: 560000000 cycles: 1369756837 heartbeat IPC: 0.393908 cumulative IPC: 0.353468 (Simulation time: 0 hr 21 min 22 sec) 
Heartbeat CPU 0 instructions: 570000000 cycles: 1399301978 heartbeat IPC: 0.338465 cumulative IPC: 0.353135 (Simulation time: 0 hr 21 min 47 sec) 
Heartbeat CPU 0 instructions: 580000000 cycles: 1427277430 heartbeat IPC: 0.357456 cumulative IPC: 0.353224 (Simulation time: 0 hr 22 min 12 sec) 
Heartbeat CPU 0 instructions: 590000001 cycles: 1452010647 heartbeat IPC: 0.404315 cumulative IPC: 0.354137 (Simulation time: 0 hr 22 min 35 sec) 
Heartbeat CPU 0 instructions: 600000000 cycles: 1478050819 heartbeat IPC: 0.384022 cumulative IPC: 0.354689 (Simulation time: 0 hr 23 min 0 sec) 
Finished CPU 0 instructions: 500000000 cycles: 1409685302 cumulative IPC: 0.354689 (Simulation time: 0 hr 23 min 0 sec) 

CPU 0 Branch Prediction Accuracy: 86.4311% MPKI: 26.2662
Number of Branches: 96788573 Number of Mispredictions: 13133102
Number of LOAD Instructions: 164682285
Number of LOAD Instructions (ROI): 164682285
Number of STORE Instructions: 78194750
Number of STORE Instructions (ROI): 78194750
Total Destination Memory Operands: 83268534
Total Destination Memory Operands (ROI): 83268534
Total Source Memory Operands: 164712438
Total Source Memory Operands (ROI): 164712438
Number of DEPENDED LOADS: 7057403
Number of DEPENDED LOADS (ROI): 7057403
Number of SQ_ADDED: 83268522
Number of SQ_ADDED (ROI): 83268522
Number of LQ_ADDED: 236764227
Number of LQ_ADDED (ROI): 236764227
Number of Instructions read from trace: 600000066

ChampSim completed all CPUs

Region of Interest Statistics

CPU 0 cumulative IPC: 0.354689 instructions: 500000000 cycles: 1409685302
ITLB TOTAL     ACCESS:  100519310  HIT:  100314864  MISS:     204446
ITLB LOAD      ACCESS:  100519310  HIT:  100314864  MISS:     204446
ITLB RFO       ACCESS:          0  HIT:          0  MISS:          0
ITLB PREFETCH  ACCESS:          0  HIT:          0  MISS:          0
ITLB WRITEBACK ACCESS:          0  HIT:          0  MISS:          0
ITLB PREFETCH  REQUESTED:          0  ISSUED:          0  USEFUL:          0  USELESS:          0
ITLB TOTAL MSHR MERGED:     172424
ITLB LOAD MSHR MERGED:     172424
ITLB RFO MSHR MERGED:          0
ITLB PREFETCH MSHR MERGED:          0
ITLB WRITEBACK MSHR MERGED:          0
ITLB TOTAL ACCESSES:  100691734 HITS:  100314864 MISSES:     376870
ITLB LOAD ACCESSES:  100691734 HITS:  100314864 MISSES:     376870
ITLB RFO ACCESSES:          0 HITS:          0 MISSES:          0
ITLB PREFETCH ACCESSES:          0 HITS:          0 MISSES:          0
ITLB WRITEBACK ACCESSES:          0 HITS:          0 MISSES:          0
ITLB RQ ACCESS:  500000057
ITLB RQ TO_CACHE:  100691734
ITLB RQ MERGED:  399308323
ITLB RQ FORWARD:          0
ITLB WQ ACCESS:          0
ITLB WQ TO_CACHE:          0
ITLB WQ MERGED:          0
ITLB WQ FORWARD:          0
DTLB TOTAL     ACCESS:  165338790  HIT:  164704439  MISS:     634351
DTLB LOAD      ACCESS:  106294068  HIT:  105724148  MISS:     569920
DTLB RFO       ACCESS:   59044722  HIT:   58980291  MISS:      64431
DTLB PREFETCH  ACCESS:          0  HIT:          0  MISS:          0
DTLB WRITEBACK ACCESS:          0  HIT:          0  MISS:          0
DTLB PREFETCH  REQUESTED:          0  ISSUED:          0  USEFUL:          0  USELESS:          0
DTLB TOTAL MSHR MERGED:      99945
DTLB LOAD MSHR MERGED:      59426
DTLB RFO MSHR MERGED:      40519
DTLB PREFETCH MSHR MERGED:          0
DTLB WRITEBACK MSHR MERGED:          0
DTLB TOTAL ACCESSES:  165438735 HITS:  164704439 MISSES:     734296
DTLB LOAD ACCESSES:  106353494 HITS:  105724148 MISSES:     629346
DTLB RFO ACCESSES:   59085241 HITS:   58980291 MISSES:     104950
DTLB PREFETCH ACCESSES:          0 HITS:          0 MISSES:          0
DTLB WRITEBACK ACCESSES:          0 HITS:          0 MISSES:          0
DTLB RQ ACCESS:  200313473
DTLB RQ TO_CACHE:  165438735
DTLB RQ MERGED:   34874738
DTLB RQ FORWARD:          0
DTLB WQ ACCESS:          0
DTLB WQ TO_CACHE:          0
DTLB WQ MERGED:          0
DTLB WQ FORWARD:          0
L1D TOTAL     ACCESS:  281835147  HIT:  273925789  MISS:    7909358
L1D LOAD      ACCESS:  110418781  HIT:  107140665  MISS:    3278116
L1D RFO       ACCESS:   67117551  HIT:   66226857  MISS:     890694
L1D PREFETCH  ACCESS:  104298815  HIT:  100558267  MISS:    3740548
L1D WRITEBACK ACCESS:          0  HIT:          0  MISS:          0
L1D PREFETCH  REQUESTED:  110819258  ISSUED:  109119942  USEFUL:    1661267  USELESS:    2079245
L1D TOTAL MSHR MERGED:    2873250
L1D LOAD MSHR MERGED:     498061
L1D RFO MSHR MERGED:    1868461
L1D PREFETCH MSHR MERGED:     506728
L1D WRITEBACK MSHR MERGED:          0
L1D TOTAL ACCESSES:  284735864 HITS:  273953256 MISSES:   10782608
L1D LOAD ACCESSES:  110820723 HITS:  107142130 MISSES:    3678593
L1D RFO ACCESSES:   68974112 HITS:   66226857 MISSES:    2747255
L1D PREFETCH ACCESSES:  104941029 HITS:  100584269 MISSES:    4356760
L1D WRITEBACK ACCESSES:          0 HITS:          0 MISSES:          0
L1D RQ ACCESS:  130760870
L1D RQ TO_CACHE:  110819261
L1D RQ MERGED:   19940144
L1D RQ FORWARD:          0
L1D WQ ACCESS:   69552603
L1D WQ TO_CACHE:   68974113
L1D WQ MERGED:     578490
L1D WQ FORWARD:      27467
L1I TOTAL     ACCESS:  126566558  HIT:  122328005  MISS:    4238553
L1I LOAD      ACCESS:  126566558  HIT:  122328005  MISS:    4238553
L1I RFO       ACCESS:          0  HIT:          0  MISS:          0
L1I PREFETCH  ACCESS:          0  HIT:          0  MISS:          0
L1I WRITEBACK ACCESS:          0  HIT:          0  MISS:          0
L1I PREFETCH  REQUESTED:          0  ISSUED:          0  USEFUL:          0  USELESS:          0
L1I TOTAL MSHR MERGED:    1834689
L1I LOAD MSHR MERGED:    1834689
L1I RFO MSHR MERGED:          0
L1I PREFETCH MSHR MERGED:          0
L1I WRITEBACK MSHR MERGED:          0
L1I TOTAL ACCESSES:  128401250 HITS:  122328005 MISSES:    6073245
L1I LOAD ACCESSES:  128401250 HITS:  122328005 MISSES:    6073245
L1I RFO ACCESSES:          0 HITS:          0 MISSES:          0
L1I PREFETCH ACCESSES:          0 HITS:          0 MISSES:          0
L1I WRITEBACK ACCESSES:          0 HITS:          0 MISSES:          0
L1I RQ ACCESS:  500000057
L1I RQ TO_CACHE:  128401250
L1I RQ MERGED:  371598807
L1I RQ FORWARD:          0
L1I WQ ACCESS:          0
L1I WQ TO_CACHE:          0
L1I WQ MERGED:          0
L1I WQ FORWARD:          0
L2C TOTAL     ACCESS:   14905157  HIT:   11158668  MISS:    3746489
L2C LOAD      ACCESS:    7418876  HIT:    5098878  MISS:    2319998
L2C RFO       ACCESS:     878695  HIT:     409898  MISS:     468797
L2C PREFETCH  ACCESS:    4568352  HIT:    3627912  MISS:     940440
L2C WRITEBACK ACCESS:    2039234  HIT:    2021980  MISS:      17254
L2C PREFETCH  REQUESTED:     842829  ISSUED:     842829  USEFUL:     203376  USELESS:     736770
L2C TOTAL MSHR MERGED:       7194
L2C LOAD MSHR MERGED:        814
L2C RFO MSHR MERGED:          0
L2C PREFETCH MSHR MERGED:       6380
L2C WRITEBACK MSHR MERGED:          0
L2C TOTAL ACCESSES:   14913225 HITS:   11159120 MISSES:    3754105
L2C LOAD ACCESSES:    7419085 HITS:    5099087 MISSES:    2319998
L2C RFO ACCESSES:     878794 HITS:     409997 MISSES:     468797
L2C PREFETCH ACCESSES:    4576112 HITS:    3628056 MISSES:     948056
L2C WRITEBACK ACCESSES:    2039234 HITS:    2021980 MISSES:      17254
L2C RQ ACCESS:    8297882
L2C RQ TO_CACHE:    8297574
L2C RQ MERGED:          0
L2C RQ FORWARD:          0
L2C WQ ACCESS:    2039234
L2C WQ TO_CACHE:    2039234
L2C WQ MERGED:          0
L2C WQ FORWARD:        452
LLC TOTAL     ACCESS:    4609811  HIT:    3959791  MISS:     650020
LLC LOAD      ACCESS:    2319168  HIT:    2071698  MISS:     247470
LLC RFO       ACCESS:     468787  HIT:     402366  MISS:      66421
LLC PREFETCH  ACCESS:     941567  HIT:     658868  MISS:     282699
LLC WRITEBACK ACCESS:     880289  HIT:     826859  MISS:      53430
LLC PREFETCH  REQUESTED:          0  ISSUED:          0  USEFUL:      15907  USELESS:     266935
LLC TOTAL MSHR MERGED:         93
LLC LOAD MSHR MERGED:         32
LLC RFO MSHR MERGED:          0
LLC PREFETCH MSHR MERGED:         61
LLC WRITEBACK MSHR MERGED:          0
LLC TOTAL ACCESSES:    4609941 HITS:    3959828 MISSES:     650113
LLC LOAD ACCESSES:    2319184 HITS:    2071714 MISSES:     247470
LLC RFO ACCESSES:     468797 HITS:     402376 MISSES:      66421
LLC PREFETCH ACCESSES:     941671 HITS:     658879 MISSES:     282792
LLC WRITEBACK ACCESSES:     880289 HITS:     826859 MISSES:      53430
LLC 0 RQ ACCESS:    2787981
LLC 0 RQ TO_CACHE:    2787955
LLC 0 RQ MERGED:          0
LLC 0 RQ FORWARD:          0
LLC WQ ACCESS:     880289
LLC WQ TO_CACHE:     880289
LLC WQ MERGED:          0
LLC WQ FORWARD:         37
Major fault: 0 Minor fault: 12862
CPU 0 L1D next line prefetcher final stats
CPU 0 L2C PC-based stride prefetcher final stats
All Misses: 777643
All Hits: 4649174
SD Algo Stats - Switches: 0 SRR-Repls: 292577 BRR-Repls: 0

DRAM Statistics
 CHANNEL 0
 RQ ROW_BUFFER_HIT:     123764  ROW_BUFFER_MISS:     471686
 DBUS_CONGESTED:     336639
 WQ ROW_BUFFER_HIT:      12236  ROW_BUFFER_MISS:     164647  FULL:          0

 AVG_CONGESTED_CYCLE: 13
LOADS RETIRED: 136549171
INSTR RETIRED: 500000000
