
*** ChampSim Multicore Out-of-Order Simulator ***

Warmup Instructions: 100000000
Simulation Instructions: 500000000
Number of CPUs: 1
LLC sets: 2048
LLC ways: 16
Clean RRIP Policies: 1213000112130001 Dirty RRIP Policies: 2213100122131001 PSEL Width: 10 Track Set: 4294967295 PSEL Mask: 1 Demote Mask: 3340201033402010DS Algo: 0Window size: 0
Off-chip DRAM Size: 4096 MB Channels: 1 Width: 64-bit Data Rate: 1600 MT/s

CPU 0 runs /mnt/beegfs/iconst01/spec2017/Cam4.trace.gz
NOT SORTED
TRACE STRING: /mnt/beegfs/iconst01/spec2017/Cam4.trace.gz
SORTED
TRACE STRING: /mnt/beegfs/iconst01/spec2017/Cam4.trace.gz
INITIAL
TRACE STRING: /mnt/beegfs/iconst01/spec2017/Cam4.trace.gz

champsim_seed used: 325

CPU 0 L1D next line prefetcher
CPU 0 L2C IP-based stride prefetcher
Initialize DRRIP state
Assign rand_sets[0]: 454  LLC: 2048
rand_sets[0]: 454
Assign rand_sets[1]: 1662  LLC: 2048
rand_sets[1]: 1662
Assign rand_sets[2]: 1921  LLC: 2048
rand_sets[2]: 1921
Assign rand_sets[3]: 1131  LLC: 2048
rand_sets[3]: 1131
Assign rand_sets[4]: 331  LLC: 2048
rand_sets[4]: 331
Assign rand_sets[5]: 1531  LLC: 2048
rand_sets[5]: 1531
Assign rand_sets[6]: 482  LLC: 2048
rand_sets[6]: 482
Assign rand_sets[7]: 1275  LLC: 2048
rand_sets[7]: 1275
Assign rand_sets[8]: 1876  LLC: 2048
rand_sets[8]: 1876
Assign rand_sets[9]: 2038  LLC: 2048
rand_sets[9]: 2038
Assign rand_sets[10]: 701  LLC: 2048
rand_sets[10]: 701
Assign rand_sets[11]: 479  LLC: 2048
rand_sets[11]: 479
Assign rand_sets[12]: 892  LLC: 2048
rand_sets[12]: 892
Assign rand_sets[13]: 1820  LLC: 2048
rand_sets[13]: 1820
Assign rand_sets[14]: 1505  LLC: 2048
rand_sets[14]: 1505
Assign rand_sets[15]: 1159  LLC: 2048
rand_sets[15]: 1159
Assign rand_sets[16]: 513  LLC: 2048
rand_sets[16]: 513
Assign rand_sets[17]: 703  LLC: 2048
rand_sets[17]: 703
Assign rand_sets[18]: 561  LLC: 2048
rand_sets[18]: 561
Assign rand_sets[19]: 990  LLC: 2048
rand_sets[19]: 990
Assign rand_sets[20]: 342  LLC: 2048
rand_sets[20]: 342
Assign rand_sets[21]: 882  LLC: 2048
rand_sets[21]: 882
Assign rand_sets[22]: 15  LLC: 2048
rand_sets[22]: 15
Assign rand_sets[23]: 71  LLC: 2048
rand_sets[23]: 71
Assign rand_sets[24]: 1127  LLC: 2048
rand_sets[24]: 1127
Assign rand_sets[25]: 1382  LLC: 2048
rand_sets[25]: 1382
Assign rand_sets[26]: 647  LLC: 2048
rand_sets[26]: 647
Assign rand_sets[27]: 857  LLC: 2048
rand_sets[27]: 857
Assign rand_sets[28]: 1450  LLC: 2048
rand_sets[28]: 1450
Assign rand_sets[29]: 1160  LLC: 2048
rand_sets[29]: 1160
Assign rand_sets[30]: 1852  LLC: 2048
rand_sets[30]: 1852
Assign rand_sets[31]: 1881  LLC: 2048
rand_sets[31]: 1881
Assign rand_sets[32]: 1770  LLC: 2048
rand_sets[32]: 1770
Assign rand_sets[33]: 1622  LLC: 2048
rand_sets[33]: 1622
Assign rand_sets[34]: 275  LLC: 2048
rand_sets[34]: 275
Assign rand_sets[35]: 635  LLC: 2048
rand_sets[35]: 635
Assign rand_sets[36]: 466  LLC: 2048
rand_sets[36]: 466
Assign rand_sets[37]: 1413  LLC: 2048
rand_sets[37]: 1413
Assign rand_sets[38]: 417  LLC: 2048
rand_sets[38]: 417
Assign rand_sets[39]: 472  LLC: 2048
rand_sets[39]: 472
Assign rand_sets[40]: 1340  LLC: 2048
rand_sets[40]: 1340
Assign rand_sets[41]: 852  LLC: 2048
rand_sets[41]: 852
Assign rand_sets[42]: 1365  LLC: 2048
rand_sets[42]: 1365
Assign rand_sets[43]: 47  LLC: 2048
rand_sets[43]: 47
Assign rand_sets[44]: 823  LLC: 2048
rand_sets[44]: 823
Assign rand_sets[45]: 686  LLC: 2048
rand_sets[45]: 686
Assign rand_sets[46]: 1637  LLC: 2048
rand_sets[46]: 1637
Assign rand_sets[47]: 1115  LLC: 2048
rand_sets[47]: 1115
Assign rand_sets[48]: 986  LLC: 2048
rand_sets[48]: 986
Assign rand_sets[49]: 258  LLC: 2048
rand_sets[49]: 258
Assign rand_sets[50]: 633  LLC: 2048
rand_sets[50]: 633
Assign rand_sets[51]: 920  LLC: 2048
rand_sets[51]: 920
Assign rand_sets[52]: 204  LLC: 2048
rand_sets[52]: 204
Assign rand_sets[53]: 227  LLC: 2048
rand_sets[53]: 227
Assign rand_sets[54]: 1818  LLC: 2048
rand_sets[54]: 1818
Assign rand_sets[55]: 886  LLC: 2048
rand_sets[55]: 886
Assign rand_sets[56]: 1422  LLC: 2048
rand_sets[56]: 1422
Assign rand_sets[57]: 607  LLC: 2048
rand_sets[57]: 607
Assign rand_sets[58]: 217  LLC: 2048
rand_sets[58]: 217
Assign rand_sets[59]: 1945  LLC: 2048
rand_sets[59]: 1945
Assign rand_sets[60]: 143  LLC: 2048
rand_sets[60]: 143
Assign rand_sets[61]: 1311  LLC: 2048
rand_sets[61]: 1311
Assign rand_sets[62]: 319  LLC: 2048
rand_sets[62]: 319
Assign rand_sets[63]: 1846  LLC: 2048
rand_sets[63]: 1846
 CLEAN-RRIP-POLICY-1: 1-2-1-3-0-0-0-1- CLEAN-RRIP-POLICY-2: 1-2-1-3-0-0-0-1-
 DIRTY-RRIP-POLICY-1: 2-2-1-3-1-0-0-1- DIRTY-RRIP-POLICY-2: 2-2-1-3-1-0-0-1-
 PSEL width: 10
Heartbeat CPU 0 instructions: 10000000 cycles: 4859184 heartbeat IPC: 2.05796 cumulative IPC: 2.05796 (Simulation time: 0 hr 0 min 18 sec) 
Heartbeat CPU 0 instructions: 20000000 cycles: 9790786 heartbeat IPC: 2.02774 cumulative IPC: 2.04274 (Simulation time: 0 hr 0 min 34 sec) 
Heartbeat CPU 0 instructions: 30000001 cycles: 14562980 heartbeat IPC: 2.09547 cumulative IPC: 2.06002 (Simulation time: 0 hr 0 min 50 sec) 
Heartbeat CPU 0 instructions: 40000000 cycles: 19399985 heartbeat IPC: 2.06739 cumulative IPC: 2.06186 (Simulation time: 0 hr 1 min 7 sec) 
Heartbeat CPU 0 instructions: 50000000 cycles: 24256488 heartbeat IPC: 2.05909 cumulative IPC: 2.0613 (Simulation time: 0 hr 1 min 24 sec) 
Heartbeat CPU 0 instructions: 60000000 cycles: 29181940 heartbeat IPC: 2.03027 cumulative IPC: 2.05607 (Simulation time: 0 hr 1 min 42 sec) 
Heartbeat CPU 0 instructions: 70000001 cycles: 33956928 heartbeat IPC: 2.09425 cumulative IPC: 2.06143 (Simulation time: 0 hr 1 min 57 sec) 
Heartbeat CPU 0 instructions: 80000000 cycles: 38793209 heartbeat IPC: 2.0677 cumulative IPC: 2.06222 (Simulation time: 0 hr 2 min 15 sec) 
Heartbeat CPU 0 instructions: 90000002 cycles: 43647262 heartbeat IPC: 2.06013 cumulative IPC: 2.06199 (Simulation time: 0 hr 2 min 33 sec) 
Heartbeat CPU 0 instructions: 100000000 cycles: 48566112 heartbeat IPC: 2.033 cumulative IPC: 2.05905 (Simulation time: 0 hr 2 min 50 sec) 

Warmup complete CPU 0 instructions: 100000001 cycles: 48566113 (Simulation time: 0 hr 2 min 50 sec) 

Heartbeat CPU 0 instructions: 110000000 cycles: 61873862 heartbeat IPC: 0.751442 cumulative IPC: 0.751442 (Simulation time: 0 hr 3 min 15 sec) 
Heartbeat CPU 0 instructions: 120000000 cycles: 75640639 heartbeat IPC: 0.726386 cumulative IPC: 0.738702 (Simulation time: 0 hr 3 min 41 sec) 
Heartbeat CPU 0 instructions: 130000000 cycles: 89396962 heartbeat IPC: 0.726938 cumulative IPC: 0.734739 (Simulation time: 0 hr 4 min 8 sec) 
Heartbeat CPU 0 instructions: 140000000 cycles: 103676773 heartbeat IPC: 0.700289 cumulative IPC: 0.725812 (Simulation time: 0 hr 4 min 34 sec) 
Heartbeat CPU 0 instructions: 150000003 cycles: 117042228 heartbeat IPC: 0.748198 cumulative IPC: 0.730182 (Simulation time: 0 hr 4 min 59 sec) 
Heartbeat CPU 0 instructions: 160000000 cycles: 130807542 heartbeat IPC: 0.726463 cumulative IPC: 0.729559 (Simulation time: 0 hr 5 min 25 sec) 
Heartbeat CPU 0 instructions: 170000001 cycles: 144601264 heartbeat IPC: 0.724968 cumulative IPC: 0.7289 (Simulation time: 0 hr 5 min 52 sec) 
Heartbeat CPU 0 instructions: 180000000 cycles: 158868846 heartbeat IPC: 0.70089 cumulative IPC: 0.725277 (Simulation time: 0 hr 6 min 19 sec) 
Heartbeat CPU 0 instructions: 190000003 cycles: 172207879 heartbeat IPC: 0.74968 cumulative IPC: 0.727909 (Simulation time: 0 hr 6 min 43 sec) 
Heartbeat CPU 0 instructions: 200000000 cycles: 185972042 heartbeat IPC: 0.726524 cumulative IPC: 0.727771 (Simulation time: 0 hr 7 min 10 sec) 
Heartbeat CPU 0 instructions: 210000002 cycles: 199768443 heartbeat IPC: 0.724827 cumulative IPC: 0.727502 (Simulation time: 0 hr 7 min 36 sec) 
Heartbeat CPU 0 instructions: 220000000 cycles: 214036709 heartbeat IPC: 0.700856 cumulative IPC: 0.725204 (Simulation time: 0 hr 8 min 3 sec) 
Heartbeat CPU 0 instructions: 230000001 cycles: 227287091 heartbeat IPC: 0.754695 cumulative IPC: 0.727391 (Simulation time: 0 hr 8 min 27 sec) 
Heartbeat CPU 0 instructions: 240000000 cycles: 241044144 heartbeat IPC: 0.7269 cumulative IPC: 0.727356 (Simulation time: 0 hr 8 min 54 sec) 
Heartbeat CPU 0 instructions: 250000001 cycles: 254783441 heartbeat IPC: 0.727839 cumulative IPC: 0.727388 (Simulation time: 0 hr 9 min 20 sec) 
Heartbeat CPU 0 instructions: 260000000 cycles: 268934558 heartbeat IPC: 0.706658 cumulative IPC: 0.726057 (Simulation time: 0 hr 9 min 46 sec) 
Heartbeat CPU 0 instructions: 270000003 cycles: 282317177 heartbeat IPC: 0.747238 cumulative IPC: 0.727269 (Simulation time: 0 hr 10 min 10 sec) 
Heartbeat CPU 0 instructions: 280000000 cycles: 296086934 heartbeat IPC: 0.726229 cumulative IPC: 0.727212 (Simulation time: 0 hr 10 min 36 sec) 
Heartbeat CPU 0 instructions: 290000001 cycles: 309873075 heartbeat IPC: 0.725366 cumulative IPC: 0.727114 (Simulation time: 0 hr 11 min 3 sec) 
Heartbeat CPU 0 instructions: 300000000 cycles: 323966611 heartbeat IPC: 0.709545 cumulative IPC: 0.726215 (Simulation time: 0 hr 11 min 29 sec) 
Heartbeat CPU 0 instructions: 310000000 cycles: 337393689 heartbeat IPC: 0.744764 cumulative IPC: 0.727077 (Simulation time: 0 hr 11 min 53 sec) 
Heartbeat CPU 0 instructions: 320000000 cycles: 351208627 heartbeat IPC: 0.723854 cumulative IPC: 0.72693 (Simulation time: 0 hr 12 min 19 sec) 
Heartbeat CPU 0 instructions: 330000000 cycles: 365016183 heartbeat IPC: 0.724241 cumulative IPC: 0.726813 (Simulation time: 0 hr 12 min 45 sec) 
Heartbeat CPU 0 instructions: 340000000 cycles: 379083589 heartbeat IPC: 0.710863 cumulative IPC: 0.726134 (Simulation time: 0 hr 13 min 11 sec) 
Heartbeat CPU 0 instructions: 350000000 cycles: 392551607 heartbeat IPC: 0.7425 cumulative IPC: 0.726775 (Simulation time: 0 hr 13 min 34 sec) 
Heartbeat CPU 0 instructions: 360000000 cycles: 406395687 heartbeat IPC: 0.72233 cumulative IPC: 0.726603 (Simulation time: 0 hr 14 min 0 sec) 
Heartbeat CPU 0 instructions: 370000003 cycles: 420201022 heartbeat IPC: 0.724358 cumulative IPC: 0.726519 (Simulation time: 0 hr 14 min 26 sec) 
Heartbeat CPU 0 instructions: 380000000 cycles: 434233103 heartbeat IPC: 0.712652 cumulative IPC: 0.726015 (Simulation time: 0 hr 14 min 52 sec) 
Heartbeat CPU 0 instructions: 390000003 cycles: 447742676 heartbeat IPC: 0.740216 cumulative IPC: 0.726496 (Simulation time: 0 hr 15 min 15 sec) 
Heartbeat CPU 0 instructions: 400000000 cycles: 461579310 heartbeat IPC: 0.722719 cumulative IPC: 0.726369 (Simulation time: 0 hr 15 min 41 sec) 
Heartbeat CPU 0 instructions: 410000000 cycles: 475350164 heartbeat IPC: 0.726171 cumulative IPC: 0.726363 (Simulation time: 0 hr 16 min 6 sec) 
Heartbeat CPU 0 instructions: 420000000 cycles: 489371405 heartbeat IPC: 0.713204 cumulative IPC: 0.725944 (Simulation time: 0 hr 16 min 32 sec) 
Heartbeat CPU 0 instructions: 430000003 cycles: 502886179 heartbeat IPC: 0.739931 cumulative IPC: 0.72636 (Simulation time: 0 hr 16 min 55 sec) 
Heartbeat CPU 0 instructions: 440000000 cycles: 516723493 heartbeat IPC: 0.722683 cumulative IPC: 0.726251 (Simulation time: 0 hr 17 min 20 sec) 
Heartbeat CPU 0 instructions: 450000000 cycles: 530519019 heartbeat IPC: 0.724873 cumulative IPC: 0.726212 (Simulation time: 0 hr 17 min 45 sec) 
Heartbeat CPU 0 instructions: 460000000 cycles: 544523742 heartbeat IPC: 0.714045 cumulative IPC: 0.725868 (Simulation time: 0 hr 18 min 10 sec) 
Heartbeat CPU 0 instructions: 470000001 cycles: 558023679 heartbeat IPC: 0.740744 cumulative IPC: 0.726263 (Simulation time: 0 hr 18 min 33 sec) 
Heartbeat CPU 0 instructions: 480000000 cycles: 571839537 heartbeat IPC: 0.723806 cumulative IPC: 0.726198 (Simulation time: 0 hr 18 min 57 sec) 
Heartbeat CPU 0 instructions: 490000002 cycles: 585607706 heartbeat IPC: 0.726313 cumulative IPC: 0.726201 (Simulation time: 0 hr 19 min 22 sec) 
Heartbeat CPU 0 instructions: 500000000 cycles: 599607951 heartbeat IPC: 0.714273 cumulative IPC: 0.725898 (Simulation time: 0 hr 19 min 47 sec) 
Heartbeat CPU 0 instructions: 510000002 cycles: 613103909 heartbeat IPC: 0.740963 cumulative IPC: 0.726258 (Simulation time: 0 hr 20 min 10 sec) 
Heartbeat CPU 0 instructions: 520000000 cycles: 626907447 heartbeat IPC: 0.724452 cumulative IPC: 0.726215 (Simulation time: 0 hr 20 min 35 sec) 
Heartbeat CPU 0 instructions: 530000003 cycles: 640656469 heartbeat IPC: 0.727325 cumulative IPC: 0.726241 (Simulation time: 0 hr 21 min 0 sec) 
Heartbeat CPU 0 instructions: 540000000 cycles: 654675866 heartbeat IPC: 0.713297 cumulative IPC: 0.725941 (Simulation time: 0 hr 21 min 25 sec) 
Heartbeat CPU 0 instructions: 550000003 cycles: 668198655 heartbeat IPC: 0.739493 cumulative IPC: 0.726237 (Simulation time: 0 hr 21 min 48 sec) 
Heartbeat CPU 0 instructions: 560000000 cycles: 681984009 heartbeat IPC: 0.725407 cumulative IPC: 0.726219 (Simulation time: 0 hr 22 min 13 sec) 
Heartbeat CPU 0 instructions: 570000001 cycles: 695764382 heartbeat IPC: 0.72567 cumulative IPC: 0.726207 (Simulation time: 0 hr 22 min 37 sec) 
Heartbeat CPU 0 instructions: 580000000 cycles: 709811061 heartbeat IPC: 0.711912 cumulative IPC: 0.725903 (Simulation time: 0 hr 23 min 3 sec) 
Heartbeat CPU 0 instructions: 590000000 cycles: 723252017 heartbeat IPC: 0.743995 cumulative IPC: 0.726264 (Simulation time: 0 hr 23 min 25 sec) 
Heartbeat CPU 0 instructions: 600000000 cycles: 737041161 heartbeat IPC: 0.725208 cumulative IPC: 0.726243 (Simulation time: 0 hr 23 min 50 sec) 
Finished CPU 0 instructions: 500000001 cycles: 688475056 cumulative IPC: 0.726243 (Simulation time: 0 hr 23 min 50 sec) 

CPU 0 Branch Prediction Accuracy: 97.5275% MPKI: 2.1997
Number of Branches: 44482865 Number of Mispredictions: 1099852
Number of LOAD Instructions: 144955155
Number of LOAD Instructions (ROI): 144955155
Number of STORE Instructions: 55921098
Number of STORE Instructions (ROI): 55921098
Total Destination Memory Operands: 57111147
Total Destination Memory Operands (ROI): 57111147
Total Source Memory Operands: 144955155
Total Source Memory Operands (ROI): 144955155
Number of DEPENDED LOADS: 13455102
Number of DEPENDED LOADS (ROI): 13455102
Number of SQ_ADDED: 57111126
Number of SQ_ADDED (ROI): 57111126
Number of LQ_ADDED: 174487580
Number of LQ_ADDED (ROI): 174487580
Number of Instructions read from trace: 600000256

ChampSim completed all CPUs

Region of Interest Statistics

CPU 0 cumulative IPC: 0.726243 instructions: 500000001 cycles: 688475056
ITLB TOTAL     ACCESS:  136066486  HIT:  136063933  MISS:       2553
ITLB LOAD      ACCESS:  136066486  HIT:  136063933  MISS:       2553
ITLB RFO       ACCESS:          0  HIT:          0  MISS:          0
ITLB PREFETCH  ACCESS:          0  HIT:          0  MISS:          0
ITLB WRITEBACK ACCESS:          0  HIT:          0  MISS:          0
ITLB PREFETCH  REQUESTED:          0  ISSUED:          0  USEFUL:          0  USELESS:          0
ITLB TOTAL MSHR MERGED:       4365
ITLB LOAD MSHR MERGED:       4365
ITLB RFO MSHR MERGED:          0
ITLB PREFETCH MSHR MERGED:          0
ITLB WRITEBACK MSHR MERGED:          0
ITLB TOTAL ACCESSES:  136070851 HITS:  136063933 MISSES:       6918
ITLB LOAD ACCESSES:  136070851 HITS:  136063933 MISSES:       6918
ITLB RFO ACCESSES:          0 HITS:          0 MISSES:          0
ITLB PREFETCH ACCESSES:          0 HITS:          0 MISSES:          0
ITLB WRITEBACK ACCESSES:          0 HITS:          0 MISSES:          0
ITLB RQ ACCESS:  500000202
ITLB RQ TO_CACHE:  136070851
ITLB RQ MERGED:  363929351
ITLB RQ FORWARD:          0
ITLB WQ ACCESS:          0
ITLB WQ TO_CACHE:          0
ITLB WQ MERGED:          0
ITLB WQ FORWARD:          0
DTLB TOTAL     ACCESS:  111547473  HIT:  111411279  MISS:     136194
DTLB LOAD      ACCESS:   78950344  HIT:   78824719  MISS:     125625
DTLB RFO       ACCESS:   32597129  HIT:   32586560  MISS:      10569
DTLB PREFETCH  ACCESS:          0  HIT:          0  MISS:          0
DTLB WRITEBACK ACCESS:          0  HIT:          0  MISS:          0
DTLB PREFETCH  REQUESTED:          0  ISSUED:          0  USEFUL:          0  USELESS:          0
DTLB TOTAL MSHR MERGED:      63388
DTLB LOAD MSHR MERGED:      50895
DTLB RFO MSHR MERGED:      12493
DTLB PREFETCH MSHR MERGED:          0
DTLB WRITEBACK MSHR MERGED:          0
DTLB TOTAL ACCESSES:  111610861 HITS:  111411279 MISSES:     199582
DTLB LOAD ACCESSES:   79001239 HITS:   78824719 MISSES:     176520
DTLB RFO ACCESSES:   32609622 HITS:   32586560 MISSES:      23062
DTLB PREFETCH ACCESSES:          0 HITS:          0 MISSES:          0
DTLB WRITEBACK ACCESSES:          0 HITS:          0 MISSES:          0
DTLB RQ ACCESS:  157180312
DTLB RQ TO_CACHE:  111610861
DTLB RQ MERGED:   45569451
DTLB RQ FORWARD:          0
DTLB WQ ACCESS:          0
DTLB WQ TO_CACHE:          0
DTLB WQ MERGED:          0
DTLB WQ FORWARD:          0
L1D TOTAL     ACCESS:  198175921  HIT:  188335004  MISS:    9840917
L1D LOAD      ACCESS:   79945394  HIT:   75680934  MISS:    4264460
L1D RFO       ACCESS:   44493750  HIT:   43593329  MISS:     900421
L1D PREFETCH  ACCESS:   73736777  HIT:   69060741  MISS:    4676036
L1D WRITEBACK ACCESS:          0  HIT:          0  MISS:          0
L1D PREFETCH  REQUESTED:   80346191  ISSUED:   79890568  USEFUL:    1817769  USELESS:    2858176
L1D TOTAL MSHR MERGED:    2553427
L1D LOAD MSHR MERGED:     526434
L1D RFO MSHR MERGED:    1458172
L1D PREFETCH MSHR MERGED:     568821
L1D WRITEBACK MSHR MERGED:          0
L1D TOTAL ACCESSES:  200751293 HITS:  188356949 MISSES:   12394344
L1D LOAD ACCESSES:   80359501 HITS:   75694244 MISSES:    4665257
L1D RFO ACCESSES:   45948828 HITS:   43593329 MISSES:    2355499
L1D PREFETCH ACCESSES:   74442964 HITS:   69069376 MISSES:    5373588
L1D WRITEBACK ACCESSES:          0 HITS:          0 MISSES:          0
L1D RQ ACCESS:  109538342
L1D RQ TO_CACHE:   80346191
L1D RQ MERGED:   29178841
L1D RQ FORWARD:          0
L1D WQ ACCESS:   47641970
L1D WQ TO_CACHE:   45948828
L1D WQ MERGED:    1693142
L1D WQ FORWARD:      21945
L1I TOTAL     ACCESS:  161536506  HIT:  161272540  MISS:     263966
L1I LOAD      ACCESS:  161536506  HIT:  161272540  MISS:     263966
L1I RFO       ACCESS:          0  HIT:          0  MISS:          0
L1I PREFETCH  ACCESS:          0  HIT:          0  MISS:          0
L1I WRITEBACK ACCESS:          0  HIT:          0  MISS:          0
L1I PREFETCH  REQUESTED:          0  ISSUED:          0  USEFUL:          0  USELESS:          0
L1I TOTAL MSHR MERGED:     261219
L1I LOAD MSHR MERGED:     261219
L1I RFO MSHR MERGED:          0
L1I PREFETCH MSHR MERGED:          0
L1I WRITEBACK MSHR MERGED:          0
L1I TOTAL ACCESSES:  161797725 HITS:  161272540 MISSES:     525185
L1I LOAD ACCESSES:  161797725 HITS:  161272540 MISSES:     525185
L1I RFO ACCESSES:          0 HITS:          0 MISSES:          0
L1I PREFETCH ACCESSES:          0 HITS:          0 MISSES:          0
L1I WRITEBACK ACCESSES:          0 HITS:          0 MISSES:          0
L1I RQ ACCESS:  500000202
L1I RQ TO_CACHE:  161797725
L1I RQ MERGED:  338202477
L1I RQ FORWARD:          0
L1I WQ ACCESS:          0
L1I WQ TO_CACHE:          0
L1I WQ MERGED:          0
L1I WQ FORWARD:          0
L2C TOTAL     ACCESS:   11771345  HIT:   10382024  MISS:    1389321
L2C LOAD      ACCESS:    4402722  HIT:    3905992  MISS:     496730
L2C RFO       ACCESS:     897258  HIT:     536182  MISS:     361076
L2C PREFETCH  ACCESS:    5283878  HIT:    4755307  MISS:     528571
L2C WRITEBACK ACCESS:    1187487  HIT:    1184543  MISS:       2944
L2C PREFETCH  REQUESTED:     504651  ISSUED:     504651  USEFUL:     114866  USELESS:     413898
L2C TOTAL MSHR MERGED:       2211
L2C LOAD MSHR MERGED:        442
L2C RFO MSHR MERGED:          0
L2C PREFETCH MSHR MERGED:       1769
L2C WRITEBACK MSHR MERGED:          0
L2C TOTAL ACCESSES:   11776350 HITS:   10382243 MISSES:    1394107
L2C LOAD ACCESSES:    4402789 HITS:    3906059 MISSES:     496730
L2C RFO ACCESSES:     897327 HITS:     536251 MISSES:     361076
L2C PREFETCH ACCESSES:    5288747 HITS:    4755390 MISSES:     533357
L2C WRITEBACK ACCESSES:    1187487 HITS:    1184543 MISSES:       2944
L2C RQ ACCESS:    5300116
L2C RQ TO_CACHE:    5299980
L2C RQ MERGED:          0
L2C RQ FORWARD:          0
L2C WQ ACCESS:    1187487
L2C WQ TO_CACHE:    1187487
L2C WQ MERGED:          0
L2C WQ FORWARD:        219
LLC TOTAL     ACCESS:    1849564  HIT:    1141266  MISS:     708298
LLC LOAD      ACCESS:     496284  HIT:     223339  MISS:     272945
LLC RFO       ACCESS:     361070  HIT:     167960  MISS:     193110
LLC PREFETCH  ACCESS:     531470  HIT:     297129  MISS:     234341
LLC WRITEBACK ACCESS:     460740  HIT:     452838  MISS:       7902
LLC PREFETCH  REQUESTED:          0  ISSUED:          0  USEFUL:       4738  USELESS:     229867
LLC TOTAL MSHR MERGED:         88
LLC LOAD MSHR MERGED:         42
LLC RFO MSHR MERGED:          0
LLC PREFETCH MSHR MERGED:         46
LLC WRITEBACK MSHR MERGED:          0
LLC TOTAL ACCESSES:    1849679 HITS:    1141293 MISSES:     708386
LLC LOAD ACCESSES:     496288 HITS:     223343 MISSES:     272945
LLC RFO ACCESSES:     361076 HITS:     167966 MISSES:     193110
LLC PREFETCH ACCESSES:     531575 HITS:     297146 MISSES:     234429
LLC WRITEBACK ACCESSES:     460740 HITS:     452838 MISSES:       7902
LLC 0 RQ ACCESS:     857364
LLC 0 RQ TO_CACHE:     857354
LLC 0 RQ MERGED:          0
LLC 0 RQ FORWARD:          0
LLC WQ ACCESS:     460740
LLC WQ TO_CACHE:     460740
LLC WQ MERGED:          0
LLC WQ FORWARD:         27
Major fault: 0 Minor fault: 3073
CPU 0 L1D next line prefetcher final stats
CPU 0 L2C PC-based stride prefetcher final stats
All Misses: 845923
All Hits: 1330332
SD Algo Stats - Switches: 0 SRR-Repls: 311945 BRR-Repls: 0

DRAM Statistics
 CHANNEL 0
 RQ ROW_BUFFER_HIT:     433559  ROW_BUFFER_MISS:     266455
 DBUS_CONGESTED:     538244
 WQ ROW_BUFFER_HIT:      23451  ROW_BUFFER_MISS:     184131  FULL:          0

 AVG_CONGESTED_CYCLE: 13
LOADS RETIRED: 120673965
INSTR RETIRED: 500000000
