
*** ChampSim Multicore Out-of-Order Simulator ***

Warmup Instructions: 100000000
Simulation Instructions: 500000000
Number of CPUs: 1
LLC sets: 2048
LLC ways: 16
Clean RRIP Policies: 2211230222112302 Dirty RRIP Policies: 201130202011302 PSEL Width: 10 Track Set: 4294967295 PSEL Mask: 1 Demote Mask: 1040100010401000DS Algo: 0Window size: 0
Off-chip DRAM Size: 4096 MB Channels: 1 Width: 64-bit Data Rate: 1600 MT/s

CPU 0 runs /mnt/beegfs/iconst01/spec2017/Blender.trace.gz
NOT SORTED
TRACE STRING: /mnt/beegfs/iconst01/spec2017/Blender.trace.gz
SORTED
TRACE STRING: /mnt/beegfs/iconst01/spec2017/Blender.trace.gz
INITIAL
TRACE STRING: /mnt/beegfs/iconst01/spec2017/Blender.trace.gz

champsim_seed used: 700

CPU 0 L1D next line prefetcher
CPU 0 L2C IP-based stride prefetcher
Initialize DRRIP state
Assign rand_sets[0]: 454  LLC: 2048
rand_sets[0]: 454
Assign rand_sets[1]: 1662  LLC: 2048
rand_sets[1]: 1662
Assign rand_sets[2]: 1921  LLC: 2048
rand_sets[2]: 1921
Assign rand_sets[3]: 1131  LLC: 2048
rand_sets[3]: 1131
Assign rand_sets[4]: 331  LLC: 2048
rand_sets[4]: 331
Assign rand_sets[5]: 1531  LLC: 2048
rand_sets[5]: 1531
Assign rand_sets[6]: 482  LLC: 2048
rand_sets[6]: 482
Assign rand_sets[7]: 1275  LLC: 2048
rand_sets[7]: 1275
Assign rand_sets[8]: 1876  LLC: 2048
rand_sets[8]: 1876
Assign rand_sets[9]: 2038  LLC: 2048
rand_sets[9]: 2038
Assign rand_sets[10]: 701  LLC: 2048
rand_sets[10]: 701
Assign rand_sets[11]: 479  LLC: 2048
rand_sets[11]: 479
Assign rand_sets[12]: 892  LLC: 2048
rand_sets[12]: 892
Assign rand_sets[13]: 1820  LLC: 2048
rand_sets[13]: 1820
Assign rand_sets[14]: 1505  LLC: 2048
rand_sets[14]: 1505
Assign rand_sets[15]: 1159  LLC: 2048
rand_sets[15]: 1159
Assign rand_sets[16]: 513  LLC: 2048
rand_sets[16]: 513
Assign rand_sets[17]: 703  LLC: 2048
rand_sets[17]: 703
Assign rand_sets[18]: 561  LLC: 2048
rand_sets[18]: 561
Assign rand_sets[19]: 990  LLC: 2048
rand_sets[19]: 990
Assign rand_sets[20]: 342  LLC: 2048
rand_sets[20]: 342
Assign rand_sets[21]: 882  LLC: 2048
rand_sets[21]: 882
Assign rand_sets[22]: 15  LLC: 2048
rand_sets[22]: 15
Assign rand_sets[23]: 71  LLC: 2048
rand_sets[23]: 71
Assign rand_sets[24]: 1127  LLC: 2048
rand_sets[24]: 1127
Assign rand_sets[25]: 1382  LLC: 2048
rand_sets[25]: 1382
Assign rand_sets[26]: 647  LLC: 2048
rand_sets[26]: 647
Assign rand_sets[27]: 857  LLC: 2048
rand_sets[27]: 857
Assign rand_sets[28]: 1450  LLC: 2048
rand_sets[28]: 1450
Assign rand_sets[29]: 1160  LLC: 2048
rand_sets[29]: 1160
Assign rand_sets[30]: 1852  LLC: 2048
rand_sets[30]: 1852
Assign rand_sets[31]: 1881  LLC: 2048
rand_sets[31]: 1881
Assign rand_sets[32]: 1770  LLC: 2048
rand_sets[32]: 1770
Assign rand_sets[33]: 1622  LLC: 2048
rand_sets[33]: 1622
Assign rand_sets[34]: 275  LLC: 2048
rand_sets[34]: 275
Assign rand_sets[35]: 635  LLC: 2048
rand_sets[35]: 635
Assign rand_sets[36]: 466  LLC: 2048
rand_sets[36]: 466
Assign rand_sets[37]: 1413  LLC: 2048
rand_sets[37]: 1413
Assign rand_sets[38]: 417  LLC: 2048
rand_sets[38]: 417
Assign rand_sets[39]: 472  LLC: 2048
rand_sets[39]: 472
Assign rand_sets[40]: 1340  LLC: 2048
rand_sets[40]: 1340
Assign rand_sets[41]: 852  LLC: 2048
rand_sets[41]: 852
Assign rand_sets[42]: 1365  LLC: 2048
rand_sets[42]: 1365
Assign rand_sets[43]: 47  LLC: 2048
rand_sets[43]: 47
Assign rand_sets[44]: 823  LLC: 2048
rand_sets[44]: 823
Assign rand_sets[45]: 686  LLC: 2048
rand_sets[45]: 686
Assign rand_sets[46]: 1637  LLC: 2048
rand_sets[46]: 1637
Assign rand_sets[47]: 1115  LLC: 2048
rand_sets[47]: 1115
Assign rand_sets[48]: 986  LLC: 2048
rand_sets[48]: 986
Assign rand_sets[49]: 258  LLC: 2048
rand_sets[49]: 258
Assign rand_sets[50]: 633  LLC: 2048
rand_sets[50]: 633
Assign rand_sets[51]: 920  LLC: 2048
rand_sets[51]: 920
Assign rand_sets[52]: 204  LLC: 2048
rand_sets[52]: 204
Assign rand_sets[53]: 227  LLC: 2048
rand_sets[53]: 227
Assign rand_sets[54]: 1818  LLC: 2048
rand_sets[54]: 1818
Assign rand_sets[55]: 886  LLC: 2048
rand_sets[55]: 886
Assign rand_sets[56]: 1422  LLC: 2048
rand_sets[56]: 1422
Assign rand_sets[57]: 607  LLC: 2048
rand_sets[57]: 607
Assign rand_sets[58]: 217  LLC: 2048
rand_sets[58]: 217
Assign rand_sets[59]: 1945  LLC: 2048
rand_sets[59]: 1945
Assign rand_sets[60]: 143  LLC: 2048
rand_sets[60]: 143
Assign rand_sets[61]: 1311  LLC: 2048
rand_sets[61]: 1311
Assign rand_sets[62]: 319  LLC: 2048
rand_sets[62]: 319
Assign rand_sets[63]: 1846  LLC: 2048
rand_sets[63]: 1846
 CLEAN-RRIP-POLICY-1: 2-2-1-1-2-3-0-2- CLEAN-RRIP-POLICY-2: 2-2-1-1-2-3-0-2-
 DIRTY-RRIP-POLICY-1: 0-2-0-1-1-3-0-2- DIRTY-RRIP-POLICY-2: 0-2-0-1-1-3-0-2-
 PSEL width: 10
Heartbeat CPU 0 instructions: 10000002 cycles: 5480873 heartbeat IPC: 1.82453 cumulative IPC: 1.82453 (Simulation time: 0 hr 0 min 13 sec) 
Heartbeat CPU 0 instructions: 20000000 cycles: 10913516 heartbeat IPC: 1.84072 cumulative IPC: 1.83259 (Simulation time: 0 hr 0 min 27 sec) 
Heartbeat CPU 0 instructions: 30000000 cycles: 16447780 heartbeat IPC: 1.80693 cumulative IPC: 1.82395 (Simulation time: 0 hr 0 min 40 sec) 
Heartbeat CPU 0 instructions: 40000000 cycles: 21898984 heartbeat IPC: 1.83446 cumulative IPC: 1.82657 (Simulation time: 0 hr 0 min 53 sec) 
Heartbeat CPU 0 instructions: 50000000 cycles: 27401472 heartbeat IPC: 1.81736 cumulative IPC: 1.82472 (Simulation time: 0 hr 1 min 6 sec) 
Heartbeat CPU 0 instructions: 60000000 cycles: 32780839 heartbeat IPC: 1.85895 cumulative IPC: 1.83034 (Simulation time: 0 hr 1 min 19 sec) 
Heartbeat CPU 0 instructions: 70000001 cycles: 38337742 heartbeat IPC: 1.79956 cumulative IPC: 1.82588 (Simulation time: 0 hr 1 min 32 sec) 
Heartbeat CPU 0 instructions: 80000000 cycles: 43798242 heartbeat IPC: 1.83133 cumulative IPC: 1.82656 (Simulation time: 0 hr 1 min 45 sec) 
Heartbeat CPU 0 instructions: 90000000 cycles: 49245808 heartbeat IPC: 1.83568 cumulative IPC: 1.82757 (Simulation time: 0 hr 1 min 58 sec) 
Heartbeat CPU 0 instructions: 100000000 cycles: 54791451 heartbeat IPC: 1.80322 cumulative IPC: 1.8251 (Simulation time: 0 hr 2 min 11 sec) 

Warmup complete CPU 0 instructions: 100000002 cycles: 54791452 (Simulation time: 0 hr 2 min 11 sec) 

Heartbeat CPU 0 instructions: 110000001 cycles: 69340900 heartbeat IPC: 0.687311 cumulative IPC: 0.687311 (Simulation time: 0 hr 2 min 30 sec) 
Heartbeat CPU 0 instructions: 120000000 cycles: 84537867 heartbeat IPC: 0.658026 cumulative IPC: 0.67235 (Simulation time: 0 hr 2 min 49 sec) 
Heartbeat CPU 0 instructions: 130000000 cycles: 99199551 heartbeat IPC: 0.68205 cumulative IPC: 0.675552 (Simulation time: 0 hr 3 min 8 sec) 
Heartbeat CPU 0 instructions: 140000000 cycles: 113637563 heartbeat IPC: 0.692616 cumulative IPC: 0.679739 (Simulation time: 0 hr 3 min 27 sec) 
Heartbeat CPU 0 instructions: 150000000 cycles: 128526541 heartbeat IPC: 0.671638 cumulative IPC: 0.678103 (Simulation time: 0 hr 3 min 46 sec) 
Heartbeat CPU 0 instructions: 160000000 cycles: 143816856 heartbeat IPC: 0.654009 cumulative IPC: 0.673965 (Simulation time: 0 hr 4 min 5 sec) 
Heartbeat CPU 0 instructions: 170000001 cycles: 158836638 heartbeat IPC: 0.665789 cumulative IPC: 0.672785 (Simulation time: 0 hr 4 min 23 sec) 
Heartbeat CPU 0 instructions: 180000000 cycles: 173962941 heartbeat IPC: 0.6611 cumulative IPC: 0.671301 (Simulation time: 0 hr 4 min 42 sec) 
Heartbeat CPU 0 instructions: 190000002 cycles: 188591990 heartbeat IPC: 0.683572 cumulative IPC: 0.672643 (Simulation time: 0 hr 5 min 1 sec) 
Heartbeat CPU 0 instructions: 200000000 cycles: 203115577 heartbeat IPC: 0.688535 cumulative IPC: 0.674199 (Simulation time: 0 hr 5 min 20 sec) 
Heartbeat CPU 0 instructions: 210000003 cycles: 217864200 heartbeat IPC: 0.67803 cumulative IPC: 0.674546 (Simulation time: 0 hr 5 min 39 sec) 
Heartbeat CPU 0 instructions: 220000000 cycles: 232740795 heartbeat IPC: 0.672197 cumulative IPC: 0.674349 (Simulation time: 0 hr 5 min 58 sec) 
Heartbeat CPU 0 instructions: 230000001 cycles: 248061074 heartbeat IPC: 0.65273 cumulative IPC: 0.672635 (Simulation time: 0 hr 6 min 17 sec) 
Heartbeat CPU 0 instructions: 240000000 cycles: 263118299 heartbeat IPC: 0.664133 cumulative IPC: 0.672021 (Simulation time: 0 hr 6 min 36 sec) 
Heartbeat CPU 0 instructions: 250000003 cycles: 278101499 heartbeat IPC: 0.667414 cumulative IPC: 0.671712 (Simulation time: 0 hr 6 min 54 sec) 
Heartbeat CPU 0 instructions: 260000000 cycles: 293819026 heartbeat IPC: 0.636232 cumulative IPC: 0.669379 (Simulation time: 0 hr 7 min 13 sec) 
Heartbeat CPU 0 instructions: 270000003 cycles: 308594398 heartbeat IPC: 0.676802 cumulative IPC: 0.669811 (Simulation time: 0 hr 7 min 32 sec) 
Heartbeat CPU 0 instructions: 280000000 cycles: 323225966 heartbeat IPC: 0.683454 cumulative IPC: 0.670555 (Simulation time: 0 hr 7 min 51 sec) 
Heartbeat CPU 0 instructions: 290000002 cycles: 337803833 heartbeat IPC: 0.685972 cumulative IPC: 0.671349 (Simulation time: 0 hr 8 min 10 sec) 
Heartbeat CPU 0 instructions: 300000000 cycles: 353421707 heartbeat IPC: 0.640292 cumulative IPC: 0.669725 (Simulation time: 0 hr 8 min 29 sec) 
Heartbeat CPU 0 instructions: 310000000 cycles: 368564767 heartbeat IPC: 0.660369 cumulative IPC: 0.669273 (Simulation time: 0 hr 8 min 48 sec) 
Heartbeat CPU 0 instructions: 320000000 cycles: 383529628 heartbeat IPC: 0.668232 cumulative IPC: 0.669226 (Simulation time: 0 hr 9 min 6 sec) 
Heartbeat CPU 0 instructions: 330000000 cycles: 399572646 heartbeat IPC: 0.623324 cumulative IPC: 0.66709 (Simulation time: 0 hr 9 min 25 sec) 
Heartbeat CPU 0 instructions: 340000000 cycles: 414365356 heartbeat IPC: 0.676009 cumulative IPC: 0.667457 (Simulation time: 0 hr 9 min 44 sec) 
Heartbeat CPU 0 instructions: 350000000 cycles: 429152661 heartbeat IPC: 0.676256 cumulative IPC: 0.667804 (Simulation time: 0 hr 10 min 3 sec) 
Heartbeat CPU 0 instructions: 360000000 cycles: 443958969 heartbeat IPC: 0.675388 cumulative IPC: 0.668093 (Simulation time: 0 hr 10 min 21 sec) 
Heartbeat CPU 0 instructions: 370000002 cycles: 459601867 heartbeat IPC: 0.639268 cumulative IPC: 0.666979 (Simulation time: 0 hr 10 min 40 sec) 
Heartbeat CPU 0 instructions: 380000000 cycles: 474563230 heartbeat IPC: 0.668388 cumulative IPC: 0.667029 (Simulation time: 0 hr 10 min 59 sec) 
Heartbeat CPU 0 instructions: 390000003 cycles: 489704719 heartbeat IPC: 0.660437 cumulative IPC: 0.6668 (Simulation time: 0 hr 11 min 18 sec) 
Heartbeat CPU 0 instructions: 400000000 cycles: 505795326 heartbeat IPC: 0.62148 cumulative IPC: 0.665183 (Simulation time: 0 hr 11 min 37 sec) 
Heartbeat CPU 0 instructions: 410000001 cycles: 520998439 heartbeat IPC: 0.65776 cumulative IPC: 0.664941 (Simulation time: 0 hr 11 min 56 sec) 
Heartbeat CPU 0 instructions: 420000000 cycles: 535905566 heartbeat IPC: 0.67082 cumulative IPC: 0.665123 (Simulation time: 0 hr 12 min 14 sec) 
Heartbeat CPU 0 instructions: 430000000 cycles: 551500545 heartbeat IPC: 0.641232 cumulative IPC: 0.664373 (Simulation time: 0 hr 12 min 33 sec) 
Heartbeat CPU 0 instructions: 440000000 cycles: 566424261 heartbeat IPC: 0.670074 cumulative IPC: 0.664539 (Simulation time: 0 hr 12 min 52 sec) 
Heartbeat CPU 0 instructions: 450000000 cycles: 581577612 heartbeat IPC: 0.65992 cumulative IPC: 0.664406 (Simulation time: 0 hr 13 min 11 sec) 
Heartbeat CPU 0 instructions: 460000000 cycles: 597551276 heartbeat IPC: 0.62603 cumulative IPC: 0.663277 (Simulation time: 0 hr 13 min 30 sec) 
Heartbeat CPU 0 instructions: 470000000 cycles: 612852678 heartbeat IPC: 0.653535 cumulative IPC: 0.66301 (Simulation time: 0 hr 13 min 48 sec) 
Heartbeat CPU 0 instructions: 480000000 cycles: 627905331 heartbeat IPC: 0.664335 cumulative IPC: 0.663045 (Simulation time: 0 hr 14 min 7 sec) 
Heartbeat CPU 0 instructions: 490000002 cycles: 643361303 heartbeat IPC: 0.646999 cumulative IPC: 0.662623 (Simulation time: 0 hr 14 min 26 sec) 
Heartbeat CPU 0 instructions: 500000000 cycles: 658336976 heartbeat IPC: 0.667749 cumulative IPC: 0.66275 (Simulation time: 0 hr 14 min 45 sec) 
Heartbeat CPU 0 instructions: 510000001 cycles: 673597123 heartbeat IPC: 0.655302 cumulative IPC: 0.662567 (Simulation time: 0 hr 15 min 4 sec) 
Heartbeat CPU 0 instructions: 520000000 cycles: 689286028 heartbeat IPC: 0.637393 cumulative IPC: 0.661944 (Simulation time: 0 hr 15 min 23 sec) 
Heartbeat CPU 0 instructions: 530000001 cycles: 704934133 heartbeat IPC: 0.639055 cumulative IPC: 0.661393 (Simulation time: 0 hr 15 min 42 sec) 
Heartbeat CPU 0 instructions: 540000000 cycles: 719688540 heartbeat IPC: 0.677764 cumulative IPC: 0.661757 (Simulation time: 0 hr 16 min 0 sec) 
Heartbeat CPU 0 instructions: 550000001 cycles: 735134328 heartbeat IPC: 0.647426 cumulative IPC: 0.661431 (Simulation time: 0 hr 16 min 19 sec) 
Heartbeat CPU 0 instructions: 560000000 cycles: 750050446 heartbeat IPC: 0.670416 cumulative IPC: 0.661624 (Simulation time: 0 hr 16 min 38 sec) 
Heartbeat CPU 0 instructions: 570000002 cycles: 765370318 heartbeat IPC: 0.652747 cumulative IPC: 0.661433 (Simulation time: 0 hr 16 min 57 sec) 
Heartbeat CPU 0 instructions: 580000000 cycles: 780570954 heartbeat IPC: 0.657867 cumulative IPC: 0.661358 (Simulation time: 0 hr 17 min 15 sec) 
Heartbeat CPU 0 instructions: 590000001 cycles: 795755806 heartbeat IPC: 0.658551 cumulative IPC: 0.6613 (Simulation time: 0 hr 17 min 34 sec) 
Heartbeat CPU 0 instructions: 600000000 cycles: 810594305 heartbeat IPC: 0.673923 cumulative IPC: 0.661548 (Simulation time: 0 hr 17 min 53 sec) 
Finished CPU 0 instructions: 500000000 cycles: 755802861 cumulative IPC: 0.661548 (Simulation time: 0 hr 17 min 53 sec) 

CPU 0 Branch Prediction Accuracy: 93.7783% MPKI: 10.0718
Number of Branches: 80940586 Number of Mispredictions: 5035908
Number of LOAD Instructions: 184238101
Number of LOAD Instructions (ROI): 184238101
Number of STORE Instructions: 33143298
Number of STORE Instructions (ROI): 33143298
Total Destination Memory Operands: 33324321
Total Destination Memory Operands (ROI): 33324321
Total Source Memory Operands: 184238101
Total Source Memory Operands (ROI): 184238101
Number of DEPENDED LOADS: 4461487
Number of DEPENDED LOADS (ROI): 4461487
Number of SQ_ADDED: 33324292
Number of SQ_ADDED (ROI): 33324292
Number of LQ_ADDED: 184857479
Number of LQ_ADDED (ROI): 184857479
Number of Instructions read from trace: 600000256

ChampSim completed all CPUs

Region of Interest Statistics

CPU 0 cumulative IPC: 0.661548 instructions: 500000000 cycles: 755802861
ITLB TOTAL     ACCESS:   77751562  HIT:   77751562  MISS:          0
ITLB LOAD      ACCESS:   77751562  HIT:   77751562  MISS:          0
ITLB RFO       ACCESS:          0  HIT:          0  MISS:          0
ITLB PREFETCH  ACCESS:          0  HIT:          0  MISS:          0
ITLB WRITEBACK ACCESS:          0  HIT:          0  MISS:          0
ITLB PREFETCH  REQUESTED:          0  ISSUED:          0  USEFUL:          0  USELESS:          0
ITLB TOTAL MSHR MERGED:          0
ITLB LOAD MSHR MERGED:          0
ITLB RFO MSHR MERGED:          0
ITLB PREFETCH MSHR MERGED:          0
ITLB WRITEBACK MSHR MERGED:          0
ITLB TOTAL ACCESSES:   77751562 HITS:   77751562 MISSES:          0
ITLB LOAD ACCESSES:   77751562 HITS:   77751562 MISSES:          0
ITLB RFO ACCESSES:          0 HITS:          0 MISSES:          0
ITLB PREFETCH ACCESSES:          0 HITS:          0 MISSES:          0
ITLB WRITEBACK ACCESSES:          0 HITS:          0 MISSES:          0
ITLB RQ ACCESS:  500000245
ITLB RQ TO_CACHE:   77751562
ITLB RQ MERGED:  422248683
ITLB RQ FORWARD:          0
ITLB WQ ACCESS:          0
ITLB WQ TO_CACHE:          0
ITLB WQ MERGED:          0
ITLB WQ FORWARD:          0
DTLB TOTAL     ACCESS:   88438318  HIT:   87301472  MISS:    1136846
DTLB LOAD      ACCESS:   66311447  HIT:   65178841  MISS:    1132606
DTLB RFO       ACCESS:   22126871  HIT:   22122631  MISS:       4240
DTLB PREFETCH  ACCESS:          0  HIT:          0  MISS:          0
DTLB WRITEBACK ACCESS:          0  HIT:          0  MISS:          0
DTLB PREFETCH  REQUESTED:          0  ISSUED:          0  USEFUL:          0  USELESS:          0
DTLB TOTAL MSHR MERGED:     135559
DTLB LOAD MSHR MERGED:     133741
DTLB RFO MSHR MERGED:       1818
DTLB PREFETCH MSHR MERGED:          0
DTLB WRITEBACK MSHR MERGED:          0
DTLB TOTAL ACCESSES:   88573877 HITS:   87301472 MISSES:    1272405
DTLB LOAD ACCESSES:   66445188 HITS:   65178841 MISSES:    1266347
DTLB RFO ACCESSES:   22128689 HITS:   22122631 MISSES:       6058
DTLB PREFETCH ACCESSES:          0 HITS:          0 MISSES:          0
DTLB WRITEBACK ACCESSES:          0 HITS:          0 MISSES:          0
DTLB RQ ACCESS:  177579194
DTLB RQ TO_CACHE:   88573877
DTLB RQ MERGED:   89005317
DTLB RQ FORWARD:          0
DTLB WQ ACCESS:          0
DTLB WQ TO_CACHE:          0
DTLB WQ MERGED:          0
DTLB WQ FORWARD:          0
L1D TOTAL     ACCESS:  142173887  HIT:  136614800  MISS:    5559087
L1D LOAD      ACCESS:   61385939  HIT:   58302596  MISS:    3083343
L1D RFO       ACCESS:   27669087  HIT:   27587270  MISS:      81817
L1D PREFETCH  ACCESS:   53118861  HIT:   50724934  MISS:    2393927
L1D WRITEBACK ACCESS:          0  HIT:          0  MISS:          0
L1D PREFETCH  REQUESTED:   61673305  ISSUED:   60755102  USEFUL:     687034  USELESS:    1706898
L1D TOTAL MSHR MERGED:    1110984
L1D LOAD MSHR MERGED:     365049
L1D RFO MSHR MERGED:     163993
L1D PREFETCH MSHR MERGED:     581942
L1D WRITEBACK MSHR MERGED:          0
L1D TOTAL ACCESSES:  143382479 HITS:  136712408 MISSES:    6670071
L1D LOAD ACCESSES:   61673314 HITS:   58302605 MISSES:    3370709
L1D RFO ACCESSES:   27829288 HITS:   27587270 MISSES:     242018
L1D PREFETCH ACCESSES:   53879877 HITS:   50822533 MISSES:    3057344
L1D WRITEBACK ACCESSES:          0 HITS:          0 MISSES:          0
L1D RQ ACCESS:  149746228
L1D RQ TO_CACHE:   61673305
L1D RQ MERGED:   88072914
L1D RQ FORWARD:          0
L1D WQ ACCESS:   27832966
L1D WQ TO_CACHE:   27829288
L1D WQ MERGED:       3678
L1D WQ FORWARD:      97608
L1I TOTAL     ACCESS:   96228536  HIT:   96069272  MISS:     159264
L1I LOAD      ACCESS:   96228536  HIT:   96069272  MISS:     159264
L1I RFO       ACCESS:          0  HIT:          0  MISS:          0
L1I PREFETCH  ACCESS:          0  HIT:          0  MISS:          0
L1I WRITEBACK ACCESS:          0  HIT:          0  MISS:          0
L1I PREFETCH  REQUESTED:          0  ISSUED:          0  USEFUL:          0  USELESS:          0
L1I TOTAL MSHR MERGED:     130342
L1I LOAD MSHR MERGED:     130342
L1I RFO MSHR MERGED:          0
L1I PREFETCH MSHR MERGED:          0
L1I WRITEBACK MSHR MERGED:          0
L1I TOTAL ACCESSES:   96358878 HITS:   96069272 MISSES:     289606
L1I LOAD ACCESSES:   96358878 HITS:   96069272 MISSES:     289606
L1I RFO ACCESSES:          0 HITS:          0 MISSES:          0
L1I PREFETCH ACCESSES:          0 HITS:          0 MISSES:          0
L1I WRITEBACK ACCESSES:          0 HITS:          0 MISSES:          0
L1I RQ ACCESS:  500000245
L1I RQ TO_CACHE:   96358878
L1I RQ MERGED:  403641367
L1I RQ FORWARD:          0
L1I WQ ACCESS:          0
L1I WQ TO_CACHE:          0
L1I WQ MERGED:          0
L1I WQ FORWARD:          0
L2C TOTAL     ACCESS:    5912793  HIT:    3064113  MISS:    2848680
L2C LOAD      ACCESS:    3164914  HIT:    1583733  MISS:    1581181
L2C RFO       ACCESS:      77949  HIT:      45094  MISS:      32855
L2C PREFETCH  ACCESS:    2526390  HIT:    1297330  MISS:    1229060
L2C WRITEBACK ACCESS:     143540  HIT:     137956  MISS:       5584
L2C PREFETCH  REQUESTED:      52723  ISSUED:      52723  USEFUL:      19372  USELESS:    1209728
L2C TOTAL MSHR MERGED:        807
L2C LOAD MSHR MERGED:        238
L2C RFO MSHR MERGED:          0
L2C PREFETCH MSHR MERGED:        569
L2C WRITEBACK MSHR MERGED:          0
L2C TOTAL ACCESSES:    5913689 HITS:    3064199 MISSES:    2849490
L2C LOAD ACCESSES:    3164924 HITS:    1583743 MISSES:    1581181
L2C RFO ACCESSES:      78025 HITS:      45170 MISSES:      32855
L2C PREFETCH ACCESSES:    2527200 HITS:    1297330 MISSES:    1229870
L2C WRITEBACK ACCESSES:     143540 HITS:     137956 MISSES:       5584
L2C RQ ACCESS:    3242949
L2C RQ TO_CACHE:    3242863
L2C RQ MERGED:          0
L2C RQ FORWARD:          0
L2C WQ ACCESS:     143540
L2C WQ TO_CACHE:     143540
L2C WQ MERGED:          0
L2C WQ FORWARD:         86
LLC TOTAL     ACCESS:    2892635  HIT:    1930109  MISS:     962526
LLC LOAD      ACCESS:    1580943  HIT:    1036784  MISS:     544159
LLC RFO       ACCESS:      32845  HIT:      32648  MISS:        197
LLC PREFETCH  ACCESS:    1229301  HIT:     811409  MISS:     417892
LLC WRITEBACK ACCESS:      49546  HIT:      49268  MISS:        278
LLC PREFETCH  REQUESTED:          0  ISSUED:          0  USEFUL:      26888  USELESS:     390770
LLC TOTAL MSHR MERGED:          0
LLC LOAD MSHR MERGED:          0
LLC RFO MSHR MERGED:          0
LLC PREFETCH MSHR MERGED:          0
LLC WRITEBACK MSHR MERGED:          0
LLC TOTAL ACCESSES:    2892645 HITS:    1930119 MISSES:     962526
LLC LOAD ACCESSES:    1580943 HITS:    1036784 MISSES:     544159
LLC RFO ACCESSES:      32855 HITS:      32658 MISSES:        197
LLC PREFETCH ACCESSES:    1229301 HITS:     811409 MISSES:     417892
LLC WRITEBACK ACCESSES:      49546 HITS:      49268 MISSES:        278
LLC 0 RQ ACCESS:    1613798
LLC 0 RQ TO_CACHE:    1613788
LLC 0 RQ MERGED:          0
LLC 0 RQ FORWARD:          0
LLC WQ ACCESS:      49546
LLC WQ TO_CACHE:      49546
LLC WQ MERGED:          0
LLC WQ FORWARD:         10
Major fault: 0 Minor fault: 8460
CPU 0 L1D next line prefetcher final stats
CPU 0 L2C PC-based stride prefetcher final stats
All Misses: 1147061
All Hits: 2282169
SD Algo Stats - Switches: 0 SRR-Repls: 625224 BRR-Repls: 0

DRAM Statistics
 CHANNEL 0
 RQ ROW_BUFFER_HIT:     336641  ROW_BUFFER_MISS:     625568
 DBUS_CONGESTED:     360658
 WQ ROW_BUFFER_HIT:         39  ROW_BUFFER_MISS:        580  FULL:          0

 AVG_CONGESTED_CYCLE: 12
LOADS RETIRED: 153532848
INSTR RETIRED: 500000000
