
*** ChampSim Multicore Out-of-Order Simulator ***

Warmup Instructions: 100000000
Simulation Instructions: 500000000
Number of CPUs: 1
LLC sets: 2048
LLC ways: 16
Clean RRIP Policies: 2211230222112302 Dirty RRIP Policies: 201130202011302 PSEL Width: 10 Track Set: 4294967295 PSEL Mask: 1 Demote Mask: 1040100010401000DS Algo: 0Window size: 0
Off-chip DRAM Size: 4096 MB Channels: 1 Width: 64-bit Data Rate: 1600 MT/s

CPU 0 runs /mnt/beegfs/iconst01/spec2017/cactuBSSN.trace.gz
NOT SORTED
TRACE STRING: /mnt/beegfs/iconst01/spec2017/cactuBSSN.trace.gz
SORTED
TRACE STRING: /mnt/beegfs/iconst01/spec2017/cactuBSSN.trace.gz
INITIAL
TRACE STRING: /mnt/beegfs/iconst01/spec2017/cactuBSSN.trace.gz

champsim_seed used: 838

CPU 0 L1D next line prefetcher
CPU 0 L2C IP-based stride prefetcher
Initialize DRRIP state
Assign rand_sets[0]: 454  LLC: 2048
rand_sets[0]: 454
Assign rand_sets[1]: 1662  LLC: 2048
rand_sets[1]: 1662
Assign rand_sets[2]: 1921  LLC: 2048
rand_sets[2]: 1921
Assign rand_sets[3]: 1131  LLC: 2048
rand_sets[3]: 1131
Assign rand_sets[4]: 331  LLC: 2048
rand_sets[4]: 331
Assign rand_sets[5]: 1531  LLC: 2048
rand_sets[5]: 1531
Assign rand_sets[6]: 482  LLC: 2048
rand_sets[6]: 482
Assign rand_sets[7]: 1275  LLC: 2048
rand_sets[7]: 1275
Assign rand_sets[8]: 1876  LLC: 2048
rand_sets[8]: 1876
Assign rand_sets[9]: 2038  LLC: 2048
rand_sets[9]: 2038
Assign rand_sets[10]: 701  LLC: 2048
rand_sets[10]: 701
Assign rand_sets[11]: 479  LLC: 2048
rand_sets[11]: 479
Assign rand_sets[12]: 892  LLC: 2048
rand_sets[12]: 892
Assign rand_sets[13]: 1820  LLC: 2048
rand_sets[13]: 1820
Assign rand_sets[14]: 1505  LLC: 2048
rand_sets[14]: 1505
Assign rand_sets[15]: 1159  LLC: 2048
rand_sets[15]: 1159
Assign rand_sets[16]: 513  LLC: 2048
rand_sets[16]: 513
Assign rand_sets[17]: 703  LLC: 2048
rand_sets[17]: 703
Assign rand_sets[18]: 561  LLC: 2048
rand_sets[18]: 561
Assign rand_sets[19]: 990  LLC: 2048
rand_sets[19]: 990
Assign rand_sets[20]: 342  LLC: 2048
rand_sets[20]: 342
Assign rand_sets[21]: 882  LLC: 2048
rand_sets[21]: 882
Assign rand_sets[22]: 15  LLC: 2048
rand_sets[22]: 15
Assign rand_sets[23]: 71  LLC: 2048
rand_sets[23]: 71
Assign rand_sets[24]: 1127  LLC: 2048
rand_sets[24]: 1127
Assign rand_sets[25]: 1382  LLC: 2048
rand_sets[25]: 1382
Assign rand_sets[26]: 647  LLC: 2048
rand_sets[26]: 647
Assign rand_sets[27]: 857  LLC: 2048
rand_sets[27]: 857
Assign rand_sets[28]: 1450  LLC: 2048
rand_sets[28]: 1450
Assign rand_sets[29]: 1160  LLC: 2048
rand_sets[29]: 1160
Assign rand_sets[30]: 1852  LLC: 2048
rand_sets[30]: 1852
Assign rand_sets[31]: 1881  LLC: 2048
rand_sets[31]: 1881
Assign rand_sets[32]: 1770  LLC: 2048
rand_sets[32]: 1770
Assign rand_sets[33]: 1622  LLC: 2048
rand_sets[33]: 1622
Assign rand_sets[34]: 275  LLC: 2048
rand_sets[34]: 275
Assign rand_sets[35]: 635  LLC: 2048
rand_sets[35]: 635
Assign rand_sets[36]: 466  LLC: 2048
rand_sets[36]: 466
Assign rand_sets[37]: 1413  LLC: 2048
rand_sets[37]: 1413
Assign rand_sets[38]: 417  LLC: 2048
rand_sets[38]: 417
Assign rand_sets[39]: 472  LLC: 2048
rand_sets[39]: 472
Assign rand_sets[40]: 1340  LLC: 2048
rand_sets[40]: 1340
Assign rand_sets[41]: 852  LLC: 2048
rand_sets[41]: 852
Assign rand_sets[42]: 1365  LLC: 2048
rand_sets[42]: 1365
Assign rand_sets[43]: 47  LLC: 2048
rand_sets[43]: 47
Assign rand_sets[44]: 823  LLC: 2048
rand_sets[44]: 823
Assign rand_sets[45]: 686  LLC: 2048
rand_sets[45]: 686
Assign rand_sets[46]: 1637  LLC: 2048
rand_sets[46]: 1637
Assign rand_sets[47]: 1115  LLC: 2048
rand_sets[47]: 1115
Assign rand_sets[48]: 986  LLC: 2048
rand_sets[48]: 986
Assign rand_sets[49]: 258  LLC: 2048
rand_sets[49]: 258
Assign rand_sets[50]: 633  LLC: 2048
rand_sets[50]: 633
Assign rand_sets[51]: 920  LLC: 2048
rand_sets[51]: 920
Assign rand_sets[52]: 204  LLC: 2048
rand_sets[52]: 204
Assign rand_sets[53]: 227  LLC: 2048
rand_sets[53]: 227
Assign rand_sets[54]: 1818  LLC: 2048
rand_sets[54]: 1818
Assign rand_sets[55]: 886  LLC: 2048
rand_sets[55]: 886
Assign rand_sets[56]: 1422  LLC: 2048
rand_sets[56]: 1422
Assign rand_sets[57]: 607  LLC: 2048
rand_sets[57]: 607
Assign rand_sets[58]: 217  LLC: 2048
rand_sets[58]: 217
Assign rand_sets[59]: 1945  LLC: 2048
rand_sets[59]: 1945
Assign rand_sets[60]: 143  LLC: 2048
rand_sets[60]: 143
Assign rand_sets[61]: 1311  LLC: 2048
rand_sets[61]: 1311
Assign rand_sets[62]: 319  LLC: 2048
rand_sets[62]: 319
Assign rand_sets[63]: 1846  LLC: 2048
rand_sets[63]: 1846
 CLEAN-RRIP-POLICY-1: 2-2-1-1-2-3-0-2- CLEAN-RRIP-POLICY-2: 2-2-1-1-2-3-0-2-
 DIRTY-RRIP-POLICY-1: 0-2-0-1-1-3-0-2- DIRTY-RRIP-POLICY-2: 0-2-0-1-1-3-0-2-
 PSEL width: 10
Heartbeat CPU 0 instructions: 10000000 cycles: 6587903 heartbeat IPC: 1.51793 cumulative IPC: 1.51793 (Simulation time: 0 hr 0 min 24 sec) 
Heartbeat CPU 0 instructions: 20000000 cycles: 13179349 heartbeat IPC: 1.51712 cumulative IPC: 1.51753 (Simulation time: 0 hr 0 min 49 sec) 
Heartbeat CPU 0 instructions: 30000003 cycles: 19772520 heartbeat IPC: 1.51672 cumulative IPC: 1.51726 (Simulation time: 0 hr 1 min 13 sec) 
Heartbeat CPU 0 instructions: 40000000 cycles: 26364003 heartbeat IPC: 1.51711 cumulative IPC: 1.51722 (Simulation time: 0 hr 1 min 38 sec) 
Heartbeat CPU 0 instructions: 50000001 cycles: 32956427 heartbeat IPC: 1.51689 cumulative IPC: 1.51715 (Simulation time: 0 hr 2 min 3 sec) 
Heartbeat CPU 0 instructions: 60000000 cycles: 39554897 heartbeat IPC: 1.5155 cumulative IPC: 1.51688 (Simulation time: 0 hr 2 min 27 sec) 
Heartbeat CPU 0 instructions: 70000003 cycles: 46153081 heartbeat IPC: 1.51557 cumulative IPC: 1.51669 (Simulation time: 0 hr 2 min 52 sec) 
Heartbeat CPU 0 instructions: 80000000 cycles: 52751012 heartbeat IPC: 1.51563 cumulative IPC: 1.51656 (Simulation time: 0 hr 3 min 17 sec) 
Heartbeat CPU 0 instructions: 90000002 cycles: 59346267 heartbeat IPC: 1.51624 cumulative IPC: 1.51652 (Simulation time: 0 hr 3 min 41 sec) 
Heartbeat CPU 0 instructions: 100000000 cycles: 65940963 heartbeat IPC: 1.51637 cumulative IPC: 1.51651 (Simulation time: 0 hr 4 min 5 sec) 

Warmup complete CPU 0 instructions: 100000002 cycles: 65940964 (Simulation time: 0 hr 4 min 5 sec) 

Heartbeat CPU 0 instructions: 110000000 cycles: 79089060 heartbeat IPC: 0.760566 cumulative IPC: 0.760566 (Simulation time: 0 hr 4 min 35 sec) 
Heartbeat CPU 0 instructions: 120000000 cycles: 92219168 heartbeat IPC: 0.761608 cumulative IPC: 0.761087 (Simulation time: 0 hr 5 min 5 sec) 
Heartbeat CPU 0 instructions: 130000001 cycles: 105395222 heartbeat IPC: 0.758953 cumulative IPC: 0.760374 (Simulation time: 0 hr 5 min 35 sec) 
Heartbeat CPU 0 instructions: 140000000 cycles: 118496701 heartbeat IPC: 0.763273 cumulative IPC: 0.761097 (Simulation time: 0 hr 6 min 5 sec) 
Heartbeat CPU 0 instructions: 150000001 cycles: 131600309 heartbeat IPC: 0.763149 cumulative IPC: 0.761506 (Simulation time: 0 hr 6 min 35 sec) 
Heartbeat CPU 0 instructions: 160000000 cycles: 144762581 heartbeat IPC: 0.759747 cumulative IPC: 0.761212 (Simulation time: 0 hr 7 min 5 sec) 
Heartbeat CPU 0 instructions: 170000000 cycles: 157879562 heartbeat IPC: 0.762371 cumulative IPC: 0.761378 (Simulation time: 0 hr 7 min 35 sec) 
Heartbeat CPU 0 instructions: 180000000 cycles: 170993178 heartbeat IPC: 0.762566 cumulative IPC: 0.761526 (Simulation time: 0 hr 8 min 4 sec) 
Heartbeat CPU 0 instructions: 190000000 cycles: 184096980 heartbeat IPC: 0.763137 cumulative IPC: 0.761705 (Simulation time: 0 hr 8 min 34 sec) 
Heartbeat CPU 0 instructions: 200000000 cycles: 197264225 heartbeat IPC: 0.75946 cumulative IPC: 0.76148 (Simulation time: 0 hr 9 min 4 sec) 
Heartbeat CPU 0 instructions: 210000002 cycles: 210375179 heartbeat IPC: 0.762721 cumulative IPC: 0.761592 (Simulation time: 0 hr 9 min 34 sec) 
Heartbeat CPU 0 instructions: 220000000 cycles: 223480701 heartbeat IPC: 0.763037 cumulative IPC: 0.761713 (Simulation time: 0 hr 10 min 4 sec) 
Heartbeat CPU 0 instructions: 230000003 cycles: 236642029 heartbeat IPC: 0.759802 cumulative IPC: 0.761565 (Simulation time: 0 hr 10 min 34 sec) 
Heartbeat CPU 0 instructions: 240000000 cycles: 249761554 heartbeat IPC: 0.762222 cumulative IPC: 0.761612 (Simulation time: 0 hr 11 min 4 sec) 
Heartbeat CPU 0 instructions: 250000001 cycles: 262905014 heartbeat IPC: 0.760835 cumulative IPC: 0.76156 (Simulation time: 0 hr 11 min 33 sec) 
Heartbeat CPU 0 instructions: 260000000 cycles: 276021325 heartbeat IPC: 0.762409 cumulative IPC: 0.761613 (Simulation time: 0 hr 12 min 3 sec) 
Heartbeat CPU 0 instructions: 270000003 cycles: 289182793 heartbeat IPC: 0.759794 cumulative IPC: 0.761506 (Simulation time: 0 hr 12 min 33 sec) 
Heartbeat CPU 0 instructions: 280000000 cycles: 302321322 heartbeat IPC: 0.76112 cumulative IPC: 0.761485 (Simulation time: 0 hr 13 min 3 sec) 
Heartbeat CPU 0 instructions: 290000000 cycles: 315429210 heartbeat IPC: 0.762899 cumulative IPC: 0.761559 (Simulation time: 0 hr 13 min 33 sec) 
Heartbeat CPU 0 instructions: 300000000 cycles: 328589875 heartbeat IPC: 0.75984 cumulative IPC: 0.761473 (Simulation time: 0 hr 14 min 3 sec) 
Heartbeat CPU 0 instructions: 310000001 cycles: 341702535 heartbeat IPC: 0.762622 cumulative IPC: 0.761527 (Simulation time: 0 hr 14 min 32 sec) 
Heartbeat CPU 0 instructions: 320000000 cycles: 354824173 heartbeat IPC: 0.7621 cumulative IPC: 0.761553 (Simulation time: 0 hr 15 min 2 sec) 
Heartbeat CPU 0 instructions: 330000002 cycles: 367945876 heartbeat IPC: 0.762096 cumulative IPC: 0.761577 (Simulation time: 0 hr 15 min 32 sec) 
Heartbeat CPU 0 instructions: 340000000 cycles: 381122790 heartbeat IPC: 0.758903 cumulative IPC: 0.761465 (Simulation time: 0 hr 16 min 2 sec) 
Heartbeat CPU 0 instructions: 350000000 cycles: 394271872 heartbeat IPC: 0.760509 cumulative IPC: 0.761427 (Simulation time: 0 hr 16 min 32 sec) 
Heartbeat CPU 0 instructions: 360000000 cycles: 407418222 heartbeat IPC: 0.760667 cumulative IPC: 0.761398 (Simulation time: 0 hr 17 min 2 sec) 
Heartbeat CPU 0 instructions: 370000002 cycles: 420604070 heartbeat IPC: 0.758389 cumulative IPC: 0.761286 (Simulation time: 0 hr 17 min 32 sec) 
Heartbeat CPU 0 instructions: 380000000 cycles: 433708094 heartbeat IPC: 0.763124 cumulative IPC: 0.761351 (Simulation time: 0 hr 18 min 1 sec) 
Heartbeat CPU 0 instructions: 390000000 cycles: 446802131 heartbeat IPC: 0.763706 cumulative IPC: 0.761432 (Simulation time: 0 hr 18 min 31 sec) 
Heartbeat CPU 0 instructions: 400000000 cycles: 459917059 heartbeat IPC: 0.76249 cumulative IPC: 0.761468 (Simulation time: 0 hr 19 min 1 sec) 
Heartbeat CPU 0 instructions: 410000001 cycles: 473072059 heartbeat IPC: 0.760167 cumulative IPC: 0.761425 (Simulation time: 0 hr 19 min 31 sec) 
Heartbeat CPU 0 instructions: 420000000 cycles: 486173127 heartbeat IPC: 0.763296 cumulative IPC: 0.761484 (Simulation time: 0 hr 20 min 1 sec) 
Heartbeat CPU 0 instructions: 430000001 cycles: 499288651 heartbeat IPC: 0.762455 cumulative IPC: 0.761513 (Simulation time: 0 hr 20 min 30 sec) 
Heartbeat CPU 0 instructions: 440000000 cycles: 512394375 heartbeat IPC: 0.763025 cumulative IPC: 0.761558 (Simulation time: 0 hr 21 min 0 sec) 
Heartbeat CPU 0 instructions: 450000002 cycles: 525592930 heartbeat IPC: 0.757659 cumulative IPC: 0.761446 (Simulation time: 0 hr 21 min 30 sec) 
Heartbeat CPU 0 instructions: 460000000 cycles: 538717725 heartbeat IPC: 0.761917 cumulative IPC: 0.761459 (Simulation time: 0 hr 22 min 0 sec) 
Heartbeat CPU 0 instructions: 470000003 cycles: 551840484 heartbeat IPC: 0.762035 cumulative IPC: 0.761474 (Simulation time: 0 hr 22 min 29 sec) 
Heartbeat CPU 0 instructions: 480000000 cycles: 565014295 heartbeat IPC: 0.759082 cumulative IPC: 0.761411 (Simulation time: 0 hr 22 min 59 sec) 
Heartbeat CPU 0 instructions: 490000000 cycles: 578129053 heartbeat IPC: 0.7625 cumulative IPC: 0.761439 (Simulation time: 0 hr 23 min 29 sec) 
Heartbeat CPU 0 instructions: 500000000 cycles: 591242212 heartbeat IPC: 0.762593 cumulative IPC: 0.761468 (Simulation time: 0 hr 23 min 59 sec) 
Heartbeat CPU 0 instructions: 510000001 cycles: 604342259 heartbeat IPC: 0.763356 cumulative IPC: 0.761514 (Simulation time: 0 hr 24 min 29 sec) 
Heartbeat CPU 0 instructions: 520000000 cycles: 617526163 heartbeat IPC: 0.758501 cumulative IPC: 0.761442 (Simulation time: 0 hr 24 min 58 sec) 
Heartbeat CPU 0 instructions: 530000000 cycles: 630672798 heartbeat IPC: 0.760651 cumulative IPC: 0.761423 (Simulation time: 0 hr 25 min 28 sec) 
Heartbeat CPU 0 instructions: 540000000 cycles: 643801556 heartbeat IPC: 0.761687 cumulative IPC: 0.761429 (Simulation time: 0 hr 25 min 58 sec) 
Heartbeat CPU 0 instructions: 550000002 cycles: 656972021 heartbeat IPC: 0.759275 cumulative IPC: 0.761381 (Simulation time: 0 hr 26 min 28 sec) 
Heartbeat CPU 0 instructions: 560000000 cycles: 670064589 heartbeat IPC: 0.763792 cumulative IPC: 0.761434 (Simulation time: 0 hr 26 min 57 sec) 
Heartbeat CPU 0 instructions: 570000001 cycles: 683174518 heartbeat IPC: 0.762781 cumulative IPC: 0.761462 (Simulation time: 0 hr 27 min 27 sec) 
Heartbeat CPU 0 instructions: 580000000 cycles: 696292258 heartbeat IPC: 0.762326 cumulative IPC: 0.76148 (Simulation time: 0 hr 27 min 57 sec) 
Heartbeat CPU 0 instructions: 590000003 cycles: 709438274 heartbeat IPC: 0.760687 cumulative IPC: 0.761464 (Simulation time: 0 hr 28 min 27 sec) 
Heartbeat CPU 0 instructions: 600000000 cycles: 722581547 heartbeat IPC: 0.760845 cumulative IPC: 0.761452 (Simulation time: 0 hr 28 min 56 sec) 
Finished CPU 0 instructions: 500000000 cycles: 656640593 cumulative IPC: 0.761452 (Simulation time: 0 hr 28 min 56 sec) 

CPU 0 Branch Prediction Accuracy: 99.968% MPKI: 0.002246
Number of Branches: 3513331 Number of Mispredictions: 1123
Number of LOAD Instructions: 287251172
Number of LOAD Instructions (ROI): 287251172
Number of STORE Instructions: 51060820
Number of STORE Instructions (ROI): 51060820
Total Destination Memory Operands: 51166221
Total Destination Memory Operands (ROI): 51166221
Total Source Memory Operands: 287251172
Total Source Memory Operands (ROI): 287251172
Number of DEPENDED LOADS: 9555454
Number of DEPENDED LOADS (ROI): 9555454
Number of SQ_ADDED: 51166208
Number of SQ_ADDED (ROI): 51166208
Number of LQ_ADDED: 290420233
Number of LQ_ADDED (ROI): 290420233
Number of Instructions read from trace: 600000257

ChampSim completed all CPUs

Region of Interest Statistics

CPU 0 cumulative IPC: 0.761452 instructions: 500000000 cycles: 656640593
ITLB TOTAL     ACCESS:  108929656  HIT:  108929656  MISS:          0
ITLB LOAD      ACCESS:  108929656  HIT:  108929656  MISS:          0
ITLB RFO       ACCESS:          0  HIT:          0  MISS:          0
ITLB PREFETCH  ACCESS:          0  HIT:          0  MISS:          0
ITLB WRITEBACK ACCESS:          0  HIT:          0  MISS:          0
ITLB PREFETCH  REQUESTED:          0  ISSUED:          0  USEFUL:          0  USELESS:          0
ITLB TOTAL MSHR MERGED:          0
ITLB LOAD MSHR MERGED:          0
ITLB RFO MSHR MERGED:          0
ITLB PREFETCH MSHR MERGED:          0
ITLB WRITEBACK MSHR MERGED:          0
ITLB TOTAL ACCESSES:  108929656 HITS:  108929656 MISSES:          0
ITLB LOAD ACCESSES:  108929656 HITS:  108929656 MISSES:          0
ITLB RFO ACCESSES:          0 HITS:          0 MISSES:          0
ITLB PREFETCH ACCESSES:          0 HITS:          0 MISSES:          0
ITLB WRITEBACK ACCESSES:          0 HITS:          0 MISSES:          0
ITLB RQ ACCESS:  500000001
ITLB RQ TO_CACHE:  108929656
ITLB RQ MERGED:  391070345
ITLB RQ FORWARD:          0
ITLB WQ ACCESS:          0
ITLB WQ TO_CACHE:          0
ITLB WQ MERGED:          0
ITLB WQ FORWARD:          0
DTLB TOTAL     ACCESS:  171118087  HIT:  161101742  MISS:   10016345
DTLB LOAD      ACCESS:  143464351  HIT:  135588256  MISS:    7876095
DTLB RFO       ACCESS:   27653736  HIT:   25513486  MISS:    2140250
DTLB PREFETCH  ACCESS:          0  HIT:          0  MISS:          0
DTLB WRITEBACK ACCESS:          0  HIT:          0  MISS:          0
DTLB PREFETCH  REQUESTED:          0  ISSUED:          0  USEFUL:          0  USELESS:          0
DTLB TOTAL MSHR MERGED:     360495
DTLB LOAD MSHR MERGED:     360495
DTLB RFO MSHR MERGED:          0
DTLB PREFETCH MSHR MERGED:          0
DTLB WRITEBACK MSHR MERGED:          0
DTLB TOTAL ACCESSES:  171478582 HITS:  161101742 MISSES:   10376840
DTLB LOAD ACCESSES:  143824846 HITS:  135588256 MISSES:    8236590
DTLB RFO ACCESSES:   27653736 HITS:   25513486 MISSES:    2140250
DTLB PREFETCH ACCESSES:          0 HITS:          0 MISSES:          0
DTLB WRITEBACK ACCESSES:          0 HITS:          0 MISSES:          0
DTLB RQ ACCESS:  274072363
DTLB RQ TO_CACHE:  171478582
DTLB RQ MERGED:  102593781
DTLB RQ FORWARD:          0
DTLB WQ ACCESS:          0
DTLB WQ TO_CACHE:          0
DTLB WQ MERGED:          0
DTLB WQ FORWARD:          0
L1D TOTAL     ACCESS:  350882849  HIT:  283701814  MISS:   67181035
L1D LOAD      ACCESS:  175623991  HIT:  142594950  MISS:   33029041
L1D RFO       ACCESS:   42019005  HIT:   39213126  MISS:    2805879
L1D PREFETCH  ACCESS:  133239853  HIT:  101893738  MISS:   31346115
L1D WRITEBACK ACCESS:          0  HIT:          0  MISS:          0
L1D PREFETCH  REQUESTED:  176226493  ISSUED:  175287316  USEFUL:    2180174  USELESS:   29165943
L1D TOTAL MSHR MERGED:    1483636
L1D LOAD MSHR MERGED:     702726
L1D RFO MSHR MERGED:     350004
L1D PREFETCH MSHR MERGED:     430906
L1D WRITEBACK MSHR MERGED:          0
L1D TOTAL ACCESSES:  352480615 HITS:  283815944 MISSES:   68664671
L1D LOAD ACCESSES:  176234238 HITS:  142602695 MISSES:   33631543
L1D RFO ACCESSES:   42368324 HITS:   39213126 MISSES:    3155198
L1D PREFETCH ACCESSES:  133878053 HITS:  102000123 MISSES:   31877930
L1D WRITEBACK ACCESSES:          0 HITS:          0 MISSES:          0
L1D RQ ACCESS:  231433890
L1D RQ TO_CACHE:  176226493
L1D RQ MERGED:   55199652
L1D RQ FORWARD:          0
L1D WQ ACCESS:   42638475
L1D WQ TO_CACHE:   42368324
L1D WQ MERGED:     270151
L1D WQ FORWARD:     114130
L1I TOTAL     ACCESS:  109320532  HIT:   77804828  MISS:   31515704
L1I LOAD      ACCESS:  109320532  HIT:   77804828  MISS:   31515704
L1I RFO       ACCESS:          0  HIT:          0  MISS:          0
L1I PREFETCH  ACCESS:          0  HIT:          0  MISS:          0
L1I WRITEBACK ACCESS:          0  HIT:          0  MISS:          0
L1I PREFETCH  REQUESTED:          0  ISSUED:          0  USEFUL:          0  USELESS:          0
L1I TOTAL MSHR MERGED:   30761363
L1I LOAD MSHR MERGED:   30761363
L1I RFO MSHR MERGED:          0
L1I PREFETCH MSHR MERGED:          0
L1I WRITEBACK MSHR MERGED:          0
L1I TOTAL ACCESSES:  140081897 HITS:   77804828 MISSES:   62277069
L1I LOAD ACCESSES:  140081897 HITS:   77804828 MISSES:   62277069
L1I RFO ACCESSES:          0 HITS:          0 MISSES:          0
L1I PREFETCH ACCESSES:          0 HITS:          0 MISSES:          0
L1I WRITEBACK ACCESSES:          0 HITS:          0 MISSES:          0
L1I RQ ACCESS:  500000003
L1I RQ TO_CACHE:  140081897
L1I RQ MERGED:  359918106
L1I RQ FORWARD:          0
L1I WQ ACCESS:          0
L1I WQ TO_CACHE:          0
L1I WQ MERGED:          0
L1I WQ FORWARD:          0
L2C TOTAL     ACCESS:  113695131  HIT:  110680172  MISS:    3014959
L2C LOAD      ACCESS:   64442607  HIT:   63870689  MISS:     571918
L2C RFO       ACCESS:    2803146  HIT:    2193869  MISS:     609277
L2C PREFETCH  ACCESS:   43287770  HIT:   41460317  MISS:    1827453
L2C WRITEBACK ACCESS:    3161608  HIT:    3155297  MISS:       6311
L2C PREFETCH  REQUESTED:   15133420  ISSUED:   14617891  USEFUL:    1701750  USELESS:     125703
L2C TOTAL MSHR MERGED:      10015
L2C LOAD MSHR MERGED:          0
L2C RFO MSHR MERGED:          0
L2C PREFETCH MSHR MERGED:      10015
L2C WRITEBACK MSHR MERGED:          0
L2C TOTAL ACCESSES:  113881303 HITS:  110686216 MISSES:    3195087
L2C LOAD ACCESSES:   64444522 HITS:   63872603 MISSES:     571919
L2C RFO ACCESSES:    2805194 HITS:    2195917 MISSES:     609277
L2C PREFETCH ACCESSES:   43469979 HITS:   41462399 MISSES:    2007580
L2C WRITEBACK ACCESSES:    3161608 HITS:    3155297 MISSES:       6311
L2C RQ ACCESS:   67249717
L2C RQ TO_CACHE:   67245755
L2C RQ MERGED:          0
L2C RQ FORWARD:          0
L2C WQ ACCESS:    3161608
L2C WQ TO_CACHE:    3161608
L2C WQ MERGED:          0
L2C WQ FORWARD:       6044
LLC TOTAL     ACCESS:    3711062  HIT:    2326589  MISS:    1384473
LLC LOAD      ACCESS:     571888  HIT:     549966  MISS:      21922
LLC RFO       ACCESS:     527283  HIT:     239182  MISS:     288101
LLC PREFETCH  ACCESS:    1993575  HIT:     986114  MISS:    1007461
LLC WRITEBACK ACCESS:     618316  HIT:     551327  MISS:      66989
LLC PREFETCH  REQUESTED:          0  ISSUED:          0  USEFUL:      93502  USELESS:     913051
LLC TOTAL MSHR MERGED:       3415
LLC LOAD MSHR MERGED:          0
LLC RFO MSHR MERGED:          0
LLC PREFETCH MSHR MERGED:       3415
LLC WRITEBACK MSHR MERGED:          0
LLC TOTAL ACCESSES:    3796585 HITS:    2408697 MISSES:    1387888
LLC LOAD ACCESSES:     571918 HITS:     549996 MISSES:      21922
LLC RFO ACCESSES:     609277 HITS:     321176 MISSES:     288101
LLC PREFETCH ACCESSES:    1997074 HITS:     986198 MISSES:    1010876
LLC WRITEBACK ACCESSES:     618316 HITS:     551327 MISSES:      66989
LLC 0 RQ ACCESS:    1181196
LLC 0 RQ TO_CACHE:    1099172
LLC 0 RQ MERGED:          0
LLC 0 RQ FORWARD:          0
LLC WQ ACCESS:     618316
LLC WQ TO_CACHE:     618316
LLC WQ MERGED:          0
LLC WQ FORWARD:      82108
Major fault: 0 Minor fault: 12800
CPU 0 L1D next line prefetcher final stats
CPU 0 L2C PC-based stride prefetcher final stats
All Misses: 1667179
All Hits: 2894991
SD Algo Stats - Switches: 0 SRR-Repls: 27268 BRR-Repls: 0

DRAM Statistics
 CHANNEL 0
 RQ ROW_BUFFER_HIT:     722587  ROW_BUFFER_MISS:     594896
 DBUS_CONGESTED:     781864
 WQ ROW_BUFFER_HIT:      37939  ROW_BUFFER_MISS:     250389  FULL:          0

 AVG_CONGESTED_CYCLE: 13
LOADS RETIRED: 239375970
INSTR RETIRED: 500000000
