
*** ChampSim Multicore Out-of-Order Simulator ***

Warmup Instructions: 100000000
Simulation Instructions: 500000000
Number of CPUs: 1
LLC sets: 2048
LLC ways: 16
Clean RRIP Policies: 2211230222112302 Dirty RRIP Policies: 201130202011302 PSEL Width: 10 Track Set: 4294967295 PSEL Mask: 1 Demote Mask: 1040100010401000DS Algo: 0Window size: 0
Off-chip DRAM Size: 4096 MB Channels: 1 Width: 64-bit Data Rate: 1600 MT/s

CPU 0 runs /mnt/beegfs/iconst01/spec2017/Mcf.trace.gz
NOT SORTED
TRACE STRING: /mnt/beegfs/iconst01/spec2017/Mcf.trace.gz
SORTED
TRACE STRING: /mnt/beegfs/iconst01/spec2017/Mcf.trace.gz
INITIAL
TRACE STRING: /mnt/beegfs/iconst01/spec2017/Mcf.trace.gz

champsim_seed used: 278

CPU 0 L1D next line prefetcher
CPU 0 L2C IP-based stride prefetcher
Initialize DRRIP state
Assign rand_sets[0]: 454  LLC: 2048
rand_sets[0]: 454
Assign rand_sets[1]: 1662  LLC: 2048
rand_sets[1]: 1662
Assign rand_sets[2]: 1921  LLC: 2048
rand_sets[2]: 1921
Assign rand_sets[3]: 1131  LLC: 2048
rand_sets[3]: 1131
Assign rand_sets[4]: 331  LLC: 2048
rand_sets[4]: 331
Assign rand_sets[5]: 1531  LLC: 2048
rand_sets[5]: 1531
Assign rand_sets[6]: 482  LLC: 2048
rand_sets[6]: 482
Assign rand_sets[7]: 1275  LLC: 2048
rand_sets[7]: 1275
Assign rand_sets[8]: 1876  LLC: 2048
rand_sets[8]: 1876
Assign rand_sets[9]: 2038  LLC: 2048
rand_sets[9]: 2038
Assign rand_sets[10]: 701  LLC: 2048
rand_sets[10]: 701
Assign rand_sets[11]: 479  LLC: 2048
rand_sets[11]: 479
Assign rand_sets[12]: 892  LLC: 2048
rand_sets[12]: 892
Assign rand_sets[13]: 1820  LLC: 2048
rand_sets[13]: 1820
Assign rand_sets[14]: 1505  LLC: 2048
rand_sets[14]: 1505
Assign rand_sets[15]: 1159  LLC: 2048
rand_sets[15]: 1159
Assign rand_sets[16]: 513  LLC: 2048
rand_sets[16]: 513
Assign rand_sets[17]: 703  LLC: 2048
rand_sets[17]: 703
Assign rand_sets[18]: 561  LLC: 2048
rand_sets[18]: 561
Assign rand_sets[19]: 990  LLC: 2048
rand_sets[19]: 990
Assign rand_sets[20]: 342  LLC: 2048
rand_sets[20]: 342
Assign rand_sets[21]: 882  LLC: 2048
rand_sets[21]: 882
Assign rand_sets[22]: 15  LLC: 2048
rand_sets[22]: 15
Assign rand_sets[23]: 71  LLC: 2048
rand_sets[23]: 71
Assign rand_sets[24]: 1127  LLC: 2048
rand_sets[24]: 1127
Assign rand_sets[25]: 1382  LLC: 2048
rand_sets[25]: 1382
Assign rand_sets[26]: 647  LLC: 2048
rand_sets[26]: 647
Assign rand_sets[27]: 857  LLC: 2048
rand_sets[27]: 857
Assign rand_sets[28]: 1450  LLC: 2048
rand_sets[28]: 1450
Assign rand_sets[29]: 1160  LLC: 2048
rand_sets[29]: 1160
Assign rand_sets[30]: 1852  LLC: 2048
rand_sets[30]: 1852
Assign rand_sets[31]: 1881  LLC: 2048
rand_sets[31]: 1881
Assign rand_sets[32]: 1770  LLC: 2048
rand_sets[32]: 1770
Assign rand_sets[33]: 1622  LLC: 2048
rand_sets[33]: 1622
Assign rand_sets[34]: 275  LLC: 2048
rand_sets[34]: 275
Assign rand_sets[35]: 635  LLC: 2048
rand_sets[35]: 635
Assign rand_sets[36]: 466  LLC: 2048
rand_sets[36]: 466
Assign rand_sets[37]: 1413  LLC: 2048
rand_sets[37]: 1413
Assign rand_sets[38]: 417  LLC: 2048
rand_sets[38]: 417
Assign rand_sets[39]: 472  LLC: 2048
rand_sets[39]: 472
Assign rand_sets[40]: 1340  LLC: 2048
rand_sets[40]: 1340
Assign rand_sets[41]: 852  LLC: 2048
rand_sets[41]: 852
Assign rand_sets[42]: 1365  LLC: 2048
rand_sets[42]: 1365
Assign rand_sets[43]: 47  LLC: 2048
rand_sets[43]: 47
Assign rand_sets[44]: 823  LLC: 2048
rand_sets[44]: 823
Assign rand_sets[45]: 686  LLC: 2048
rand_sets[45]: 686
Assign rand_sets[46]: 1637  LLC: 2048
rand_sets[46]: 1637
Assign rand_sets[47]: 1115  LLC: 2048
rand_sets[47]: 1115
Assign rand_sets[48]: 986  LLC: 2048
rand_sets[48]: 986
Assign rand_sets[49]: 258  LLC: 2048
rand_sets[49]: 258
Assign rand_sets[50]: 633  LLC: 2048
rand_sets[50]: 633
Assign rand_sets[51]: 920  LLC: 2048
rand_sets[51]: 920
Assign rand_sets[52]: 204  LLC: 2048
rand_sets[52]: 204
Assign rand_sets[53]: 227  LLC: 2048
rand_sets[53]: 227
Assign rand_sets[54]: 1818  LLC: 2048
rand_sets[54]: 1818
Assign rand_sets[55]: 886  LLC: 2048
rand_sets[55]: 886
Assign rand_sets[56]: 1422  LLC: 2048
rand_sets[56]: 1422
Assign rand_sets[57]: 607  LLC: 2048
rand_sets[57]: 607
Assign rand_sets[58]: 217  LLC: 2048
rand_sets[58]: 217
Assign rand_sets[59]: 1945  LLC: 2048
rand_sets[59]: 1945
Assign rand_sets[60]: 143  LLC: 2048
rand_sets[60]: 143
Assign rand_sets[61]: 1311  LLC: 2048
rand_sets[61]: 1311
Assign rand_sets[62]: 319  LLC: 2048
rand_sets[62]: 319
Assign rand_sets[63]: 1846  LLC: 2048
rand_sets[63]: 1846
 CLEAN-RRIP-POLICY-1: 2-2-1-1-2-3-0-2- CLEAN-RRIP-POLICY-2: 2-2-1-1-2-3-0-2-
 DIRTY-RRIP-POLICY-1: 0-2-0-1-1-3-0-2- DIRTY-RRIP-POLICY-2: 0-2-0-1-1-3-0-2-
 PSEL width: 10
Heartbeat CPU 0 instructions: 10000002 cycles: 6248412 heartbeat IPC: 1.60041 cumulative IPC: 1.60041 (Simulation time: 0 hr 0 min 12 sec) 
Heartbeat CPU 0 instructions: 20000000 cycles: 12469481 heartbeat IPC: 1.60744 cumulative IPC: 1.60392 (Simulation time: 0 hr 0 min 25 sec) 
Heartbeat CPU 0 instructions: 30000000 cycles: 18680945 heartbeat IPC: 1.60993 cumulative IPC: 1.60591 (Simulation time: 0 hr 0 min 38 sec) 
Heartbeat CPU 0 instructions: 40000000 cycles: 24892254 heartbeat IPC: 1.60997 cumulative IPC: 1.60693 (Simulation time: 0 hr 0 min 50 sec) 
Heartbeat CPU 0 instructions: 50000003 cycles: 31105422 heartbeat IPC: 1.60949 cumulative IPC: 1.60744 (Simulation time: 0 hr 1 min 3 sec) 
Heartbeat CPU 0 instructions: 60000000 cycles: 37302195 heartbeat IPC: 1.61374 cumulative IPC: 1.60848 (Simulation time: 0 hr 1 min 15 sec) 
Heartbeat CPU 0 instructions: 70000003 cycles: 43521465 heartbeat IPC: 1.60791 cumulative IPC: 1.6084 (Simulation time: 0 hr 1 min 28 sec) 
Heartbeat CPU 0 instructions: 80000000 cycles: 49752588 heartbeat IPC: 1.60485 cumulative IPC: 1.60796 (Simulation time: 0 hr 1 min 41 sec) 
Heartbeat CPU 0 instructions: 90000000 cycles: 55982438 heartbeat IPC: 1.60518 cumulative IPC: 1.60765 (Simulation time: 0 hr 1 min 54 sec) 
Heartbeat CPU 0 instructions: 100000000 cycles: 62202019 heartbeat IPC: 1.60783 cumulative IPC: 1.60766 (Simulation time: 0 hr 2 min 6 sec) 

Warmup complete CPU 0 instructions: 100000001 cycles: 62202020 (Simulation time: 0 hr 2 min 6 sec) 

Heartbeat CPU 0 instructions: 110000000 cycles: 86542213 heartbeat IPC: 0.410843 cumulative IPC: 0.410843 (Simulation time: 0 hr 2 min 30 sec) 
Heartbeat CPU 0 instructions: 120000000 cycles: 110935813 heartbeat IPC: 0.409944 cumulative IPC: 0.410393 (Simulation time: 0 hr 2 min 54 sec) 
Heartbeat CPU 0 instructions: 130000000 cycles: 135427603 heartbeat IPC: 0.4083 cumulative IPC: 0.409693 (Simulation time: 0 hr 3 min 18 sec) 
Heartbeat CPU 0 instructions: 140000000 cycles: 159895065 heartbeat IPC: 0.408706 cumulative IPC: 0.409446 (Simulation time: 0 hr 3 min 42 sec) 
Heartbeat CPU 0 instructions: 150000003 cycles: 184258274 heartbeat IPC: 0.410455 cumulative IPC: 0.409647 (Simulation time: 0 hr 4 min 6 sec) 
Heartbeat CPU 0 instructions: 160000000 cycles: 208933509 heartbeat IPC: 0.405264 cumulative IPC: 0.40891 (Simulation time: 0 hr 4 min 30 sec) 
Heartbeat CPU 0 instructions: 170000001 cycles: 233463036 heartbeat IPC: 0.407672 cumulative IPC: 0.408733 (Simulation time: 0 hr 4 min 54 sec) 
Heartbeat CPU 0 instructions: 180000000 cycles: 257998584 heartbeat IPC: 0.407572 cumulative IPC: 0.408587 (Simulation time: 0 hr 5 min 18 sec) 
Heartbeat CPU 0 instructions: 190000003 cycles: 282486573 heartbeat IPC: 0.408364 cumulative IPC: 0.408562 (Simulation time: 0 hr 5 min 42 sec) 
Heartbeat CPU 0 instructions: 200000000 cycles: 307041690 heartbeat IPC: 0.407247 cumulative IPC: 0.408431 (Simulation time: 0 hr 6 min 6 sec) 
Heartbeat CPU 0 instructions: 210000003 cycles: 331623035 heartbeat IPC: 0.406813 cumulative IPC: 0.408283 (Simulation time: 0 hr 6 min 30 sec) 
Heartbeat CPU 0 instructions: 220000000 cycles: 356451830 heartbeat IPC: 0.402758 cumulative IPC: 0.407817 (Simulation time: 0 hr 6 min 54 sec) 
Heartbeat CPU 0 instructions: 230000002 cycles: 380869850 heartbeat IPC: 0.409534 cumulative IPC: 0.407948 (Simulation time: 0 hr 7 min 19 sec) 
Heartbeat CPU 0 instructions: 240000000 cycles: 405655338 heartbeat IPC: 0.403462 cumulative IPC: 0.407625 (Simulation time: 0 hr 7 min 43 sec) 
Heartbeat CPU 0 instructions: 250000000 cycles: 430242415 heartbeat IPC: 0.406718 cumulative IPC: 0.407564 (Simulation time: 0 hr 8 min 7 sec) 
Heartbeat CPU 0 instructions: 260000000 cycles: 454845494 heartbeat IPC: 0.406453 cumulative IPC: 0.407494 (Simulation time: 0 hr 8 min 31 sec) 
Heartbeat CPU 0 instructions: 270000001 cycles: 479489569 heartbeat IPC: 0.405777 cumulative IPC: 0.407393 (Simulation time: 0 hr 8 min 55 sec) 
Heartbeat CPU 0 instructions: 280000000 cycles: 504079502 heartbeat IPC: 0.40667 cumulative IPC: 0.407353 (Simulation time: 0 hr 9 min 20 sec) 
Heartbeat CPU 0 instructions: 290000001 cycles: 528732681 heartbeat IPC: 0.405627 cumulative IPC: 0.407262 (Simulation time: 0 hr 9 min 44 sec) 
Heartbeat CPU 0 instructions: 300000000 cycles: 553579285 heartbeat IPC: 0.402469 cumulative IPC: 0.407019 (Simulation time: 0 hr 10 min 8 sec) 
Heartbeat CPU 0 instructions: 310000003 cycles: 578058759 heartbeat IPC: 0.408506 cumulative IPC: 0.40709 (Simulation time: 0 hr 10 min 32 sec) 
Heartbeat CPU 0 instructions: 320000000 cycles: 602914857 heartbeat IPC: 0.402316 cumulative IPC: 0.40687 (Simulation time: 0 hr 10 min 57 sec) 
Heartbeat CPU 0 instructions: 330000003 cycles: 627485423 heartbeat IPC: 0.406991 cumulative IPC: 0.406876 (Simulation time: 0 hr 11 min 21 sec) 
Heartbeat CPU 0 instructions: 340000000 cycles: 652355782 heartbeat IPC: 0.402085 cumulative IPC: 0.406674 (Simulation time: 0 hr 11 min 45 sec) 
Heartbeat CPU 0 instructions: 350000002 cycles: 677229416 heartbeat IPC: 0.402032 cumulative IPC: 0.406486 (Simulation time: 0 hr 12 min 10 sec) 
Heartbeat CPU 0 instructions: 360000000 cycles: 702275010 heartbeat IPC: 0.399272 cumulative IPC: 0.406204 (Simulation time: 0 hr 12 min 34 sec) 
Heartbeat CPU 0 instructions: 370000000 cycles: 727064530 heartbeat IPC: 0.403396 cumulative IPC: 0.406099 (Simulation time: 0 hr 12 min 58 sec) 
Heartbeat CPU 0 instructions: 380000000 cycles: 751675477 heartbeat IPC: 0.406323 cumulative IPC: 0.406107 (Simulation time: 0 hr 13 min 22 sec) 
Heartbeat CPU 0 instructions: 390000002 cycles: 776338162 heartbeat IPC: 0.405471 cumulative IPC: 0.406085 (Simulation time: 0 hr 13 min 46 sec) 
Heartbeat CPU 0 instructions: 400000000 cycles: 801164179 heartbeat IPC: 0.402803 cumulative IPC: 0.405975 (Simulation time: 0 hr 14 min 10 sec) 
Heartbeat CPU 0 instructions: 410000002 cycles: 825872286 heartbeat IPC: 0.404726 cumulative IPC: 0.405934 (Simulation time: 0 hr 14 min 34 sec) 
Heartbeat CPU 0 instructions: 420000000 cycles: 850409049 heartbeat IPC: 0.407552 cumulative IPC: 0.405985 (Simulation time: 0 hr 14 min 59 sec) 
Heartbeat CPU 0 instructions: 430000000 cycles: 875202716 heartbeat IPC: 0.403329 cumulative IPC: 0.405904 (Simulation time: 0 hr 15 min 23 sec) 
Heartbeat CPU 0 instructions: 440000000 cycles: 899674809 heartbeat IPC: 0.408629 cumulative IPC: 0.405983 (Simulation time: 0 hr 15 min 47 sec) 
Heartbeat CPU 0 instructions: 450000000 cycles: 924629912 heartbeat IPC: 0.40072 cumulative IPC: 0.405831 (Simulation time: 0 hr 16 min 12 sec) 
Heartbeat CPU 0 instructions: 460000000 cycles: 949472676 heartbeat IPC: 0.402532 cumulative IPC: 0.405739 (Simulation time: 0 hr 16 min 38 sec) 
Heartbeat CPU 0 instructions: 470000001 cycles: 974122153 heartbeat IPC: 0.405688 cumulative IPC: 0.405737 (Simulation time: 0 hr 17 min 3 sec) 
Heartbeat CPU 0 instructions: 480000000 cycles: 998928140 heartbeat IPC: 0.403128 cumulative IPC: 0.405668 (Simulation time: 0 hr 17 min 28 sec) 
Heartbeat CPU 0 instructions: 490000000 cycles: 1023838208 heartbeat IPC: 0.401444 cumulative IPC: 0.405559 (Simulation time: 0 hr 17 min 53 sec) 
Heartbeat CPU 0 instructions: 500000000 cycles: 1049056330 heartbeat IPC: 0.39654 cumulative IPC: 0.405328 (Simulation time: 0 hr 18 min 18 sec) 
Heartbeat CPU 0 instructions: 510000003 cycles: 1074179477 heartbeat IPC: 0.398039 cumulative IPC: 0.405147 (Simulation time: 0 hr 18 min 43 sec) 
Heartbeat CPU 0 instructions: 520000000 cycles: 1099446815 heartbeat IPC: 0.395768 cumulative IPC: 0.404919 (Simulation time: 0 hr 19 min 8 sec) 
Heartbeat CPU 0 instructions: 530000001 cycles: 1124730301 heartbeat IPC: 0.395515 cumulative IPC: 0.404695 (Simulation time: 0 hr 19 min 34 sec) 
Heartbeat CPU 0 instructions: 540000000 cycles: 1149946367 heartbeat IPC: 0.396573 cumulative IPC: 0.404507 (Simulation time: 0 hr 19 min 59 sec) 
Heartbeat CPU 0 instructions: 550000000 cycles: 1175119904 heartbeat IPC: 0.397243 cumulative IPC: 0.404343 (Simulation time: 0 hr 20 min 24 sec) 
Heartbeat CPU 0 instructions: 560000000 cycles: 1200657693 heartbeat IPC: 0.391577 cumulative IPC: 0.404056 (Simulation time: 0 hr 20 min 49 sec) 
Heartbeat CPU 0 instructions: 570000001 cycles: 1226133039 heartbeat IPC: 0.392536 cumulative IPC: 0.403804 (Simulation time: 0 hr 21 min 14 sec) 
Heartbeat CPU 0 instructions: 580000000 cycles: 1251599963 heartbeat IPC: 0.392666 cumulative IPC: 0.403566 (Simulation time: 0 hr 21 min 40 sec) 
Heartbeat CPU 0 instructions: 590000000 cycles: 1277214203 heartbeat IPC: 0.390408 cumulative IPC: 0.403288 (Simulation time: 0 hr 22 min 5 sec) 
Heartbeat CPU 0 instructions: 600000000 cycles: 1302929937 heartbeat IPC: 0.388867 cumulative IPC: 0.402989 (Simulation time: 0 hr 22 min 30 sec) 
Finished CPU 0 instructions: 500000003 cycles: 1240727930 cumulative IPC: 0.402989 (Simulation time: 0 hr 22 min 30 sec) 

CPU 0 Branch Prediction Accuracy: 91.1342% MPKI: 18.7968
Number of Branches: 106006945 Number of Mispredictions: 9398408
Number of LOAD Instructions: 207894007
Number of LOAD Instructions (ROI): 207894007
Number of STORE Instructions: 54285997
Number of STORE Instructions (ROI): 54285997
Total Destination Memory Operands: 57463404
Total Destination Memory Operands (ROI): 57463404
Total Source Memory Operands: 207894007
Total Source Memory Operands (ROI): 207894007
Number of DEPENDED LOADS: 17989104
Number of DEPENDED LOADS (ROI): 17989104
Number of SQ_ADDED: 57463404
Number of SQ_ADDED (ROI): 57463404
Number of LQ_ADDED: 209204330
Number of LQ_ADDED (ROI): 209204330
Number of Instructions read from trace: 600000039

ChampSim completed all CPUs

Region of Interest Statistics

CPU 0 cumulative IPC: 0.402989 instructions: 500000003 cycles: 1240727930
ITLB TOTAL     ACCESS:   96419423  HIT:   96419423  MISS:          0
ITLB LOAD      ACCESS:   96419423  HIT:   96419423  MISS:          0
ITLB RFO       ACCESS:          0  HIT:          0  MISS:          0
ITLB PREFETCH  ACCESS:          0  HIT:          0  MISS:          0
ITLB WRITEBACK ACCESS:          0  HIT:          0  MISS:          0
ITLB PREFETCH  REQUESTED:          0  ISSUED:          0  USEFUL:          0  USELESS:          0
ITLB TOTAL MSHR MERGED:          0
ITLB LOAD MSHR MERGED:          0
ITLB RFO MSHR MERGED:          0
ITLB PREFETCH MSHR MERGED:          0
ITLB WRITEBACK MSHR MERGED:          0
ITLB TOTAL ACCESSES:   96419423 HITS:   96419423 MISSES:          0
ITLB LOAD ACCESSES:   96419423 HITS:   96419423 MISSES:          0
ITLB RFO ACCESSES:          0 HITS:          0 MISSES:          0
ITLB PREFETCH ACCESSES:          0 HITS:          0 MISSES:          0
ITLB WRITEBACK ACCESSES:          0 HITS:          0 MISSES:          0
ITLB RQ ACCESS:  499999980
ITLB RQ TO_CACHE:   96419423
ITLB RQ MERGED:  403580557
ITLB RQ FORWARD:          0
ITLB WQ ACCESS:          0
ITLB WQ TO_CACHE:          0
ITLB WQ MERGED:          0
ITLB WQ FORWARD:          0
DTLB TOTAL     ACCESS:  155249200  HIT:  150336969  MISS:    4912231
DTLB LOAD      ACCESS:  117804931  HIT:  113414386  MISS:    4390545
DTLB RFO       ACCESS:   37444269  HIT:   36922583  MISS:     521686
DTLB PREFETCH  ACCESS:          0  HIT:          0  MISS:          0
DTLB WRITEBACK ACCESS:          0  HIT:          0  MISS:          0
DTLB PREFETCH  REQUESTED:          0  ISSUED:          0  USEFUL:          0  USELESS:          0
DTLB TOTAL MSHR MERGED:     452595
DTLB LOAD MSHR MERGED:     160923
DTLB RFO MSHR MERGED:     291672
DTLB PREFETCH MSHR MERGED:          0
DTLB WRITEBACK MSHR MERGED:          0
DTLB TOTAL ACCESSES:  155701795 HITS:  150336969 MISSES:    5364826
DTLB LOAD ACCESSES:  117965854 HITS:  113414386 MISSES:    4551468
DTLB RFO ACCESSES:   37735941 HITS:   36922583 MISSES:     813358
DTLB PREFETCH ACCESSES:          0 HITS:          0 MISSES:          0
DTLB WRITEBACK ACCESSES:          0 HITS:          0 MISSES:          0
DTLB RQ ACCESS:  206087792
DTLB RQ TO_CACHE:  155701795
DTLB RQ MERGED:   50385997
DTLB RQ FORWARD:          0
DTLB WQ ACCESS:          0
DTLB WQ TO_CACHE:          0
DTLB WQ MERGED:          0
DTLB WQ FORWARD:          0
L1D TOTAL     ACCESS:  277480206  HIT:  242655057  MISS:   34825149
L1D LOAD      ACCESS:  125541299  HIT:  107951690  MISS:   17589609
L1D RFO       ACCESS:   41159188  HIT:   38847338  MISS:    2311850
L1D PREFETCH  ACCESS:  110779719  HIT:   95856029  MISS:   14923690
L1D WRITEBACK ACCESS:          0  HIT:          0  MISS:          0
L1D PREFETCH  REQUESTED:  126368537  ISSUED:  124849243  USEFUL:    2755426  USELESS:   12168289
L1D TOTAL MSHR MERGED:    8403010
L1D LOAD MSHR MERGED:    1503701
L1D RFO MSHR MERGED:    3764927
L1D PREFETCH MSHR MERGED:    3134382
L1D WRITEBACK MSHR MERGED:          0
L1D TOTAL ACCESSES:  285970663 HITS:  242742503 MISSES:   43228160
L1D LOAD ACCESSES:  126368537 HITS:  107951690 MISSES:   18416847
L1D RFO ACCESSES:   44923606 HITS:   38847338 MISSES:    6076268
L1D PREFETCH ACCESSES:  114678520 HITS:   95943475 MISSES:   18735045
L1D WRITEBACK ACCESSES:          0 HITS:          0 MISSES:          0
L1D RQ ACCESS:  158540911
L1D RQ TO_CACHE:  126368537
L1D RQ MERGED:   32172374
L1D RQ FORWARD:          0
L1D WQ ACCESS:   47546882
L1D WQ TO_CACHE:   44923606
L1D WQ MERGED:    2623276
L1D WQ FORWARD:      87446
L1I TOTAL     ACCESS:  132829484  HIT:  132829484  MISS:          0
L1I LOAD      ACCESS:  132829484  HIT:  132829484  MISS:          0
L1I RFO       ACCESS:          0  HIT:          0  MISS:          0
L1I PREFETCH  ACCESS:          0  HIT:          0  MISS:          0
L1I WRITEBACK ACCESS:          0  HIT:          0  MISS:          0
L1I PREFETCH  REQUESTED:          0  ISSUED:          0  USEFUL:          0  USELESS:          0
L1I TOTAL MSHR MERGED:          0
L1I LOAD MSHR MERGED:          0
L1I RFO MSHR MERGED:          0
L1I PREFETCH MSHR MERGED:          0
L1I WRITEBACK MSHR MERGED:          0
L1I TOTAL ACCESSES:  132829484 HITS:  132829484 MISSES:          0
L1I LOAD ACCESSES:  132829484 HITS:  132829484 MISSES:          0
L1I RFO ACCESSES:          0 HITS:          0 MISSES:          0
L1I PREFETCH ACCESSES:          0 HITS:          0 MISSES:          0
L1I WRITEBACK ACCESSES:          0 HITS:          0 MISSES:          0
L1I RQ ACCESS:  499999980
L1I RQ TO_CACHE:  132829484
L1I RQ MERGED:  367170496
L1I RQ FORWARD:          0
L1I WQ ACCESS:          0
L1I WQ TO_CACHE:          0
L1I WQ MERGED:          0
L1I WQ FORWARD:          0
L2C TOTAL     ACCESS:   39596966  HIT:   20627443  MISS:   18969523
L2C LOAD      ACCESS:   16913084  HIT:    8570936  MISS:    8342148
L2C RFO       ACCESS:    2311290  HIT:     630778  MISS:    1680512
L2C PREFETCH  ACCESS:   17150149  HIT:    8207031  MISS:    8943118
L2C WRITEBACK ACCESS:    3222443  HIT:    3218698  MISS:       3745
L2C PREFETCH  REQUESTED:    2781479  ISSUED:    2781479  USEFUL:    1309009  USELESS:    7633829
L2C TOTAL MSHR MERGED:     480724
L2C LOAD MSHR MERGED:      62331
L2C RFO MSHR MERGED:          0
L2C PREFETCH MSHR MERGED:     418393
L2C WRITEBACK MSHR MERGED:          0
L2C TOTAL ACCESSES:   40129023 HITS:   20627604 MISSES:   19501419
L2C LOAD ACCESSES:   16913146 HITS:    8570998 MISSES:    8342148
L2C RFO ACCESSES:    2311341 HITS:     630829 MISSES:    1680512
L2C PREFETCH ACCESSES:   17682093 HITS:    8207079 MISSES:    9475014
L2C WRITEBACK ACCESSES:    3222443 HITS:    3218698 MISSES:       3745
L2C RQ ACCESS:   19224487
L2C RQ TO_CACHE:   19224374
L2C RQ MERGED:          0
L2C RQ FORWARD:          0
L2C WQ ACCESS:    3222443
L2C WQ TO_CACHE:    3222443
L2C WQ MERGED:          0
L2C WQ FORWARD:        161
LLC TOTAL     ACCESS:   21170180  HIT:   15796598  MISS:    5373582
LLC LOAD      ACCESS:    8279792  HIT:    5887050  MISS:    2392742
LLC RFO       ACCESS:    1680448  HIT:    1678133  MISS:       2315
LLC PREFETCH  ACCESS:    9034248  HIT:    6056833  MISS:    2977415
LLC WRITEBACK ACCESS:    2175692  HIT:    2174582  MISS:       1110
LLC PREFETCH  REQUESTED:          0  ISSUED:          0  USEFUL:     565065  USELESS:    2415308
LLC TOTAL MSHR MERGED:      19218
LLC LOAD MSHR MERGED:       5135
LLC RFO MSHR MERGED:          0
LLC PREFETCH MSHR MERGED:      14083
LLC WRITEBACK MSHR MERGED:          0
LLC TOTAL ACCESSES:   21189516 HITS:   15796715 MISSES:    5392801
LLC LOAD ACCESSES:    8279817 HITS:    5887075 MISSES:    2392742
LLC RFO ACCESSES:    1680512 HITS:    1678197 MISSES:       2315
LLC PREFETCH ACCESSES:    9053495 HITS:    6056861 MISSES:    2996634
LLC WRITEBACK ACCESSES:    2175692 HITS:    2174582 MISSES:       1110
LLC 0 RQ ACCESS:    9960329
LLC 0 RQ TO_CACHE:    9960240
LLC 0 RQ MERGED:          0
LLC 0 RQ FORWARD:          0
LLC WQ ACCESS:    2175693
LLC WQ TO_CACHE:    2175693
LLC WQ MERGED:          0
LLC WQ FORWARD:        117
Major fault: 0 Minor fault: 56391
CPU 0 L1D next line prefetcher final stats
CPU 0 L2C PC-based stride prefetcher final stats
All Misses: 6185165
All Hits: 18361867
SD Algo Stats - Switches: 0 SRR-Repls: 2442395 BRR-Repls: 0

DRAM Statistics
 CHANNEL 0
 RQ ROW_BUFFER_HIT:    4027721  ROW_BUFFER_MISS:    1341676
 DBUS_CONGESTED:    2764728
 WQ ROW_BUFFER_HIT:        519  ROW_BUFFER_MISS:      12837  FULL:          0

 AVG_CONGESTED_CYCLE: 13
LOADS RETIRED: 173631671
INSTR RETIRED: 500000000
