
*** ChampSim Multicore Out-of-Order Simulator ***

Warmup Instructions: 100000000
Simulation Instructions: 500000000
Number of CPUs: 1
LLC sets: 2048
LLC ways: 16
Clean RRIP Policies: 2211230222112302 Dirty RRIP Policies: 201130202011302 PSEL Width: 10 Track Set: 4294967295 PSEL Mask: 1 Demote Mask: 1040100010401000DS Algo: 0Window size: 0
Off-chip DRAM Size: 4096 MB Channels: 1 Width: 64-bit Data Rate: 1600 MT/s

CPU 0 runs /mnt/beegfs/iconst01/spec2017/Omnetpp.trace.gz
NOT SORTED
TRACE STRING: /mnt/beegfs/iconst01/spec2017/Omnetpp.trace.gz
SORTED
TRACE STRING: /mnt/beegfs/iconst01/spec2017/Omnetpp.trace.gz
INITIAL
TRACE STRING: /mnt/beegfs/iconst01/spec2017/Omnetpp.trace.gz

champsim_seed used: 739

CPU 0 L1D next line prefetcher
CPU 0 L2C IP-based stride prefetcher
Initialize DRRIP state
Assign rand_sets[0]: 454  LLC: 2048
rand_sets[0]: 454
Assign rand_sets[1]: 1662  LLC: 2048
rand_sets[1]: 1662
Assign rand_sets[2]: 1921  LLC: 2048
rand_sets[2]: 1921
Assign rand_sets[3]: 1131  LLC: 2048
rand_sets[3]: 1131
Assign rand_sets[4]: 331  LLC: 2048
rand_sets[4]: 331
Assign rand_sets[5]: 1531  LLC: 2048
rand_sets[5]: 1531
Assign rand_sets[6]: 482  LLC: 2048
rand_sets[6]: 482
Assign rand_sets[7]: 1275  LLC: 2048
rand_sets[7]: 1275
Assign rand_sets[8]: 1876  LLC: 2048
rand_sets[8]: 1876
Assign rand_sets[9]: 2038  LLC: 2048
rand_sets[9]: 2038
Assign rand_sets[10]: 701  LLC: 2048
rand_sets[10]: 701
Assign rand_sets[11]: 479  LLC: 2048
rand_sets[11]: 479
Assign rand_sets[12]: 892  LLC: 2048
rand_sets[12]: 892
Assign rand_sets[13]: 1820  LLC: 2048
rand_sets[13]: 1820
Assign rand_sets[14]: 1505  LLC: 2048
rand_sets[14]: 1505
Assign rand_sets[15]: 1159  LLC: 2048
rand_sets[15]: 1159
Assign rand_sets[16]: 513  LLC: 2048
rand_sets[16]: 513
Assign rand_sets[17]: 703  LLC: 2048
rand_sets[17]: 703
Assign rand_sets[18]: 561  LLC: 2048
rand_sets[18]: 561
Assign rand_sets[19]: 990  LLC: 2048
rand_sets[19]: 990
Assign rand_sets[20]: 342  LLC: 2048
rand_sets[20]: 342
Assign rand_sets[21]: 882  LLC: 2048
rand_sets[21]: 882
Assign rand_sets[22]: 15  LLC: 2048
rand_sets[22]: 15
Assign rand_sets[23]: 71  LLC: 2048
rand_sets[23]: 71
Assign rand_sets[24]: 1127  LLC: 2048
rand_sets[24]: 1127
Assign rand_sets[25]: 1382  LLC: 2048
rand_sets[25]: 1382
Assign rand_sets[26]: 647  LLC: 2048
rand_sets[26]: 647
Assign rand_sets[27]: 857  LLC: 2048
rand_sets[27]: 857
Assign rand_sets[28]: 1450  LLC: 2048
rand_sets[28]: 1450
Assign rand_sets[29]: 1160  LLC: 2048
rand_sets[29]: 1160
Assign rand_sets[30]: 1852  LLC: 2048
rand_sets[30]: 1852
Assign rand_sets[31]: 1881  LLC: 2048
rand_sets[31]: 1881
Assign rand_sets[32]: 1770  LLC: 2048
rand_sets[32]: 1770
Assign rand_sets[33]: 1622  LLC: 2048
rand_sets[33]: 1622
Assign rand_sets[34]: 275  LLC: 2048
rand_sets[34]: 275
Assign rand_sets[35]: 635  LLC: 2048
rand_sets[35]: 635
Assign rand_sets[36]: 466  LLC: 2048
rand_sets[36]: 466
Assign rand_sets[37]: 1413  LLC: 2048
rand_sets[37]: 1413
Assign rand_sets[38]: 417  LLC: 2048
rand_sets[38]: 417
Assign rand_sets[39]: 472  LLC: 2048
rand_sets[39]: 472
Assign rand_sets[40]: 1340  LLC: 2048
rand_sets[40]: 1340
Assign rand_sets[41]: 852  LLC: 2048
rand_sets[41]: 852
Assign rand_sets[42]: 1365  LLC: 2048
rand_sets[42]: 1365
Assign rand_sets[43]: 47  LLC: 2048
rand_sets[43]: 47
Assign rand_sets[44]: 823  LLC: 2048
rand_sets[44]: 823
Assign rand_sets[45]: 686  LLC: 2048
rand_sets[45]: 686
Assign rand_sets[46]: 1637  LLC: 2048
rand_sets[46]: 1637
Assign rand_sets[47]: 1115  LLC: 2048
rand_sets[47]: 1115
Assign rand_sets[48]: 986  LLC: 2048
rand_sets[48]: 986
Assign rand_sets[49]: 258  LLC: 2048
rand_sets[49]: 258
Assign rand_sets[50]: 633  LLC: 2048
rand_sets[50]: 633
Assign rand_sets[51]: 920  LLC: 2048
rand_sets[51]: 920
Assign rand_sets[52]: 204  LLC: 2048
rand_sets[52]: 204
Assign rand_sets[53]: 227  LLC: 2048
rand_sets[53]: 227
Assign rand_sets[54]: 1818  LLC: 2048
rand_sets[54]: 1818
Assign rand_sets[55]: 886  LLC: 2048
rand_sets[55]: 886
Assign rand_sets[56]: 1422  LLC: 2048
rand_sets[56]: 1422
Assign rand_sets[57]: 607  LLC: 2048
rand_sets[57]: 607
Assign rand_sets[58]: 217  LLC: 2048
rand_sets[58]: 217
Assign rand_sets[59]: 1945  LLC: 2048
rand_sets[59]: 1945
Assign rand_sets[60]: 143  LLC: 2048
rand_sets[60]: 143
Assign rand_sets[61]: 1311  LLC: 2048
rand_sets[61]: 1311
Assign rand_sets[62]: 319  LLC: 2048
rand_sets[62]: 319
Assign rand_sets[63]: 1846  LLC: 2048
rand_sets[63]: 1846
 CLEAN-RRIP-POLICY-1: 2-2-1-1-2-3-0-2- CLEAN-RRIP-POLICY-2: 2-2-1-1-2-3-0-2-
 DIRTY-RRIP-POLICY-1: 0-2-0-1-1-3-0-2- DIRTY-RRIP-POLICY-2: 0-2-0-1-1-3-0-2-
 PSEL width: 10
Heartbeat CPU 0 instructions: 10000000 cycles: 7320862 heartbeat IPC: 1.36596 cumulative IPC: 1.36596 (Simulation time: 0 hr 0 min 20 sec) 
Heartbeat CPU 0 instructions: 20000000 cycles: 14625929 heartbeat IPC: 1.36891 cumulative IPC: 1.36743 (Simulation time: 0 hr 0 min 40 sec) 
Heartbeat CPU 0 instructions: 30000003 cycles: 21928587 heartbeat IPC: 1.36936 cumulative IPC: 1.36808 (Simulation time: 0 hr 0 min 59 sec) 
Heartbeat CPU 0 instructions: 40000000 cycles: 29218213 heartbeat IPC: 1.37181 cumulative IPC: 1.36901 (Simulation time: 0 hr 1 min 19 sec) 
Heartbeat CPU 0 instructions: 50000000 cycles: 36496231 heartbeat IPC: 1.374 cumulative IPC: 1.37 (Simulation time: 0 hr 1 min 38 sec) 
Heartbeat CPU 0 instructions: 60000000 cycles: 43777739 heartbeat IPC: 1.37334 cumulative IPC: 1.37056 (Simulation time: 0 hr 1 min 58 sec) 
Heartbeat CPU 0 instructions: 70000001 cycles: 51064600 heartbeat IPC: 1.37233 cumulative IPC: 1.37081 (Simulation time: 0 hr 2 min 18 sec) 
Heartbeat CPU 0 instructions: 80000000 cycles: 58341209 heartbeat IPC: 1.37427 cumulative IPC: 1.37124 (Simulation time: 0 hr 2 min 38 sec) 
Heartbeat CPU 0 instructions: 90000000 cycles: 65649031 heartbeat IPC: 1.3684 cumulative IPC: 1.37093 (Simulation time: 0 hr 2 min 58 sec) 
Heartbeat CPU 0 instructions: 100000000 cycles: 72942571 heartbeat IPC: 1.37108 cumulative IPC: 1.37094 (Simulation time: 0 hr 3 min 17 sec) 

Warmup complete CPU 0 instructions: 100000002 cycles: 72942572 (Simulation time: 0 hr 3 min 17 sec) 

Heartbeat CPU 0 instructions: 110000002 cycles: 114084530 heartbeat IPC: 0.243061 cumulative IPC: 0.243061 (Simulation time: 0 hr 3 min 57 sec) 
Heartbeat CPU 0 instructions: 120000000 cycles: 154944359 heartbeat IPC: 0.244739 cumulative IPC: 0.243897 (Simulation time: 0 hr 4 min 37 sec) 
Heartbeat CPU 0 instructions: 130000002 cycles: 196009045 heartbeat IPC: 0.243518 cumulative IPC: 0.243771 (Simulation time: 0 hr 5 min 17 sec) 
Heartbeat CPU 0 instructions: 140000000 cycles: 237271847 heartbeat IPC: 0.242349 cumulative IPC: 0.243414 (Simulation time: 0 hr 5 min 58 sec) 
Heartbeat CPU 0 instructions: 150000002 cycles: 278081648 heartbeat IPC: 0.245039 cumulative IPC: 0.243737 (Simulation time: 0 hr 6 min 38 sec) 
Heartbeat CPU 0 instructions: 160000000 cycles: 318880374 heartbeat IPC: 0.245106 cumulative IPC: 0.243964 (Simulation time: 0 hr 7 min 18 sec) 
Heartbeat CPU 0 instructions: 170000001 cycles: 358872660 heartbeat IPC: 0.250048 cumulative IPC: 0.244815 (Simulation time: 0 hr 7 min 58 sec) 
Heartbeat CPU 0 instructions: 180000000 cycles: 399547023 heartbeat IPC: 0.245855 cumulative IPC: 0.244945 (Simulation time: 0 hr 8 min 38 sec) 
Heartbeat CPU 0 instructions: 190000002 cycles: 440235768 heartbeat IPC: 0.245768 cumulative IPC: 0.245036 (Simulation time: 0 hr 9 min 17 sec) 
Heartbeat CPU 0 instructions: 200000000 cycles: 482282907 heartbeat IPC: 0.237828 cumulative IPC: 0.244295 (Simulation time: 0 hr 9 min 58 sec) 
Heartbeat CPU 0 instructions: 210000003 cycles: 523049193 heartbeat IPC: 0.245301 cumulative IPC: 0.244387 (Simulation time: 0 hr 10 min 38 sec) 
Heartbeat CPU 0 instructions: 220000000 cycles: 564126608 heartbeat IPC: 0.243443 cumulative IPC: 0.244308 (Simulation time: 0 hr 11 min 18 sec) 
Heartbeat CPU 0 instructions: 230000000 cycles: 605116196 heartbeat IPC: 0.243964 cumulative IPC: 0.244281 (Simulation time: 0 hr 11 min 58 sec) 
Heartbeat CPU 0 instructions: 240000000 cycles: 645755597 heartbeat IPC: 0.246067 cumulative IPC: 0.244408 (Simulation time: 0 hr 12 min 38 sec) 
Heartbeat CPU 0 instructions: 250000000 cycles: 686428875 heartbeat IPC: 0.245862 cumulative IPC: 0.244504 (Simulation time: 0 hr 13 min 17 sec) 
Heartbeat CPU 0 instructions: 260000000 cycles: 727326075 heartbeat IPC: 0.244516 cumulative IPC: 0.244505 (Simulation time: 0 hr 13 min 57 sec) 
Heartbeat CPU 0 instructions: 270000000 cycles: 768276393 heartbeat IPC: 0.244198 cumulative IPC: 0.244487 (Simulation time: 0 hr 14 min 37 sec) 
Heartbeat CPU 0 instructions: 280000000 cycles: 809572009 heartbeat IPC: 0.242156 cumulative IPC: 0.244356 (Simulation time: 0 hr 15 min 17 sec) 
Heartbeat CPU 0 instructions: 290000001 cycles: 850034988 heartbeat IPC: 0.24714 cumulative IPC: 0.244501 (Simulation time: 0 hr 15 min 56 sec) 
Heartbeat CPU 0 instructions: 300000000 cycles: 891128102 heartbeat IPC: 0.24335 cumulative IPC: 0.244443 (Simulation time: 0 hr 16 min 36 sec) 
Heartbeat CPU 0 instructions: 310000000 cycles: 932319729 heartbeat IPC: 0.242768 cumulative IPC: 0.244363 (Simulation time: 0 hr 17 min 15 sec) 
Heartbeat CPU 0 instructions: 320000000 cycles: 973272576 heartbeat IPC: 0.244183 cumulative IPC: 0.244355 (Simulation time: 0 hr 17 min 55 sec) 
Heartbeat CPU 0 instructions: 330000000 cycles: 1014179213 heartbeat IPC: 0.244459 cumulative IPC: 0.244359 (Simulation time: 0 hr 18 min 34 sec) 
Heartbeat CPU 0 instructions: 340000000 cycles: 1055738296 heartbeat IPC: 0.240621 cumulative IPC: 0.244201 (Simulation time: 0 hr 19 min 14 sec) 
Heartbeat CPU 0 instructions: 350000001 cycles: 1096766901 heartbeat IPC: 0.243732 cumulative IPC: 0.244183 (Simulation time: 0 hr 19 min 54 sec) 
Heartbeat CPU 0 instructions: 360000000 cycles: 1137958469 heartbeat IPC: 0.242768 cumulative IPC: 0.244128 (Simulation time: 0 hr 20 min 33 sec) 
Heartbeat CPU 0 instructions: 370000000 cycles: 1178176064 heartbeat IPC: 0.248647 cumulative IPC: 0.244292 (Simulation time: 0 hr 21 min 12 sec) 
Heartbeat CPU 0 instructions: 380000000 cycles: 1219426140 heartbeat IPC: 0.242424 cumulative IPC: 0.244225 (Simulation time: 0 hr 21 min 52 sec) 
Heartbeat CPU 0 instructions: 390000001 cycles: 1260160151 heartbeat IPC: 0.245495 cumulative IPC: 0.244269 (Simulation time: 0 hr 22 min 31 sec) 
Heartbeat CPU 0 instructions: 400000000 cycles: 1300977724 heartbeat IPC: 0.244992 cumulative IPC: 0.244293 (Simulation time: 0 hr 23 min 10 sec) 
Heartbeat CPU 0 instructions: 410000000 cycles: 1341559447 heartbeat IPC: 0.246416 cumulative IPC: 0.244361 (Simulation time: 0 hr 23 min 49 sec) 
Heartbeat CPU 0 instructions: 420000000 cycles: 1382208608 heartbeat IPC: 0.246008 cumulative IPC: 0.244412 (Simulation time: 0 hr 24 min 28 sec) 
Heartbeat CPU 0 instructions: 430000000 cycles: 1422984733 heartbeat IPC: 0.245242 cumulative IPC: 0.244437 (Simulation time: 0 hr 25 min 7 sec) 
Heartbeat CPU 0 instructions: 440000000 cycles: 1463702275 heartbeat IPC: 0.245594 cumulative IPC: 0.244471 (Simulation time: 0 hr 25 min 46 sec) 
Heartbeat CPU 0 instructions: 450000002 cycles: 1504295886 heartbeat IPC: 0.246344 cumulative IPC: 0.244524 (Simulation time: 0 hr 26 min 26 sec) 
Heartbeat CPU 0 instructions: 460000000 cycles: 1544317676 heartbeat IPC: 0.249864 cumulative IPC: 0.244669 (Simulation time: 0 hr 27 min 5 sec) 
Heartbeat CPU 0 instructions: 470000000 cycles: 1585287338 heartbeat IPC: 0.244083 cumulative IPC: 0.244653 (Simulation time: 0 hr 27 min 44 sec) 
Heartbeat CPU 0 instructions: 480000000 cycles: 1625953483 heartbeat IPC: 0.245905 cumulative IPC: 0.244686 (Simulation time: 0 hr 28 min 23 sec) 
Heartbeat CPU 0 instructions: 490000001 cycles: 1666693563 heartbeat IPC: 0.245459 cumulative IPC: 0.244706 (Simulation time: 0 hr 29 min 2 sec) 
Heartbeat CPU 0 instructions: 500000000 cycles: 1707648910 heartbeat IPC: 0.244168 cumulative IPC: 0.244692 (Simulation time: 0 hr 29 min 40 sec) 
Heartbeat CPU 0 instructions: 510000000 cycles: 1747977638 heartbeat IPC: 0.247962 cumulative IPC: 0.244771 (Simulation time: 0 hr 30 min 17 sec) 
Heartbeat CPU 0 instructions: 520000000 cycles: 1789207272 heartbeat IPC: 0.242544 cumulative IPC: 0.244717 (Simulation time: 0 hr 30 min 54 sec) 
Heartbeat CPU 0 instructions: 530000000 cycles: 1829865197 heartbeat IPC: 0.245955 cumulative IPC: 0.244746 (Simulation time: 0 hr 31 min 31 sec) 
Heartbeat CPU 0 instructions: 540000000 cycles: 1870272296 heartbeat IPC: 0.247481 cumulative IPC: 0.244808 (Simulation time: 0 hr 32 min 7 sec) 
Heartbeat CPU 0 instructions: 550000001 cycles: 1911455903 heartbeat IPC: 0.242815 cumulative IPC: 0.244763 (Simulation time: 0 hr 32 min 44 sec) 
Heartbeat CPU 0 instructions: 560000000 cycles: 1952691748 heartbeat IPC: 0.242507 cumulative IPC: 0.244714 (Simulation time: 0 hr 33 min 21 sec) 
Heartbeat CPU 0 instructions: 570000003 cycles: 1993815811 heartbeat IPC: 0.243167 cumulative IPC: 0.24468 (Simulation time: 0 hr 33 min 58 sec) 
Heartbeat CPU 0 instructions: 580000000 cycles: 2034859953 heartbeat IPC: 0.24364 cumulative IPC: 0.244659 (Simulation time: 0 hr 34 min 35 sec) 
Heartbeat CPU 0 instructions: 590000001 cycles: 2076447717 heartbeat IPC: 0.240455 cumulative IPC: 0.244571 (Simulation time: 0 hr 35 min 12 sec) 
Heartbeat CPU 0 instructions: 600000000 cycles: 2117680111 heartbeat IPC: 0.242528 cumulative IPC: 0.24453 (Simulation time: 0 hr 35 min 49 sec) 
Finished CPU 0 instructions: 500000000 cycles: 2044737547 cumulative IPC: 0.24453 (Simulation time: 0 hr 35 min 49 sec) 

CPU 0 Branch Prediction Accuracy: 96.2429% MPKI: 5.85335
Number of Branches: 77897976 Number of Mispredictions: 2926674
Number of LOAD Instructions: 193081861
Number of LOAD Instructions (ROI): 193081861
Number of STORE Instructions: 97310749
Number of STORE Instructions (ROI): 97310749
Total Destination Memory Operands: 106368027
Total Destination Memory Operands (ROI): 106368027
Total Source Memory Operands: 193081861
Total Source Memory Operands (ROI): 193081861
Number of DEPENDED LOADS: 6474087
Number of DEPENDED LOADS (ROI): 6474087
Number of SQ_ADDED: 106367982
Number of SQ_ADDED (ROI): 106367982
Number of LQ_ADDED: 429319074
Number of LQ_ADDED (ROI): 429319074
Number of Instructions read from trace: 600000256

ChampSim completed all CPUs

Region of Interest Statistics

CPU 0 cumulative IPC: 0.24453 instructions: 500000000 cycles: 2044737547
ITLB TOTAL     ACCESS:  151146071  HIT:  151130240  MISS:      15831
ITLB LOAD      ACCESS:  151146071  HIT:  151130240  MISS:      15831
ITLB RFO       ACCESS:          0  HIT:          0  MISS:          0
ITLB PREFETCH  ACCESS:          0  HIT:          0  MISS:          0
ITLB WRITEBACK ACCESS:          0  HIT:          0  MISS:          0
ITLB PREFETCH  REQUESTED:          0  ISSUED:          0  USEFUL:          0  USELESS:          0
ITLB TOTAL MSHR MERGED:      17574
ITLB LOAD MSHR MERGED:      17574
ITLB RFO MSHR MERGED:          0
ITLB PREFETCH MSHR MERGED:          0
ITLB WRITEBACK MSHR MERGED:          0
ITLB TOTAL ACCESSES:  151163645 HITS:  151130240 MISSES:      33405
ITLB LOAD ACCESSES:  151163645 HITS:  151130240 MISSES:      33405
ITLB RFO ACCESSES:          0 HITS:          0 MISSES:          0
ITLB PREFETCH ACCESSES:          0 HITS:          0 MISSES:          0
ITLB WRITEBACK ACCESSES:          0 HITS:          0 MISSES:          0
ITLB RQ ACCESS:  500000242
ITLB RQ TO_CACHE:  151163645
ITLB RQ MERGED:  348836597
ITLB RQ FORWARD:          0
ITLB WQ ACCESS:          0
ITLB WQ TO_CACHE:          0
ITLB WQ MERGED:          0
ITLB WQ FORWARD:          0
DTLB TOTAL     ACCESS:  199539870  HIT:  194160795  MISS:    5379075
DTLB LOAD      ACCESS:  123118979  HIT:  118100376  MISS:    5018603
DTLB RFO       ACCESS:   76420891  HIT:   76060419  MISS:     360472
DTLB PREFETCH  ACCESS:          0  HIT:          0  MISS:          0
DTLB WRITEBACK ACCESS:          0  HIT:          0  MISS:          0
DTLB PREFETCH  REQUESTED:          0  ISSUED:          0  USEFUL:          0  USELESS:          0
DTLB TOTAL MSHR MERGED:     916978
DTLB LOAD MSHR MERGED:     807383
DTLB RFO MSHR MERGED:     109595
DTLB PREFETCH MSHR MERGED:          0
DTLB WRITEBACK MSHR MERGED:          0
DTLB TOTAL ACCESSES:  200456848 HITS:  194160795 MISSES:    6296053
DTLB LOAD ACCESSES:  123926362 HITS:  118100376 MISSES:    5825986
DTLB RFO ACCESSES:   76530486 HITS:   76060419 MISSES:     470067
DTLB PREFETCH ACCESSES:          0 HITS:          0 MISSES:          0
DTLB WRITEBACK ACCESSES:          0 HITS:          0 MISSES:          0
DTLB RQ ACCESS:  243852325
DTLB RQ TO_CACHE:  200456848
DTLB RQ MERGED:   43395477
DTLB RQ FORWARD:          0
DTLB WQ ACCESS:          0
DTLB WQ TO_CACHE:          0
DTLB WQ MERGED:          0
DTLB WQ FORWARD:          0
L1D TOTAL     ACCESS:  335800850  HIT:  317703731  MISS:   18097119
L1D LOAD      ACCESS:  127653690  HIT:  118714753  MISS:    8938937
L1D RFO       ACCESS:   87176491  HIT:   86397186  MISS:     779305
L1D PREFETCH  ACCESS:  120970669  HIT:  112591792  MISS:    8378877
L1D WRITEBACK ACCESS:          0  HIT:          0  MISS:          0
L1D PREFETCH  REQUESTED:  128457132  ISSUED:  126859080  USEFUL:    1747543  USELESS:    6631346
L1D TOTAL MSHR MERGED:    3595333
L1D LOAD MSHR MERGED:     961824
L1D RFO MSHR MERGED:     949595
L1D PREFETCH MSHR MERGED:    1683914
L1D WRITEBACK MSHR MERGED:          0
L1D TOTAL ACCESSES:  339488493 HITS:  317796041 MISSES:   21692452
L1D LOAD ACCESSES:  128457619 HITS:  118715240 MISSES:    9742379
L1D RFO ACCESSES:   88066007 HITS:   86397186 MISSES:    1668821
L1D PREFETCH ACCESSES:  122964867 HITS:  112683615 MISSES:   10281252
L1D WRITEBACK ACCESSES:          0 HITS:          0 MISSES:          0
L1D RQ ACCESS:  155220940
L1D RQ TO_CACHE:  128457132
L1D RQ MERGED:   26763321
L1D RQ FORWARD:          0
L1D WQ ACCESS:   88631385
L1D WQ TO_CACHE:   88066006
L1D WQ MERGED:     565379
L1D WQ FORWARD:      92310
L1I TOTAL     ACCESS:  175461987  HIT:  175195538  MISS:     266449
L1I LOAD      ACCESS:  175461987  HIT:  175195538  MISS:     266449
L1I RFO       ACCESS:          0  HIT:          0  MISS:          0
L1I PREFETCH  ACCESS:          0  HIT:          0  MISS:          0
L1I WRITEBACK ACCESS:          0  HIT:          0  MISS:          0
L1I PREFETCH  REQUESTED:          0  ISSUED:          0  USEFUL:          0  USELESS:          0
L1I TOTAL MSHR MERGED:     213918
L1I LOAD MSHR MERGED:     213918
L1I RFO MSHR MERGED:          0
L1I PREFETCH MSHR MERGED:          0
L1I WRITEBACK MSHR MERGED:          0
L1I TOTAL ACCESSES:  175675905 HITS:  175195538 MISSES:     480367
L1I LOAD ACCESSES:  175675905 HITS:  175195538 MISSES:     480367
L1I RFO ACCESSES:          0 HITS:          0 MISSES:          0
L1I PREFETCH ACCESSES:          0 HITS:          0 MISSES:          0
L1I WRITEBACK ACCESSES:          0 HITS:          0 MISSES:          0
L1I RQ ACCESS:  500000242
L1I RQ TO_CACHE:  175675905
L1I RQ MERGED:  324324337
L1I RQ FORWARD:          0
L1I WQ ACCESS:          0
L1I WQ TO_CACHE:          0
L1I WQ MERGED:          0
L1I WQ FORWARD:          0
L2C TOTAL     ACCESS:   23739829  HIT:   12113825  MISS:   11626004
L2C LOAD      ACCESS:    9045832  HIT:    3565885  MISS:    5479947
L2C RFO       ACCESS:     719165  HIT:     129313  MISS:     589852
L2C PREFETCH  ACCESS:    8614380  HIT:    3086872  MISS:    5527508
L2C WRITEBACK ACCESS:    5360452  HIT:    5331755  MISS:      28697
L2C PREFETCH  REQUESTED:      18077  ISSUED:      18077  USEFUL:     322841  USELESS:    5204847
L2C TOTAL MSHR MERGED:         21
L2C LOAD MSHR MERGED:          2
L2C RFO MSHR MERGED:          0
L2C PREFETCH MSHR MERGED:         19
L2C WRITEBACK MSHR MERGED:          0
L2C TOTAL ACCESSES:   23741634 HITS:   12115603 MISSES:   11626031
L2C LOAD ACCESSES:    9047004 HITS:    3567057 MISSES:    5479947
L2C RFO ACCESSES:     719226 HITS:     129374 MISSES:     589852
L2C PREFETCH ACCESSES:    8614952 HITS:    3087417 MISSES:    5527535
L2C WRITEBACK ACCESSES:    5360452 HITS:    5331755 MISSES:      28697
L2C RQ ACCESS:    9766230
L2C RQ TO_CACHE:    9764997
L2C RQ MERGED:          0
L2C RQ FORWARD:          0
L2C WQ ACCESS:    5360452
L2C WQ TO_CACHE:    5360452
L2C WQ MERGED:          0
L2C WQ FORWARD:       1778
LLC TOTAL     ACCESS:   15449030  HIT:    7477521  MISS:    7971509
LLC LOAD      ACCESS:    5479914  HIT:    1758639  MISS:    3721275
LLC RFO       ACCESS:     589850  HIT:     247117  MISS:     342733
LLC PREFETCH  ACCESS:    5527507  HIT:    1879796  MISS:    3647711
LLC WRITEBACK ACCESS:    3851759  HIT:    3591969  MISS:     259790
LLC PREFETCH  REQUESTED:          0  ISSUED:          0  USEFUL:     212237  USELESS:    3437086
LLC TOTAL MSHR MERGED:          0
LLC LOAD MSHR MERGED:          0
LLC RFO MSHR MERGED:          0
LLC PREFETCH MSHR MERGED:          0
LLC WRITEBACK MSHR MERGED:          0
LLC TOTAL ACCESSES:   15449072 HITS:    7477563 MISSES:    7971509
LLC LOAD ACCESSES:    5479945 HITS:    1758670 MISSES:    3721275
LLC RFO ACCESSES:     589852 HITS:     247119 MISSES:     342733
LLC PREFETCH ACCESSES:    5527516 HITS:    1879805 MISSES:    3647711
LLC WRITEBACK ACCESSES:    3851759 HITS:    3591969 MISSES:     259790
LLC 0 RQ ACCESS:    6069797
LLC 0 RQ TO_CACHE:    6069764
LLC 0 RQ MERGED:          0
LLC 0 RQ FORWARD:          0
LLC WQ ACCESS:    3851759
LLC WQ TO_CACHE:    3851759
LLC WQ MERGED:          0
LLC WQ FORWARD:         42
Major fault: 0 Minor fault: 44814
CPU 0 L1D next line prefetcher final stats
CPU 0 L2C PC-based stride prefetcher final stats
All Misses: 9641860
All Hits: 8979678
SD Algo Stats - Switches: 0 SRR-Repls: 4263065 BRR-Repls: 0

DRAM Statistics
 CHANNEL 0
 RQ ROW_BUFFER_HIT:    1445811  ROW_BUFFER_MISS:    6262638
 DBUS_CONGESTED:    5749466
 WQ ROW_BUFFER_HIT:     220323  ROW_BUFFER_MISS:    2300709  FULL:          0

 AVG_CONGESTED_CYCLE: 13
LOADS RETIRED: 160808997
INSTR RETIRED: 500000000
