
*** ChampSim Multicore Out-of-Order Simulator ***

Warmup Instructions: 100000000
Simulation Instructions: 500000000
Number of CPUs: 1
LLC sets: 2048
LLC ways: 16
Clean RRIP Policies: 2211230222112302 Dirty RRIP Policies: 201130202011302 PSEL Width: 10 Track Set: 4294967295 PSEL Mask: 1 Demote Mask: 1040100010401000DS Algo: 0Window size: 0
Off-chip DRAM Size: 4096 MB Channels: 1 Width: 64-bit Data Rate: 1600 MT/s

CPU 0 runs /mnt/beegfs/iconst01/spec2017/Parest.trace.gz
NOT SORTED
TRACE STRING: /mnt/beegfs/iconst01/spec2017/Parest.trace.gz
SORTED
TRACE STRING: /mnt/beegfs/iconst01/spec2017/Parest.trace.gz
INITIAL
TRACE STRING: /mnt/beegfs/iconst01/spec2017/Parest.trace.gz

champsim_seed used: 623

CPU 0 L1D next line prefetcher
CPU 0 L2C IP-based stride prefetcher
Initialize DRRIP state
Assign rand_sets[0]: 454  LLC: 2048
rand_sets[0]: 454
Assign rand_sets[1]: 1662  LLC: 2048
rand_sets[1]: 1662
Assign rand_sets[2]: 1921  LLC: 2048
rand_sets[2]: 1921
Assign rand_sets[3]: 1131  LLC: 2048
rand_sets[3]: 1131
Assign rand_sets[4]: 331  LLC: 2048
rand_sets[4]: 331
Assign rand_sets[5]: 1531  LLC: 2048
rand_sets[5]: 1531
Assign rand_sets[6]: 482  LLC: 2048
rand_sets[6]: 482
Assign rand_sets[7]: 1275  LLC: 2048
rand_sets[7]: 1275
Assign rand_sets[8]: 1876  LLC: 2048
rand_sets[8]: 1876
Assign rand_sets[9]: 2038  LLC: 2048
rand_sets[9]: 2038
Assign rand_sets[10]: 701  LLC: 2048
rand_sets[10]: 701
Assign rand_sets[11]: 479  LLC: 2048
rand_sets[11]: 479
Assign rand_sets[12]: 892  LLC: 2048
rand_sets[12]: 892
Assign rand_sets[13]: 1820  LLC: 2048
rand_sets[13]: 1820
Assign rand_sets[14]: 1505  LLC: 2048
rand_sets[14]: 1505
Assign rand_sets[15]: 1159  LLC: 2048
rand_sets[15]: 1159
Assign rand_sets[16]: 513  LLC: 2048
rand_sets[16]: 513
Assign rand_sets[17]: 703  LLC: 2048
rand_sets[17]: 703
Assign rand_sets[18]: 561  LLC: 2048
rand_sets[18]: 561
Assign rand_sets[19]: 990  LLC: 2048
rand_sets[19]: 990
Assign rand_sets[20]: 342  LLC: 2048
rand_sets[20]: 342
Assign rand_sets[21]: 882  LLC: 2048
rand_sets[21]: 882
Assign rand_sets[22]: 15  LLC: 2048
rand_sets[22]: 15
Assign rand_sets[23]: 71  LLC: 2048
rand_sets[23]: 71
Assign rand_sets[24]: 1127  LLC: 2048
rand_sets[24]: 1127
Assign rand_sets[25]: 1382  LLC: 2048
rand_sets[25]: 1382
Assign rand_sets[26]: 647  LLC: 2048
rand_sets[26]: 647
Assign rand_sets[27]: 857  LLC: 2048
rand_sets[27]: 857
Assign rand_sets[28]: 1450  LLC: 2048
rand_sets[28]: 1450
Assign rand_sets[29]: 1160  LLC: 2048
rand_sets[29]: 1160
Assign rand_sets[30]: 1852  LLC: 2048
rand_sets[30]: 1852
Assign rand_sets[31]: 1881  LLC: 2048
rand_sets[31]: 1881
Assign rand_sets[32]: 1770  LLC: 2048
rand_sets[32]: 1770
Assign rand_sets[33]: 1622  LLC: 2048
rand_sets[33]: 1622
Assign rand_sets[34]: 275  LLC: 2048
rand_sets[34]: 275
Assign rand_sets[35]: 635  LLC: 2048
rand_sets[35]: 635
Assign rand_sets[36]: 466  LLC: 2048
rand_sets[36]: 466
Assign rand_sets[37]: 1413  LLC: 2048
rand_sets[37]: 1413
Assign rand_sets[38]: 417  LLC: 2048
rand_sets[38]: 417
Assign rand_sets[39]: 472  LLC: 2048
rand_sets[39]: 472
Assign rand_sets[40]: 1340  LLC: 2048
rand_sets[40]: 1340
Assign rand_sets[41]: 852  LLC: 2048
rand_sets[41]: 852
Assign rand_sets[42]: 1365  LLC: 2048
rand_sets[42]: 1365
Assign rand_sets[43]: 47  LLC: 2048
rand_sets[43]: 47
Assign rand_sets[44]: 823  LLC: 2048
rand_sets[44]: 823
Assign rand_sets[45]: 686  LLC: 2048
rand_sets[45]: 686
Assign rand_sets[46]: 1637  LLC: 2048
rand_sets[46]: 1637
Assign rand_sets[47]: 1115  LLC: 2048
rand_sets[47]: 1115
Assign rand_sets[48]: 986  LLC: 2048
rand_sets[48]: 986
Assign rand_sets[49]: 258  LLC: 2048
rand_sets[49]: 258
Assign rand_sets[50]: 633  LLC: 2048
rand_sets[50]: 633
Assign rand_sets[51]: 920  LLC: 2048
rand_sets[51]: 920
Assign rand_sets[52]: 204  LLC: 2048
rand_sets[52]: 204
Assign rand_sets[53]: 227  LLC: 2048
rand_sets[53]: 227
Assign rand_sets[54]: 1818  LLC: 2048
rand_sets[54]: 1818
Assign rand_sets[55]: 886  LLC: 2048
rand_sets[55]: 886
Assign rand_sets[56]: 1422  LLC: 2048
rand_sets[56]: 1422
Assign rand_sets[57]: 607  LLC: 2048
rand_sets[57]: 607
Assign rand_sets[58]: 217  LLC: 2048
rand_sets[58]: 217
Assign rand_sets[59]: 1945  LLC: 2048
rand_sets[59]: 1945
Assign rand_sets[60]: 143  LLC: 2048
rand_sets[60]: 143
Assign rand_sets[61]: 1311  LLC: 2048
rand_sets[61]: 1311
Assign rand_sets[62]: 319  LLC: 2048
rand_sets[62]: 319
Assign rand_sets[63]: 1846  LLC: 2048
rand_sets[63]: 1846
 CLEAN-RRIP-POLICY-1: 2-2-1-1-2-3-0-2- CLEAN-RRIP-POLICY-2: 2-2-1-1-2-3-0-2-
 DIRTY-RRIP-POLICY-1: 0-2-0-1-1-3-0-2- DIRTY-RRIP-POLICY-2: 0-2-0-1-1-3-0-2-
 PSEL width: 10
Heartbeat CPU 0 instructions: 10000001 cycles: 4386605 heartbeat IPC: 2.27967 cumulative IPC: 2.27967 (Simulation time: 0 hr 0 min 14 sec) 
Heartbeat CPU 0 instructions: 20000000 cycles: 8779627 heartbeat IPC: 2.27634 cumulative IPC: 2.278 (Simulation time: 0 hr 0 min 29 sec) 
Heartbeat CPU 0 instructions: 30000003 cycles: 13211173 heartbeat IPC: 2.25655 cumulative IPC: 2.27081 (Simulation time: 0 hr 0 min 44 sec) 
Heartbeat CPU 0 instructions: 40000000 cycles: 17641130 heartbeat IPC: 2.25736 cumulative IPC: 2.26743 (Simulation time: 0 hr 0 min 58 sec) 
Heartbeat CPU 0 instructions: 50000000 cycles: 22048152 heartbeat IPC: 2.26911 cumulative IPC: 2.26776 (Simulation time: 0 hr 1 min 12 sec) 
Heartbeat CPU 0 instructions: 60000000 cycles: 26452772 heartbeat IPC: 2.27034 cumulative IPC: 2.26819 (Simulation time: 0 hr 1 min 26 sec) 
Heartbeat CPU 0 instructions: 70000000 cycles: 30852855 heartbeat IPC: 2.27268 cumulative IPC: 2.26883 (Simulation time: 0 hr 1 min 41 sec) 
Heartbeat CPU 0 instructions: 80000000 cycles: 35247927 heartbeat IPC: 2.27528 cumulative IPC: 2.26964 (Simulation time: 0 hr 1 min 55 sec) 
Heartbeat CPU 0 instructions: 90000000 cycles: 39641029 heartbeat IPC: 2.2763 cumulative IPC: 2.27038 (Simulation time: 0 hr 2 min 10 sec) 
Heartbeat CPU 0 instructions: 100000000 cycles: 44037870 heartbeat IPC: 2.27436 cumulative IPC: 2.27077 (Simulation time: 0 hr 2 min 25 sec) 

Warmup complete CPU 0 instructions: 100000002 cycles: 44037880 (Simulation time: 0 hr 2 min 25 sec) 

Heartbeat CPU 0 instructions: 110000003 cycles: 54886770 heartbeat IPC: 0.921753 cumulative IPC: 0.921753 (Simulation time: 0 hr 2 min 44 sec) 
Heartbeat CPU 0 instructions: 120000000 cycles: 65055243 heartbeat IPC: 0.983432 cumulative IPC: 0.951594 (Simulation time: 0 hr 3 min 3 sec) 
Heartbeat CPU 0 instructions: 130000000 cycles: 75107447 heartbeat IPC: 0.994807 cumulative IPC: 0.965575 (Simulation time: 0 hr 3 min 22 sec) 
Heartbeat CPU 0 instructions: 140000000 cycles: 85217363 heartbeat IPC: 0.989128 cumulative IPC: 0.971357 (Simulation time: 0 hr 3 min 41 sec) 
Heartbeat CPU 0 instructions: 150000000 cycles: 97358662 heartbeat IPC: 0.823635 cumulative IPC: 0.937721 (Simulation time: 0 hr 4 min 1 sec) 
Heartbeat CPU 0 instructions: 160000000 cycles: 108758964 heartbeat IPC: 0.87717 cumulative IPC: 0.927055 (Simulation time: 0 hr 4 min 21 sec) 
Heartbeat CPU 0 instructions: 170000000 cycles: 119961779 heartbeat IPC: 0.892633 cumulative IPC: 0.921976 (Simulation time: 0 hr 4 min 40 sec) 
Heartbeat CPU 0 instructions: 180000000 cycles: 131088590 heartbeat IPC: 0.89873 cumulative IPC: 0.919005 (Simulation time: 0 hr 5 min 0 sec) 
Heartbeat CPU 0 instructions: 190000002 cycles: 142169927 heartbeat IPC: 0.902418 cumulative IPC: 0.917132 (Simulation time: 0 hr 5 min 19 sec) 
Heartbeat CPU 0 instructions: 200000000 cycles: 152601208 heartbeat IPC: 0.958655 cumulative IPC: 0.921121 (Simulation time: 0 hr 5 min 38 sec) 
Heartbeat CPU 0 instructions: 210000000 cycles: 163526322 heartbeat IPC: 0.915322 cumulative IPC: 0.920591 (Simulation time: 0 hr 5 min 57 sec) 
Heartbeat CPU 0 instructions: 220000000 cycles: 173580185 heartbeat IPC: 0.994643 cumulative IPC: 0.926338 (Simulation time: 0 hr 6 min 17 sec) 
Heartbeat CPU 0 instructions: 230000001 cycles: 185577781 heartbeat IPC: 0.8335 cumulative IPC: 0.918469 (Simulation time: 0 hr 6 min 37 sec) 
Heartbeat CPU 0 instructions: 240000000 cycles: 197153913 heartbeat IPC: 0.863846 cumulative IPC: 0.914339 (Simulation time: 0 hr 6 min 56 sec) 
Heartbeat CPU 0 instructions: 250000002 cycles: 208395929 heartbeat IPC: 0.88952 cumulative IPC: 0.912642 (Simulation time: 0 hr 7 min 16 sec) 
Heartbeat CPU 0 instructions: 260000000 cycles: 219416826 heartbeat IPC: 0.907367 cumulative IPC: 0.91231 (Simulation time: 0 hr 7 min 35 sec) 
Heartbeat CPU 0 instructions: 270000001 cycles: 230236239 heartbeat IPC: 0.924265 cumulative IPC: 0.913005 (Simulation time: 0 hr 7 min 54 sec) 
Heartbeat CPU 0 instructions: 280000000 cycles: 241300983 heartbeat IPC: 0.903771 cumulative IPC: 0.912487 (Simulation time: 0 hr 8 min 14 sec) 
Heartbeat CPU 0 instructions: 290000002 cycles: 251508850 heartbeat IPC: 0.979637 cumulative IPC: 0.915791 (Simulation time: 0 hr 8 min 33 sec) 
Heartbeat CPU 0 instructions: 300000000 cycles: 262296412 heartbeat IPC: 0.926993 cumulative IPC: 0.916344 (Simulation time: 0 hr 8 min 52 sec) 
Heartbeat CPU 0 instructions: 310000000 cycles: 272427654 heartbeat IPC: 0.987046 cumulative IPC: 0.919481 (Simulation time: 0 hr 9 min 11 sec) 
Heartbeat CPU 0 instructions: 320000000 cycles: 282452719 heartbeat IPC: 0.9975 cumulative IPC: 0.922761 (Simulation time: 0 hr 9 min 30 sec) 
Heartbeat CPU 0 instructions: 330000003 cycles: 292665540 heartbeat IPC: 0.979162 cumulative IPC: 0.925078 (Simulation time: 0 hr 9 min 50 sec) 
Heartbeat CPU 0 instructions: 340000000 cycles: 303507736 heartbeat IPC: 0.922322 cumulative IPC: 0.924963 (Simulation time: 0 hr 10 min 9 sec) 
Heartbeat CPU 0 instructions: 350000000 cycles: 315129005 heartbeat IPC: 0.860491 cumulative IPC: 0.922199 (Simulation time: 0 hr 10 min 29 sec) 
Heartbeat CPU 0 instructions: 360000000 cycles: 326378687 heartbeat IPC: 0.888914 cumulative IPC: 0.920873 (Simulation time: 0 hr 10 min 48 sec) 
Heartbeat CPU 0 instructions: 370000000 cycles: 337350861 heartbeat IPC: 0.911396 cumulative IPC: 0.920518 (Simulation time: 0 hr 11 min 7 sec) 
Heartbeat CPU 0 instructions: 380000000 cycles: 348080461 heartbeat IPC: 0.932001 cumulative IPC: 0.920924 (Simulation time: 0 hr 11 min 27 sec) 
Heartbeat CPU 0 instructions: 390000002 cycles: 358467745 heartbeat IPC: 0.962716 cumulative IPC: 0.922304 (Simulation time: 0 hr 11 min 46 sec) 
Heartbeat CPU 0 instructions: 400000000 cycles: 369296314 heartbeat IPC: 0.923483 cumulative IPC: 0.922343 (Simulation time: 0 hr 12 min 5 sec) 
Heartbeat CPU 0 instructions: 410000000 cycles: 379372004 heartbeat IPC: 0.992488 cumulative IPC: 0.924451 (Simulation time: 0 hr 12 min 24 sec) 
Heartbeat CPU 0 instructions: 420000000 cycles: 390498005 heartbeat IPC: 0.898796 cumulative IPC: 0.923627 (Simulation time: 0 hr 12 min 43 sec) 
Heartbeat CPU 0 instructions: 430000000 cycles: 402465963 heartbeat IPC: 0.835564 cumulative IPC: 0.920687 (Simulation time: 0 hr 13 min 3 sec) 
Heartbeat CPU 0 instructions: 440000000 cycles: 413713378 heartbeat IPC: 0.889093 cumulative IPC: 0.919726 (Simulation time: 0 hr 13 min 22 sec) 
Heartbeat CPU 0 instructions: 450000000 cycles: 424873282 heartbeat IPC: 0.896065 cumulative IPC: 0.919032 (Simulation time: 0 hr 13 min 41 sec) 
Heartbeat CPU 0 instructions: 460000000 cycles: 435984909 heartbeat IPC: 0.899958 cumulative IPC: 0.918491 (Simulation time: 0 hr 14 min 1 sec) 
Heartbeat CPU 0 instructions: 470000001 cycles: 446995888 heartbeat IPC: 0.908185 cumulative IPC: 0.91821 (Simulation time: 0 hr 14 min 20 sec) 
Heartbeat CPU 0 instructions: 480000000 cycles: 457342663 heartbeat IPC: 0.966485 cumulative IPC: 0.919418 (Simulation time: 0 hr 14 min 39 sec) 
Heartbeat CPU 0 instructions: 490000002 cycles: 468221606 heartbeat IPC: 0.919207 cumulative IPC: 0.919413 (Simulation time: 0 hr 14 min 58 sec) 
Heartbeat CPU 0 instructions: 500000000 cycles: 478651598 heartbeat IPC: 0.958773 cumulative IPC: 0.920358 (Simulation time: 0 hr 15 min 17 sec) 
Heartbeat CPU 0 instructions: 510000000 cycles: 488624763 heartbeat IPC: 1.00269 cumulative IPC: 0.922204 (Simulation time: 0 hr 15 min 36 sec) 
Heartbeat CPU 0 instructions: 520000000 cycles: 498908736 heartbeat IPC: 0.972387 cumulative IPC: 0.923339 (Simulation time: 0 hr 15 min 55 sec) 
Heartbeat CPU 0 instructions: 530000001 cycles: 509993068 heartbeat IPC: 0.902174 cumulative IPC: 0.922836 (Simulation time: 0 hr 16 min 14 sec) 
Heartbeat CPU 0 instructions: 540000000 cycles: 521577045 heartbeat IPC: 0.863261 cumulative IPC: 0.92139 (Simulation time: 0 hr 16 min 33 sec) 
Heartbeat CPU 0 instructions: 550000003 cycles: 533119872 heartbeat IPC: 0.866339 cumulative IPC: 0.920091 (Simulation time: 0 hr 16 min 52 sec) 
Heartbeat CPU 0 instructions: 560000000 cycles: 544227912 heartbeat IPC: 0.900249 cumulative IPC: 0.91965 (Simulation time: 0 hr 17 min 11 sec) 
Heartbeat CPU 0 instructions: 570000002 cycles: 554958080 heartbeat IPC: 0.931952 cumulative IPC: 0.919909 (Simulation time: 0 hr 17 min 30 sec) 
Heartbeat CPU 0 instructions: 580000000 cycles: 565634855 heartbeat IPC: 0.936612 cumulative IPC: 0.920251 (Simulation time: 0 hr 17 min 49 sec) 
Heartbeat CPU 0 instructions: 590000002 cycles: 576539440 heartbeat IPC: 0.917046 cumulative IPC: 0.920185 (Simulation time: 0 hr 18 min 8 sec) 
Heartbeat CPU 0 instructions: 600000000 cycles: 586905379 heartbeat IPC: 0.964698 cumulative IPC: 0.921035 (Simulation time: 0 hr 18 min 27 sec) 
Finished CPU 0 instructions: 500000000 cycles: 542867513 cumulative IPC: 0.921035 (Simulation time: 0 hr 18 min 27 sec) 

CPU 0 Branch Prediction Accuracy: 97.8526% MPKI: 2.66709
Number of Branches: 62099103 Number of Mispredictions: 1333545
Number of LOAD Instructions: 210576465
Number of LOAD Instructions (ROI): 210576465
Number of STORE Instructions: 16915507
Number of STORE Instructions (ROI): 16915507
Total Destination Memory Operands: 16918869
Total Destination Memory Operands (ROI): 16918869
Total Source Memory Operands: 210576465
Total Source Memory Operands (ROI): 210576465
Number of DEPENDED LOADS: 360284
Number of DEPENDED LOADS (ROI): 360284
Number of SQ_ADDED: 16918826
Number of SQ_ADDED (ROI): 16918826
Number of LQ_ADDED: 210633309
Number of LQ_ADDED (ROI): 210633309
Number of Instructions read from trace: 600000257

ChampSim completed all CPUs

Region of Interest Statistics

CPU 0 cumulative IPC: 0.921035 instructions: 500000000 cycles: 542867513
ITLB TOTAL     ACCESS:   76695868  HIT:   76695830  MISS:         38
ITLB LOAD      ACCESS:   76695868  HIT:   76695830  MISS:         38
ITLB RFO       ACCESS:          0  HIT:          0  MISS:          0
ITLB PREFETCH  ACCESS:          0  HIT:          0  MISS:          0
ITLB WRITEBACK ACCESS:          0  HIT:          0  MISS:          0
ITLB PREFETCH  REQUESTED:          0  ISSUED:          0  USEFUL:          0  USELESS:          0
ITLB TOTAL MSHR MERGED:         37
ITLB LOAD MSHR MERGED:         37
ITLB RFO MSHR MERGED:          0
ITLB PREFETCH MSHR MERGED:          0
ITLB WRITEBACK MSHR MERGED:          0
ITLB TOTAL ACCESSES:   76695905 HITS:   76695830 MISSES:         75
ITLB LOAD ACCESSES:   76695905 HITS:   76695830 MISSES:         75
ITLB RFO ACCESSES:          0 HITS:          0 MISSES:          0
ITLB PREFETCH ACCESSES:          0 HITS:          0 MISSES:          0
ITLB WRITEBACK ACCESSES:          0 HITS:          0 MISSES:          0
ITLB RQ ACCESS:  500000188
ITLB RQ TO_CACHE:   76695906
ITLB RQ MERGED:  423304282
ITLB RQ FORWARD:          0
ITLB WQ ACCESS:          0
ITLB WQ TO_CACHE:          0
ITLB WQ MERGED:          0
ITLB WQ FORWARD:          0
DTLB TOTAL     ACCESS:  136637768  HIT:  136434979  MISS:     202789
DTLB LOAD      ACCESS:  128574968  HIT:  128374900  MISS:     200068
DTLB RFO       ACCESS:    8062800  HIT:    8060079  MISS:       2721
DTLB PREFETCH  ACCESS:          0  HIT:          0  MISS:          0
DTLB WRITEBACK ACCESS:          0  HIT:          0  MISS:          0
DTLB PREFETCH  REQUESTED:          0  ISSUED:          0  USEFUL:          0  USELESS:          0
DTLB TOTAL MSHR MERGED:     437063
DTLB LOAD MSHR MERGED:     433582
DTLB RFO MSHR MERGED:       3481
DTLB PREFETCH MSHR MERGED:          0
DTLB WRITEBACK MSHR MERGED:          0
DTLB TOTAL ACCESSES:  137074831 HITS:  136434979 MISSES:     639852
DTLB LOAD ACCESSES:  129008550 HITS:  128374900 MISSES:     633650
DTLB RFO ACCESSES:    8066281 HITS:    8060079 MISSES:       6202
DTLB PREFETCH ACCESSES:          0 HITS:          0 MISSES:          0
DTLB WRITEBACK ACCESSES:          0 HITS:          0 MISSES:          0
DTLB RQ ACCESS:  189404199
DTLB RQ TO_CACHE:  137074831
DTLB RQ MERGED:   52329368
DTLB RQ FORWARD:          0
DTLB WQ ACCESS:          0
DTLB WQ TO_CACHE:          0
DTLB WQ MERGED:          0
DTLB WQ FORWARD:          0
L1D TOTAL     ACCESS:  124350605  HIT:  106793867  MISS:   17556738
L1D LOAD      ACCESS:   71931288  HIT:   61368672  MISS:   10562616
L1D RFO       ACCESS:   14018963  HIT:   13866129  MISS:     152834
L1D PREFETCH  ACCESS:   38400354  HIT:   31559066  MISS:    6841288
L1D WRITEBACK ACCESS:          0  HIT:          0  MISS:          0
L1D PREFETCH  REQUESTED:   85851572  ISSUED:   84525598  USEFUL:    5582040  USELESS:    1259259
L1D TOTAL MSHR MERGED:   33971357
L1D LOAD MSHR MERGED:   19475033
L1D RFO MSHR MERGED:     268752
L1D PREFETCH MSHR MERGED:   14227572
L1D WRITEBACK MSHR MERGED:          0
L1D TOTAL ACCESSES:  158322514 HITS:  106794420 MISSES:   51528094
L1D LOAD ACCESSES:   85851581 HITS:   61368681 MISSES:   24482900
L1D RFO ACCESSES:   14287695 HITS:   13866129 MISSES:     421566
L1D PREFETCH ACCESSES:   58183238 HITS:   31559610 MISSES:   26623628
L1D WRITEBACK ACCESSES:          0 HITS:          0 MISSES:          0
L1D RQ ACCESS:  175115177
L1D RQ TO_CACHE:   85851572
L1D RQ MERGED:   89263596
L1D RQ FORWARD:          0
L1D WQ ACCESS:   14289037
L1D WQ TO_CACHE:   14287695
L1D WQ MERGED:       1342
L1D WQ FORWARD:        553
L1I TOTAL     ACCESS:   93728057  HIT:   93726261  MISS:       1796
L1I LOAD      ACCESS:   93728057  HIT:   93726261  MISS:       1796
L1I RFO       ACCESS:          0  HIT:          0  MISS:          0
L1I PREFETCH  ACCESS:          0  HIT:          0  MISS:          0
L1I WRITEBACK ACCESS:          0  HIT:          0  MISS:          0
L1I PREFETCH  REQUESTED:          0  ISSUED:          0  USEFUL:          0  USELESS:          0
L1I TOTAL MSHR MERGED:       2359
L1I LOAD MSHR MERGED:       2359
L1I RFO MSHR MERGED:          0
L1I PREFETCH MSHR MERGED:          0
L1I WRITEBACK MSHR MERGED:          0
L1I TOTAL ACCESSES:   93730416 HITS:   93726261 MISSES:       4155
L1I LOAD ACCESSES:   93730416 HITS:   93726261 MISSES:       4155
L1I RFO ACCESSES:          0 HITS:          0 MISSES:          0
L1I PREFETCH ACCESSES:          0 HITS:          0 MISSES:          0
L1I WRITEBACK ACCESSES:          0 HITS:          0 MISSES:          0
L1I RQ ACCESS:  500000187
L1I RQ TO_CACHE:   93730416
L1I RQ MERGED:  406269771
L1I RQ FORWARD:          0
L1I WQ ACCESS:          0
L1I WQ TO_CACHE:          0
L1I WQ MERGED:          0
L1I WQ FORWARD:          0
L2C TOTAL     ACCESS:   20888953  HIT:    8662023  MISS:   12226930
L2C LOAD      ACCESS:    5009637  HIT:    2128397  MISS:    2881240
L2C RFO       ACCESS:     152814  HIT:       6509  MISS:     146305
L2C PREFETCH  ACCESS:   13953744  HIT:    4754469  MISS:    9199275
L2C WRITEBACK ACCESS:    1772758  HIT:    1772648  MISS:        110
L2C PREFETCH  REQUESTED:    1782078  ISSUED:    1782078  USEFUL:    1071545  USELESS:    8129396
L2C TOTAL MSHR MERGED:      78137
L2C LOAD MSHR MERGED:      16347
L2C RFO MSHR MERGED:          0
L2C PREFETCH MSHR MERGED:      61790
L2C WRITEBACK MSHR MERGED:          0
L2C TOTAL ACCESSES:   21010568 HITS:    8662066 MISSES:   12348502
L2C LOAD ACCESSES:    5009663 HITS:    2128423 MISSES:    2881240
L2C RFO ACCESSES:     152814 HITS:       6509 MISSES:     146305
L2C PREFETCH ACCESSES:   14075333 HITS:    4754486 MISSES:    9320847
L2C WRITEBACK ACCESSES:    1772758 HITS:    1772648 MISSES:        110
L2C RQ ACCESS:    5162477
L2C RQ TO_CACHE:    5162451
L2C RQ MERGED:          0
L2C RQ FORWARD:          0
L2C WQ ACCESS:    1772758
L2C WQ TO_CACHE:    1772758
L2C WQ MERGED:          0
L2C WQ FORWARD:         43
LLC TOTAL     ACCESS:   12541212  HIT:    3487480  MISS:    9053732
LLC LOAD      ACCESS:    2864883  HIT:    1320852  MISS:    1544031
LLC RFO       ACCESS:     146305  HIT:      10018  MISS:     136287
LLC PREFETCH  ACCESS:    9244049  HIT:    2000137  MISS:    7243912
LLC WRITEBACK ACCESS:     285975  HIT:     156473  MISS:     129502
LLC PREFETCH  REQUESTED:          0  ISSUED:          0  USEFUL:     797183  USELESS:    6454813
LLC TOTAL MSHR MERGED:       8559
LLC LOAD MSHR MERGED:       2283
LLC RFO MSHR MERGED:          0
LLC PREFETCH MSHR MERGED:       6276
LLC WRITEBACK MSHR MERGED:          0
LLC TOTAL ACCESSES:   12549799 HITS:    3487508 MISSES:    9062291
LLC LOAD ACCESSES:    2864893 HITS:    1320862 MISSES:    1544031
LLC RFO ACCESSES:     146305 HITS:      10018 MISSES:     136287
LLC PREFETCH ACCESSES:    9252626 HITS:    2000155 MISSES:    7252471
LLC WRITEBACK ACCESSES:     285975 HITS:     156473 MISSES:     129502
LLC 0 RQ ACCESS:    3011198
LLC 0 RQ TO_CACHE:    3011188
LLC 0 RQ MERGED:          0
LLC 0 RQ FORWARD:          0
LLC WQ ACCESS:     285975
LLC WQ TO_CACHE:     285975
LLC WQ MERGED:          0
LLC WQ FORWARD:         28
Major fault: 0 Minor fault: 6524
CPU 0 L1D next line prefetcher final stats
CPU 0 L2C PC-based stride prefetcher final stats
All Misses: 10914286
All Hits: 4151953
SD Algo Stats - Switches: 0 SRR-Repls: 1639059 BRR-Repls: 0

DRAM Statistics
 CHANNEL 0
 RQ ROW_BUFFER_HIT:    8065612  ROW_BUFFER_MISS:     850821
 DBUS_CONGESTED:    4159502
 WQ ROW_BUFFER_HIT:      40921  ROW_BUFFER_MISS:     116726  FULL:          0

 AVG_CONGESTED_CYCLE: 12
LOADS RETIRED: 175418235
INSTR RETIRED: 500000000
