
*** ChampSim Multicore Out-of-Order Simulator ***

Warmup Instructions: 100000000
Simulation Instructions: 500000000
Number of CPUs: 1
LLC sets: 2048
LLC ways: 16
Clean RRIP Policies: 2211230222112302 Dirty RRIP Policies: 201130202011302 PSEL Width: 10 Track Set: 4294967295 PSEL Mask: 1 Demote Mask: 1040100010401000DS Algo: 0Window size: 0
Off-chip DRAM Size: 4096 MB Channels: 1 Width: 64-bit Data Rate: 1600 MT/s

CPU 0 runs /mnt/beegfs/iconst01/spec2017/Roms.trace.gz
NOT SORTED
TRACE STRING: /mnt/beegfs/iconst01/spec2017/Roms.trace.gz
SORTED
TRACE STRING: /mnt/beegfs/iconst01/spec2017/Roms.trace.gz
INITIAL
TRACE STRING: /mnt/beegfs/iconst01/spec2017/Roms.trace.gz

champsim_seed used: 417

CPU 0 L1D next line prefetcher
CPU 0 L2C IP-based stride prefetcher
Initialize DRRIP state
Assign rand_sets[0]: 454  LLC: 2048
rand_sets[0]: 454
Assign rand_sets[1]: 1662  LLC: 2048
rand_sets[1]: 1662
Assign rand_sets[2]: 1921  LLC: 2048
rand_sets[2]: 1921
Assign rand_sets[3]: 1131  LLC: 2048
rand_sets[3]: 1131
Assign rand_sets[4]: 331  LLC: 2048
rand_sets[4]: 331
Assign rand_sets[5]: 1531  LLC: 2048
rand_sets[5]: 1531
Assign rand_sets[6]: 482  LLC: 2048
rand_sets[6]: 482
Assign rand_sets[7]: 1275  LLC: 2048
rand_sets[7]: 1275
Assign rand_sets[8]: 1876  LLC: 2048
rand_sets[8]: 1876
Assign rand_sets[9]: 2038  LLC: 2048
rand_sets[9]: 2038
Assign rand_sets[10]: 701  LLC: 2048
rand_sets[10]: 701
Assign rand_sets[11]: 479  LLC: 2048
rand_sets[11]: 479
Assign rand_sets[12]: 892  LLC: 2048
rand_sets[12]: 892
Assign rand_sets[13]: 1820  LLC: 2048
rand_sets[13]: 1820
Assign rand_sets[14]: 1505  LLC: 2048
rand_sets[14]: 1505
Assign rand_sets[15]: 1159  LLC: 2048
rand_sets[15]: 1159
Assign rand_sets[16]: 513  LLC: 2048
rand_sets[16]: 513
Assign rand_sets[17]: 703  LLC: 2048
rand_sets[17]: 703
Assign rand_sets[18]: 561  LLC: 2048
rand_sets[18]: 561
Assign rand_sets[19]: 990  LLC: 2048
rand_sets[19]: 990
Assign rand_sets[20]: 342  LLC: 2048
rand_sets[20]: 342
Assign rand_sets[21]: 882  LLC: 2048
rand_sets[21]: 882
Assign rand_sets[22]: 15  LLC: 2048
rand_sets[22]: 15
Assign rand_sets[23]: 71  LLC: 2048
rand_sets[23]: 71
Assign rand_sets[24]: 1127  LLC: 2048
rand_sets[24]: 1127
Assign rand_sets[25]: 1382  LLC: 2048
rand_sets[25]: 1382
Assign rand_sets[26]: 647  LLC: 2048
rand_sets[26]: 647
Assign rand_sets[27]: 857  LLC: 2048
rand_sets[27]: 857
Assign rand_sets[28]: 1450  LLC: 2048
rand_sets[28]: 1450
Assign rand_sets[29]: 1160  LLC: 2048
rand_sets[29]: 1160
Assign rand_sets[30]: 1852  LLC: 2048
rand_sets[30]: 1852
Assign rand_sets[31]: 1881  LLC: 2048
rand_sets[31]: 1881
Assign rand_sets[32]: 1770  LLC: 2048
rand_sets[32]: 1770
Assign rand_sets[33]: 1622  LLC: 2048
rand_sets[33]: 1622
Assign rand_sets[34]: 275  LLC: 2048
rand_sets[34]: 275
Assign rand_sets[35]: 635  LLC: 2048
rand_sets[35]: 635
Assign rand_sets[36]: 466  LLC: 2048
rand_sets[36]: 466
Assign rand_sets[37]: 1413  LLC: 2048
rand_sets[37]: 1413
Assign rand_sets[38]: 417  LLC: 2048
rand_sets[38]: 417
Assign rand_sets[39]: 472  LLC: 2048
rand_sets[39]: 472
Assign rand_sets[40]: 1340  LLC: 2048
rand_sets[40]: 1340
Assign rand_sets[41]: 852  LLC: 2048
rand_sets[41]: 852
Assign rand_sets[42]: 1365  LLC: 2048
rand_sets[42]: 1365
Assign rand_sets[43]: 47  LLC: 2048
rand_sets[43]: 47
Assign rand_sets[44]: 823  LLC: 2048
rand_sets[44]: 823
Assign rand_sets[45]: 686  LLC: 2048
rand_sets[45]: 686
Assign rand_sets[46]: 1637  LLC: 2048
rand_sets[46]: 1637
Assign rand_sets[47]: 1115  LLC: 2048
rand_sets[47]: 1115
Assign rand_sets[48]: 986  LLC: 2048
rand_sets[48]: 986
Assign rand_sets[49]: 258  LLC: 2048
rand_sets[49]: 258
Assign rand_sets[50]: 633  LLC: 2048
rand_sets[50]: 633
Assign rand_sets[51]: 920  LLC: 2048
rand_sets[51]: 920
Assign rand_sets[52]: 204  LLC: 2048
rand_sets[52]: 204
Assign rand_sets[53]: 227  LLC: 2048
rand_sets[53]: 227
Assign rand_sets[54]: 1818  LLC: 2048
rand_sets[54]: 1818
Assign rand_sets[55]: 886  LLC: 2048
rand_sets[55]: 886
Assign rand_sets[56]: 1422  LLC: 2048
rand_sets[56]: 1422
Assign rand_sets[57]: 607  LLC: 2048
rand_sets[57]: 607
Assign rand_sets[58]: 217  LLC: 2048
rand_sets[58]: 217
Assign rand_sets[59]: 1945  LLC: 2048
rand_sets[59]: 1945
Assign rand_sets[60]: 143  LLC: 2048
rand_sets[60]: 143
Assign rand_sets[61]: 1311  LLC: 2048
rand_sets[61]: 1311
Assign rand_sets[62]: 319  LLC: 2048
rand_sets[62]: 319
Assign rand_sets[63]: 1846  LLC: 2048
rand_sets[63]: 1846
 CLEAN-RRIP-POLICY-1: 2-2-1-1-2-3-0-2- CLEAN-RRIP-POLICY-2: 2-2-1-1-2-3-0-2-
 DIRTY-RRIP-POLICY-1: 0-2-0-1-1-3-0-2- DIRTY-RRIP-POLICY-2: 0-2-0-1-1-3-0-2-
 PSEL width: 10
Heartbeat CPU 0 instructions: 10000000 cycles: 4688091 heartbeat IPC: 2.13306 cumulative IPC: 2.13306 (Simulation time: 0 hr 0 min 17 sec) 
Heartbeat CPU 0 instructions: 20000000 cycles: 9325362 heartbeat IPC: 2.15644 cumulative IPC: 2.14469 (Simulation time: 0 hr 0 min 35 sec) 
Heartbeat CPU 0 instructions: 30000003 cycles: 14019747 heartbeat IPC: 2.13021 cumulative IPC: 2.13984 (Simulation time: 0 hr 0 min 52 sec) 
Heartbeat CPU 0 instructions: 40000000 cycles: 18670162 heartbeat IPC: 2.15035 cumulative IPC: 2.14246 (Simulation time: 0 hr 1 min 9 sec) 
Heartbeat CPU 0 instructions: 50000003 cycles: 23323523 heartbeat IPC: 2.14898 cumulative IPC: 2.14376 (Simulation time: 0 hr 1 min 26 sec) 
Heartbeat CPU 0 instructions: 60000000 cycles: 27976153 heartbeat IPC: 2.14932 cumulative IPC: 2.14468 (Simulation time: 0 hr 1 min 43 sec) 
Heartbeat CPU 0 instructions: 70000002 cycles: 32367328 heartbeat IPC: 2.2773 cumulative IPC: 2.16267 (Simulation time: 0 hr 1 min 58 sec) 
Heartbeat CPU 0 instructions: 80000000 cycles: 36304099 heartbeat IPC: 2.54015 cumulative IPC: 2.20361 (Simulation time: 0 hr 2 min 9 sec) 
Heartbeat CPU 0 instructions: 90000000 cycles: 40249310 heartbeat IPC: 2.53472 cumulative IPC: 2.23606 (Simulation time: 0 hr 2 min 21 sec) 
Heartbeat CPU 0 instructions: 100000000 cycles: 44211583 heartbeat IPC: 2.5238 cumulative IPC: 2.26185 (Simulation time: 0 hr 2 min 33 sec) 

Warmup complete CPU 0 instructions: 100000002 cycles: 44211584 (Simulation time: 0 hr 2 min 33 sec) 

Heartbeat CPU 0 instructions: 110000000 cycles: 51890698 heartbeat IPC: 1.30223 cumulative IPC: 1.30223 (Simulation time: 0 hr 2 min 51 sec) 
Heartbeat CPU 0 instructions: 120000000 cycles: 59820738 heartbeat IPC: 1.26103 cumulative IPC: 1.2813 (Simulation time: 0 hr 3 min 10 sec) 
Heartbeat CPU 0 instructions: 130000002 cycles: 67819538 heartbeat IPC: 1.25019 cumulative IPC: 1.27076 (Simulation time: 0 hr 3 min 28 sec) 
Heartbeat CPU 0 instructions: 140000000 cycles: 75685928 heartbeat IPC: 1.27123 cumulative IPC: 1.27088 (Simulation time: 0 hr 3 min 46 sec) 
Heartbeat CPU 0 instructions: 150000003 cycles: 83706145 heartbeat IPC: 1.24685 cumulative IPC: 1.266 (Simulation time: 0 hr 4 min 4 sec) 
Heartbeat CPU 0 instructions: 160000000 cycles: 93636422 heartbeat IPC: 1.00702 cumulative IPC: 1.21396 (Simulation time: 0 hr 4 min 25 sec) 
Heartbeat CPU 0 instructions: 170000000 cycles: 105691784 heartbeat IPC: 0.829506 cumulative IPC: 1.13858 (Simulation time: 0 hr 4 min 49 sec) 
Heartbeat CPU 0 instructions: 180000000 cycles: 117723344 heartbeat IPC: 0.831147 cumulative IPC: 1.08826 (Simulation time: 0 hr 5 min 12 sec) 
Heartbeat CPU 0 instructions: 190000000 cycles: 129833777 heartbeat IPC: 0.825734 cumulative IPC: 1.05113 (Simulation time: 0 hr 5 min 36 sec) 
Heartbeat CPU 0 instructions: 200000000 cycles: 142035363 heartbeat IPC: 0.819566 cumulative IPC: 1.02225 (Simulation time: 0 hr 5 min 58 sec) 
Heartbeat CPU 0 instructions: 210000003 cycles: 154293099 heartbeat IPC: 0.815812 cumulative IPC: 0.99926 (Simulation time: 0 hr 6 min 21 sec) 
Heartbeat CPU 0 instructions: 220000000 cycles: 166119733 heartbeat IPC: 0.845549 cumulative IPC: 0.984348 (Simulation time: 0 hr 6 min 44 sec) 
Heartbeat CPU 0 instructions: 230000000 cycles: 177094354 heartbeat IPC: 0.911193 cumulative IPC: 0.978306 (Simulation time: 0 hr 7 min 7 sec) 
Heartbeat CPU 0 instructions: 240000000 cycles: 188107025 heartbeat IPC: 0.908045 cumulative IPC: 0.972929 (Simulation time: 0 hr 7 min 30 sec) 
Heartbeat CPU 0 instructions: 250000002 cycles: 197645227 heartbeat IPC: 1.04842 cumulative IPC: 0.977621 (Simulation time: 0 hr 7 min 52 sec) 
Heartbeat CPU 0 instructions: 260000000 cycles: 205243626 heartbeat IPC: 1.31607 cumulative IPC: 0.993591 (Simulation time: 0 hr 8 min 11 sec) 
Heartbeat CPU 0 instructions: 270000003 cycles: 213231919 heartbeat IPC: 1.25183 cumulative IPC: 1.0058 (Simulation time: 0 hr 8 min 31 sec) 
Heartbeat CPU 0 instructions: 280000000 cycles: 221488745 heartbeat IPC: 1.21112 cumulative IPC: 1.01536 (Simulation time: 0 hr 8 min 52 sec) 
Heartbeat CPU 0 instructions: 290000000 cycles: 229780691 heartbeat IPC: 1.20599 cumulative IPC: 1.02388 (Simulation time: 0 hr 9 min 12 sec) 
Heartbeat CPU 0 instructions: 300000000 cycles: 238079365 heartbeat IPC: 1.20501 cumulative IPC: 1.03163 (Simulation time: 0 hr 9 min 32 sec) 
Heartbeat CPU 0 instructions: 310000000 cycles: 246294438 heartbeat IPC: 1.21727 cumulative IPC: 1.03918 (Simulation time: 0 hr 9 min 53 sec) 
Heartbeat CPU 0 instructions: 320000000 cycles: 254413202 heartbeat IPC: 1.23171 cumulative IPC: 1.04661 (Simulation time: 0 hr 10 min 14 sec) 
Heartbeat CPU 0 instructions: 330000002 cycles: 262581680 heartbeat IPC: 1.22422 cumulative IPC: 1.05326 (Simulation time: 0 hr 10 min 35 sec) 
Heartbeat CPU 0 instructions: 340000000 cycles: 271884652 heartbeat IPC: 1.07493 cumulative IPC: 1.05414 (Simulation time: 0 hr 10 min 58 sec) 
Heartbeat CPU 0 instructions: 350000001 cycles: 280687469 heartbeat IPC: 1.136 cumulative IPC: 1.05719 (Simulation time: 0 hr 11 min 19 sec) 
Heartbeat CPU 0 instructions: 360000000 cycles: 289480076 heartbeat IPC: 1.13732 cumulative IPC: 1.06006 (Simulation time: 0 hr 11 min 40 sec) 
Heartbeat CPU 0 instructions: 370000001 cycles: 298221850 heartbeat IPC: 1.14393 cumulative IPC: 1.06295 (Simulation time: 0 hr 12 min 1 sec) 
Heartbeat CPU 0 instructions: 380000000 cycles: 306948995 heartbeat IPC: 1.14585 cumulative IPC: 1.0657 (Simulation time: 0 hr 12 min 22 sec) 
Heartbeat CPU 0 instructions: 390000001 cycles: 315535818 heartbeat IPC: 1.16458 cumulative IPC: 1.06883 (Simulation time: 0 hr 12 min 42 sec) 
Heartbeat CPU 0 instructions: 400000000 cycles: 324190615 heartbeat IPC: 1.15543 cumulative IPC: 1.07151 (Simulation time: 0 hr 13 min 3 sec) 
Heartbeat CPU 0 instructions: 410000003 cycles: 332800822 heartbeat IPC: 1.16141 cumulative IPC: 1.07419 (Simulation time: 0 hr 13 min 24 sec) 
Heartbeat CPU 0 instructions: 420000000 cycles: 341451109 heartbeat IPC: 1.15603 cumulative IPC: 1.07657 (Simulation time: 0 hr 13 min 45 sec) 
Heartbeat CPU 0 instructions: 430000001 cycles: 350031048 heartbeat IPC: 1.16551 cumulative IPC: 1.07907 (Simulation time: 0 hr 14 min 5 sec) 
Heartbeat CPU 0 instructions: 440000000 cycles: 358586957 heartbeat IPC: 1.16878 cumulative IPC: 1.08151 (Simulation time: 0 hr 14 min 26 sec) 
Heartbeat CPU 0 instructions: 450000001 cycles: 368473790 heartbeat IPC: 1.01145 cumulative IPC: 1.07937 (Simulation time: 0 hr 14 min 48 sec) 
Heartbeat CPU 0 instructions: 460000000 cycles: 377086712 heartbeat IPC: 1.16105 cumulative IPC: 1.08149 (Simulation time: 0 hr 15 min 9 sec) 
Heartbeat CPU 0 instructions: 470000003 cycles: 385621690 heartbeat IPC: 1.17165 cumulative IPC: 1.08374 (Simulation time: 0 hr 15 min 30 sec) 
Heartbeat CPU 0 instructions: 480000000 cycles: 394103992 heartbeat IPC: 1.17892 cumulative IPC: 1.08605 (Simulation time: 0 hr 15 min 50 sec) 
Heartbeat CPU 0 instructions: 490000000 cycles: 402618309 heartbeat IPC: 1.17449 cumulative IPC: 1.08815 (Simulation time: 0 hr 16 min 11 sec) 
Heartbeat CPU 0 instructions: 500000000 cycles: 411129404 heartbeat IPC: 1.17494 cumulative IPC: 1.09016 (Simulation time: 0 hr 16 min 31 sec) 
Heartbeat CPU 0 instructions: 510000001 cycles: 419621760 heartbeat IPC: 1.17753 cumulative IPC: 1.09214 (Simulation time: 0 hr 16 min 52 sec) 
Heartbeat CPU 0 instructions: 520000000 cycles: 428148089 heartbeat IPC: 1.17284 cumulative IPC: 1.09393 (Simulation time: 0 hr 17 min 12 sec) 
Heartbeat CPU 0 instructions: 530000001 cycles: 436674471 heartbeat IPC: 1.17283 cumulative IPC: 1.09564 (Simulation time: 0 hr 17 min 33 sec) 
Heartbeat CPU 0 instructions: 540000000 cycles: 445415908 heartbeat IPC: 1.14398 cumulative IPC: 1.0967 (Simulation time: 0 hr 17 min 53 sec) 
Heartbeat CPU 0 instructions: 550000000 cycles: 454161672 heartbeat IPC: 1.14341 cumulative IPC: 1.09769 (Simulation time: 0 hr 18 min 14 sec) 
Heartbeat CPU 0 instructions: 560000000 cycles: 462705552 heartbeat IPC: 1.17043 cumulative IPC: 1.09918 (Simulation time: 0 hr 18 min 35 sec) 
Heartbeat CPU 0 instructions: 570000001 cycles: 473586917 heartbeat IPC: 0.919002 cumulative IPC: 1.09461 (Simulation time: 0 hr 18 min 57 sec) 
Heartbeat CPU 0 instructions: 580000000 cycles: 483886233 heartbeat IPC: 0.970938 cumulative IPC: 1.09172 (Simulation time: 0 hr 19 min 18 sec) 
Heartbeat CPU 0 instructions: 590000001 cycles: 494895166 heartbeat IPC: 0.908353 cumulative IPC: 1.08724 (Simulation time: 0 hr 19 min 40 sec) 
Heartbeat CPU 0 instructions: 600000000 cycles: 505259677 heartbeat IPC: 0.964831 cumulative IPC: 1.08449 (Simulation time: 0 hr 20 min 2 sec) 
Finished CPU 0 instructions: 500000001 cycles: 461048106 cumulative IPC: 1.08449 (Simulation time: 0 hr 20 min 2 sec) 

CPU 0 Branch Prediction Accuracy: 99.7422% MPKI: 0.173296
Number of Branches: 33608403 Number of Mispredictions: 86648
Number of LOAD Instructions: 180215231
Number of LOAD Instructions (ROI): 180215231
Number of STORE Instructions: 36067263
Number of STORE Instructions (ROI): 36067263
Total Destination Memory Operands: 38428915
Total Destination Memory Operands (ROI): 38428915
Total Source Memory Operands: 180215231
Total Source Memory Operands (ROI): 180215231
Number of DEPENDED LOADS: 3042107
Number of DEPENDED LOADS (ROI): 3042107
Number of SQ_ADDED: 38428892
Number of SQ_ADDED (ROI): 38428892
Number of LQ_ADDED: 207275682
Number of LQ_ADDED (ROI): 207275682
Number of Instructions read from trace: 600000257

ChampSim completed all CPUs

Region of Interest Statistics

CPU 0 cumulative IPC: 1.08449 instructions: 500000001 cycles: 461048106
ITLB TOTAL     ACCESS:   91289709  HIT:   91289690  MISS:         19
ITLB LOAD      ACCESS:   91289709  HIT:   91289690  MISS:         19
ITLB RFO       ACCESS:          0  HIT:          0  MISS:          0
ITLB PREFETCH  ACCESS:          0  HIT:          0  MISS:          0
ITLB WRITEBACK ACCESS:          0  HIT:          0  MISS:          0
ITLB PREFETCH  REQUESTED:          0  ISSUED:          0  USEFUL:          0  USELESS:          0
ITLB TOTAL MSHR MERGED:         40
ITLB LOAD MSHR MERGED:         40
ITLB RFO MSHR MERGED:          0
ITLB PREFETCH MSHR MERGED:          0
ITLB WRITEBACK MSHR MERGED:          0
ITLB TOTAL ACCESSES:   91289749 HITS:   91289690 MISSES:         59
ITLB LOAD ACCESSES:   91289749 HITS:   91289690 MISSES:         59
ITLB RFO ACCESSES:          0 HITS:          0 MISSES:          0
ITLB PREFETCH ACCESSES:          0 HITS:          0 MISSES:          0
ITLB WRITEBACK ACCESSES:          0 HITS:          0 MISSES:          0
ITLB RQ ACCESS:  500000003
ITLB RQ TO_CACHE:   91289749
ITLB RQ MERGED:  408710254
ITLB RQ FORWARD:          0
ITLB WQ ACCESS:          0
ITLB WQ TO_CACHE:          0
ITLB WQ MERGED:          0
ITLB WQ FORWARD:          0
DTLB TOTAL     ACCESS:  142758119  HIT:  142391656  MISS:     366463
DTLB LOAD      ACCESS:  119987882  HIT:  119674295  MISS:     313587
DTLB RFO       ACCESS:   22770237  HIT:   22717361  MISS:      52876
DTLB PREFETCH  ACCESS:          0  HIT:          0  MISS:          0
DTLB WRITEBACK ACCESS:          0  HIT:          0  MISS:          0
DTLB PREFETCH  REQUESTED:          0  ISSUED:          0  USEFUL:          0  USELESS:          0
DTLB TOTAL MSHR MERGED:     294029
DTLB LOAD MSHR MERGED:     245354
DTLB RFO MSHR MERGED:      48675
DTLB PREFETCH MSHR MERGED:          0
DTLB WRITEBACK MSHR MERGED:          0
DTLB TOTAL ACCESSES:  143052148 HITS:  142391656 MISSES:     660492
DTLB LOAD ACCESSES:  120233236 HITS:  119674295 MISSES:     558941
DTLB RFO ACCESSES:   22818912 HITS:   22717361 MISSES:     101551
DTLB PREFETCH ACCESSES:          0 HITS:          0 MISSES:          0
DTLB WRITEBACK ACCESSES:          0 HITS:          0 MISSES:          0
DTLB RQ ACCESS:  184790870
DTLB RQ TO_CACHE:  143052148
DTLB RQ MERGED:   41738722
DTLB RQ FORWARD:          0
DTLB WQ ACCESS:          0
DTLB WQ TO_CACHE:          0
DTLB WQ MERGED:          0
DTLB WQ FORWARD:          0
L1D TOTAL     ACCESS:  190672244  HIT:  177176465  MISS:   13495779
L1D LOAD      ACCESS:  113531447  HIT:  110718110  MISS:    2813337
L1D RFO       ACCESS:   17374809  HIT:   14593055  MISS:    2781754
L1D PREFETCH  ACCESS:   59765988  HIT:   51865300  MISS:    7900688
L1D WRITEBACK ACCESS:          0  HIT:          0  MISS:          0
L1D PREFETCH  REQUESTED:  117148739  ISSUED:  115787006  USEFUL:    7689236  USELESS:     211452
L1D TOTAL MSHR MERGED:   30123947
L1D LOAD MSHR MERGED:    5844744
L1D RFO MSHR MERGED:   10877895
L1D PREFETCH MSHR MERGED:   13401308
L1D WRITEBACK MSHR MERGED:          0
L1D TOTAL ACCESSES:  220796580 HITS:  177176853 MISSES:   43619727
L1D LOAD ACCESSES:  117148773 HITS:  110718144 MISSES:    6430629
L1D RFO ACCESSES:   28252643 HITS:   14593055 MISSES:   13659588
L1D PREFETCH ACCESSES:   75395164 HITS:   51865654 MISSES:   23529510
L1D WRITEBACK ACCESSES:          0 HITS:          0 MISSES:          0
L1D RQ ACCESS:  156534804
L1D RQ TO_CACHE:  117148742
L1D RQ MERGED:   39386028
L1D RQ FORWARD:          0
L1D WQ ACCESS:   28256066
L1D WQ TO_CACHE:   28252643
L1D WQ MERGED:       3423
L1D WQ FORWARD:        388
L1I TOTAL     ACCESS:  115321639  HIT:  115320691  MISS:        948
L1I LOAD      ACCESS:  115321639  HIT:  115320691  MISS:        948
L1I RFO       ACCESS:          0  HIT:          0  MISS:          0
L1I PREFETCH  ACCESS:          0  HIT:          0  MISS:          0
L1I WRITEBACK ACCESS:          0  HIT:          0  MISS:          0
L1I PREFETCH  REQUESTED:          0  ISSUED:          0  USEFUL:          0  USELESS:          0
L1I TOTAL MSHR MERGED:       1554
L1I LOAD MSHR MERGED:       1554
L1I RFO MSHR MERGED:          0
L1I PREFETCH MSHR MERGED:          0
L1I WRITEBACK MSHR MERGED:          0
L1I TOTAL ACCESSES:  115323193 HITS:  115320691 MISSES:       2502
L1I LOAD ACCESSES:  115323193 HITS:  115320691 MISSES:       2502
L1I RFO ACCESSES:          0 HITS:          0 MISSES:          0
L1I PREFETCH ACCESSES:          0 HITS:          0 MISSES:          0
L1I WRITEBACK ACCESSES:          0 HITS:          0 MISSES:          0
L1I RQ ACCESS:  500000007
L1I RQ TO_CACHE:  115323193
L1I RQ MERGED:  384676814
L1I RQ FORWARD:          0
L1I WQ ACCESS:          0
L1I WQ TO_CACHE:          0
L1I WQ MERGED:          0
L1I WQ FORWARD:          0
L2C TOTAL     ACCESS:   16748148  HIT:    4902570  MISS:   11845578
L2C LOAD      ACCESS:     586801  HIT:     101740  MISS:     485061
L2C RFO       ACCESS:    2781693  HIT:     266783  MISS:    2514910
L2C PREFETCH  ACCESS:   10159000  HIT:    1315668  MISS:    8843332
L2C WRITEBACK ACCESS:    3220654  HIT:    3218379  MISS:       2275
L2C PREFETCH  REQUESTED:      33220  ISSUED:      33220  USEFUL:      96818  USELESS:    8744537
L2C TOTAL MSHR MERGED:        338
L2C LOAD MSHR MERGED:          5
L2C RFO MSHR MERGED:          0
L2C PREFETCH MSHR MERGED:        333
L2C WRITEBACK MSHR MERGED:          0
L2C TOTAL ACCESSES:   16748998 HITS:    4902623 MISSES:   11846375
L2C LOAD ACCESSES:     586833 HITS:     101772 MISSES:     485061
L2C RFO ACCESSES:    2781693 HITS:     266783 MISSES:    2514910
L2C PREFETCH ACCESSES:   10159818 HITS:    1315689 MISSES:    8844129
L2C WRITEBACK ACCESSES:    3220654 HITS:    3218379 MISSES:       2275
L2C RQ ACCESS:    3368526
L2C RQ TO_CACHE:    3368494
L2C RQ MERGED:          0
L2C RQ FORWARD:          0
L2C WQ ACCESS:    3220654
L2C WQ TO_CACHE:    3220654
L2C WQ MERGED:          0
L2C WQ FORWARD:         53
LLC TOTAL     ACCESS:   14743871  HIT:    8243540  MISS:    6500331
LLC LOAD      ACCESS:     485052  HIT:     255277  MISS:     229775
LLC RFO       ACCESS:    2514873  HIT:    1422502  MISS:    1092371
LLC PREFETCH  ACCESS:    8843660  HIT:    4449130  MISS:    4394530
LLC WRITEBACK ACCESS:    2900286  HIT:    2116631  MISS:     783655
LLC PREFETCH  REQUESTED:          0  ISSUED:          0  USEFUL:     239285  USELESS:    4167336
LLC TOTAL MSHR MERGED:          4
LLC LOAD MSHR MERGED:          1
LLC RFO MSHR MERGED:          0
LLC PREFETCH MSHR MERGED:          3
LLC WRITEBACK MSHR MERGED:          0
LLC TOTAL ACCESSES:   14744006 HITS:    8243670 MISSES:    6500336
LLC LOAD ACCESSES:     485056 HITS:     255281 MISSES:     229775
LLC RFO ACCESSES:    2514910 HITS:    1422539 MISSES:    1092371
LLC PREFETCH ACCESSES:    8843754 HITS:    4449219 MISSES:    4394535
LLC WRITEBACK ACCESSES:    2900286 HITS:    2116631 MISSES:     783655
LLC 0 RQ ACCESS:    2999966
LLC 0 RQ TO_CACHE:    2999925
LLC 0 RQ MERGED:          0
LLC 0 RQ FORWARD:          0
LLC WQ ACCESS:    2900286
LLC WQ TO_CACHE:    2900286
LLC WQ MERGED:          0
LLC WQ FORWARD:        130
Major fault: 0 Minor fault: 57518
CPU 0 L1D next line prefetcher final stats
CPU 0 L2C PC-based stride prefetcher final stats
All Misses: 6869619
All Hits: 9370434
SD Algo Stats - Switches: 0 SRR-Repls: 236104 BRR-Repls: 0

DRAM Statistics
 CHANNEL 0
 RQ ROW_BUFFER_HIT:    3157320  ROW_BUFFER_MISS:    2556973
 DBUS_CONGESTED:    3103663
 WQ ROW_BUFFER_HIT:     183935  ROW_BUFFER_MISS:    1367293  FULL:          0

 AVG_CONGESTED_CYCLE: 13
LOADS RETIRED: 157818985
INSTR RETIRED: 500000000
