
*** ChampSim Multicore Out-of-Order Simulator ***

Warmup Instructions: 100000000
Simulation Instructions: 500000000
Number of CPUs: 1
LLC sets: 2048
LLC ways: 16
Clean RRIP Policies: 1113130111131301 Dirty RRIP Policies: 1103130111031301 PSEL Width: 10 Track Set: 4294967295 PSEL Mask: 1 Demote Mask: 4004134440041344DS Algo: 0Window size: 0
Off-chip DRAM Size: 4096 MB Channels: 1 Width: 64-bit Data Rate: 1600 MT/s

CPU 0 runs /mnt/beegfs/iconst01/spec2017/Gcc.trace.gz
NOT SORTED
TRACE STRING: /mnt/beegfs/iconst01/spec2017/Gcc.trace.gz
SORTED
TRACE STRING: /mnt/beegfs/iconst01/spec2017/Gcc.trace.gz
INITIAL
TRACE STRING: /mnt/beegfs/iconst01/spec2017/Gcc.trace.gz

champsim_seed used: 269

CPU 0 L1D next line prefetcher
CPU 0 L2C IP-based stride prefetcher
Initialize DRRIP state
Assign rand_sets[0]: 454  LLC: 2048
rand_sets[0]: 454
Assign rand_sets[1]: 1662  LLC: 2048
rand_sets[1]: 1662
Assign rand_sets[2]: 1921  LLC: 2048
rand_sets[2]: 1921
Assign rand_sets[3]: 1131  LLC: 2048
rand_sets[3]: 1131
Assign rand_sets[4]: 331  LLC: 2048
rand_sets[4]: 331
Assign rand_sets[5]: 1531  LLC: 2048
rand_sets[5]: 1531
Assign rand_sets[6]: 482  LLC: 2048
rand_sets[6]: 482
Assign rand_sets[7]: 1275  LLC: 2048
rand_sets[7]: 1275
Assign rand_sets[8]: 1876  LLC: 2048
rand_sets[8]: 1876
Assign rand_sets[9]: 2038  LLC: 2048
rand_sets[9]: 2038
Assign rand_sets[10]: 701  LLC: 2048
rand_sets[10]: 701
Assign rand_sets[11]: 479  LLC: 2048
rand_sets[11]: 479
Assign rand_sets[12]: 892  LLC: 2048
rand_sets[12]: 892
Assign rand_sets[13]: 1820  LLC: 2048
rand_sets[13]: 1820
Assign rand_sets[14]: 1505  LLC: 2048
rand_sets[14]: 1505
Assign rand_sets[15]: 1159  LLC: 2048
rand_sets[15]: 1159
Assign rand_sets[16]: 513  LLC: 2048
rand_sets[16]: 513
Assign rand_sets[17]: 703  LLC: 2048
rand_sets[17]: 703
Assign rand_sets[18]: 561  LLC: 2048
rand_sets[18]: 561
Assign rand_sets[19]: 990  LLC: 2048
rand_sets[19]: 990
Assign rand_sets[20]: 342  LLC: 2048
rand_sets[20]: 342
Assign rand_sets[21]: 882  LLC: 2048
rand_sets[21]: 882
Assign rand_sets[22]: 15  LLC: 2048
rand_sets[22]: 15
Assign rand_sets[23]: 71  LLC: 2048
rand_sets[23]: 71
Assign rand_sets[24]: 1127  LLC: 2048
rand_sets[24]: 1127
Assign rand_sets[25]: 1382  LLC: 2048
rand_sets[25]: 1382
Assign rand_sets[26]: 647  LLC: 2048
rand_sets[26]: 647
Assign rand_sets[27]: 857  LLC: 2048
rand_sets[27]: 857
Assign rand_sets[28]: 1450  LLC: 2048
rand_sets[28]: 1450
Assign rand_sets[29]: 1160  LLC: 2048
rand_sets[29]: 1160
Assign rand_sets[30]: 1852  LLC: 2048
rand_sets[30]: 1852
Assign rand_sets[31]: 1881  LLC: 2048
rand_sets[31]: 1881
Assign rand_sets[32]: 1770  LLC: 2048
rand_sets[32]: 1770
Assign rand_sets[33]: 1622  LLC: 2048
rand_sets[33]: 1622
Assign rand_sets[34]: 275  LLC: 2048
rand_sets[34]: 275
Assign rand_sets[35]: 635  LLC: 2048
rand_sets[35]: 635
Assign rand_sets[36]: 466  LLC: 2048
rand_sets[36]: 466
Assign rand_sets[37]: 1413  LLC: 2048
rand_sets[37]: 1413
Assign rand_sets[38]: 417  LLC: 2048
rand_sets[38]: 417
Assign rand_sets[39]: 472  LLC: 2048
rand_sets[39]: 472
Assign rand_sets[40]: 1340  LLC: 2048
rand_sets[40]: 1340
Assign rand_sets[41]: 852  LLC: 2048
rand_sets[41]: 852
Assign rand_sets[42]: 1365  LLC: 2048
rand_sets[42]: 1365
Assign rand_sets[43]: 47  LLC: 2048
rand_sets[43]: 47
Assign rand_sets[44]: 823  LLC: 2048
rand_sets[44]: 823
Assign rand_sets[45]: 686  LLC: 2048
rand_sets[45]: 686
Assign rand_sets[46]: 1637  LLC: 2048
rand_sets[46]: 1637
Assign rand_sets[47]: 1115  LLC: 2048
rand_sets[47]: 1115
Assign rand_sets[48]: 986  LLC: 2048
rand_sets[48]: 986
Assign rand_sets[49]: 258  LLC: 2048
rand_sets[49]: 258
Assign rand_sets[50]: 633  LLC: 2048
rand_sets[50]: 633
Assign rand_sets[51]: 920  LLC: 2048
rand_sets[51]: 920
Assign rand_sets[52]: 204  LLC: 2048
rand_sets[52]: 204
Assign rand_sets[53]: 227  LLC: 2048
rand_sets[53]: 227
Assign rand_sets[54]: 1818  LLC: 2048
rand_sets[54]: 1818
Assign rand_sets[55]: 886  LLC: 2048
rand_sets[55]: 886
Assign rand_sets[56]: 1422  LLC: 2048
rand_sets[56]: 1422
Assign rand_sets[57]: 607  LLC: 2048
rand_sets[57]: 607
Assign rand_sets[58]: 217  LLC: 2048
rand_sets[58]: 217
Assign rand_sets[59]: 1945  LLC: 2048
rand_sets[59]: 1945
Assign rand_sets[60]: 143  LLC: 2048
rand_sets[60]: 143
Assign rand_sets[61]: 1311  LLC: 2048
rand_sets[61]: 1311
Assign rand_sets[62]: 319  LLC: 2048
rand_sets[62]: 319
Assign rand_sets[63]: 1846  LLC: 2048
rand_sets[63]: 1846
 CLEAN-RRIP-POLICY-1: 1-1-1-3-1-3-0-1- CLEAN-RRIP-POLICY-2: 1-1-1-3-1-3-0-1-
 DIRTY-RRIP-POLICY-1: 1-1-0-3-1-3-0-1- DIRTY-RRIP-POLICY-2: 1-1-0-3-1-3-0-1-
 PSEL width: 10
Heartbeat CPU 0 instructions: 10000001 cycles: 7315980 heartbeat IPC: 1.36687 cumulative IPC: 1.36687 (Simulation time: 0 hr 0 min 14 sec) 
Heartbeat CPU 0 instructions: 20000000 cycles: 14307580 heartbeat IPC: 1.43029 cumulative IPC: 1.39786 (Simulation time: 0 hr 0 min 29 sec) 
Heartbeat CPU 0 instructions: 30000001 cycles: 21020566 heartbeat IPC: 1.48965 cumulative IPC: 1.42717 (Simulation time: 0 hr 0 min 45 sec) 
Heartbeat CPU 0 instructions: 40000000 cycles: 27481351 heartbeat IPC: 1.5478 cumulative IPC: 1.45553 (Simulation time: 0 hr 1 min 1 sec) 
Heartbeat CPU 0 instructions: 50000001 cycles: 33582994 heartbeat IPC: 1.6389 cumulative IPC: 1.48885 (Simulation time: 0 hr 1 min 17 sec) 
Heartbeat CPU 0 instructions: 60000000 cycles: 40064109 heartbeat IPC: 1.54294 cumulative IPC: 1.4976 (Simulation time: 0 hr 1 min 33 sec) 
Heartbeat CPU 0 instructions: 70000000 cycles: 47102415 heartbeat IPC: 1.4208 cumulative IPC: 1.48612 (Simulation time: 0 hr 1 min 48 sec) 
Heartbeat CPU 0 instructions: 80000000 cycles: 54192040 heartbeat IPC: 1.41051 cumulative IPC: 1.47623 (Simulation time: 0 hr 2 min 3 sec) 
Heartbeat CPU 0 instructions: 90000003 cycles: 61196364 heartbeat IPC: 1.42769 cumulative IPC: 1.47068 (Simulation time: 0 hr 2 min 18 sec) 
Heartbeat CPU 0 instructions: 100000000 cycles: 68363645 heartbeat IPC: 1.39523 cumulative IPC: 1.46277 (Simulation time: 0 hr 2 min 32 sec) 

Warmup complete CPU 0 instructions: 100000004 cycles: 68363646 (Simulation time: 0 hr 2 min 32 sec) 

Heartbeat CPU 0 instructions: 110000003 cycles: 95984808 heartbeat IPC: 0.362041 cumulative IPC: 0.362041 (Simulation time: 0 hr 3 min 1 sec) 
Heartbeat CPU 0 instructions: 120000000 cycles: 123433153 heartbeat IPC: 0.364321 cumulative IPC: 0.363177 (Simulation time: 0 hr 3 min 30 sec) 
Heartbeat CPU 0 instructions: 130000000 cycles: 148391528 heartbeat IPC: 0.400667 cumulative IPC: 0.374869 (Simulation time: 0 hr 3 min 59 sec) 
Heartbeat CPU 0 instructions: 140000000 cycles: 177851654 heartbeat IPC: 0.339442 cumulative IPC: 0.365337 (Simulation time: 0 hr 4 min 28 sec) 
Heartbeat CPU 0 instructions: 150000000 cycles: 207686891 heartbeat IPC: 0.335174 cumulative IPC: 0.358878 (Simulation time: 0 hr 4 min 57 sec) 
Heartbeat CPU 0 instructions: 160000000 cycles: 235080502 heartbeat IPC: 0.365049 cumulative IPC: 0.359892 (Simulation time: 0 hr 5 min 25 sec) 
Heartbeat CPU 0 instructions: 170000001 cycles: 263074394 heartbeat IPC: 0.357221 cumulative IPC: 0.359508 (Simulation time: 0 hr 5 min 55 sec) 
Heartbeat CPU 0 instructions: 180000000 cycles: 291500919 heartbeat IPC: 0.351784 cumulative IPC: 0.358524 (Simulation time: 0 hr 6 min 24 sec) 
Heartbeat CPU 0 instructions: 190000002 cycles: 319472577 heartbeat IPC: 0.357505 cumulative IPC: 0.35841 (Simulation time: 0 hr 6 min 53 sec) 
Heartbeat CPU 0 instructions: 200000000 cycles: 347807046 heartbeat IPC: 0.352927 cumulative IPC: 0.357854 (Simulation time: 0 hr 7 min 23 sec) 
Heartbeat CPU 0 instructions: 210000002 cycles: 375609868 heartbeat IPC: 0.359676 cumulative IPC: 0.358019 (Simulation time: 0 hr 7 min 52 sec) 
Heartbeat CPU 0 instructions: 220000000 cycles: 404706937 heartbeat IPC: 0.343677 cumulative IPC: 0.356778 (Simulation time: 0 hr 8 min 20 sec) 
Heartbeat CPU 0 instructions: 230000000 cycles: 432209425 heartbeat IPC: 0.363603 cumulative IPC: 0.357294 (Simulation time: 0 hr 8 min 48 sec) 
Heartbeat CPU 0 instructions: 240000000 cycles: 458132039 heartbeat IPC: 0.385764 cumulative IPC: 0.359188 (Simulation time: 0 hr 9 min 15 sec) 
Heartbeat CPU 0 instructions: 250000000 cycles: 488242045 heartbeat IPC: 0.332116 cumulative IPC: 0.357246 (Simulation time: 0 hr 9 min 45 sec) 
Heartbeat CPU 0 instructions: 260000000 cycles: 515281945 heartbeat IPC: 0.369824 cumulative IPC: 0.358007 (Simulation time: 0 hr 10 min 14 sec) 
Heartbeat CPU 0 instructions: 270000003 cycles: 543660350 heartbeat IPC: 0.352381 cumulative IPC: 0.357671 (Simulation time: 0 hr 10 min 44 sec) 
Heartbeat CPU 0 instructions: 280000000 cycles: 571826294 heartbeat IPC: 0.355039 cumulative IPC: 0.357524 (Simulation time: 0 hr 11 min 14 sec) 
Heartbeat CPU 0 instructions: 290000000 cycles: 600661967 heartbeat IPC: 0.346793 cumulative IPC: 0.356943 (Simulation time: 0 hr 11 min 44 sec) 
Heartbeat CPU 0 instructions: 300000000 cycles: 630519213 heartbeat IPC: 0.334927 cumulative IPC: 0.355773 (Simulation time: 0 hr 12 min 12 sec) 
Heartbeat CPU 0 instructions: 310000001 cycles: 659876556 heartbeat IPC: 0.34063 cumulative IPC: 0.355022 (Simulation time: 0 hr 12 min 41 sec) 
Heartbeat CPU 0 instructions: 320000000 cycles: 688028432 heartbeat IPC: 0.355216 cumulative IPC: 0.355031 (Simulation time: 0 hr 13 min 9 sec) 
Heartbeat CPU 0 instructions: 330000000 cycles: 716620451 heartbeat IPC: 0.349748 cumulative IPC: 0.354798 (Simulation time: 0 hr 13 min 38 sec) 
Heartbeat CPU 0 instructions: 340000000 cycles: 745879953 heartbeat IPC: 0.341769 cumulative IPC: 0.354235 (Simulation time: 0 hr 14 min 7 sec) 
Heartbeat CPU 0 instructions: 350000003 cycles: 772878862 heartbeat IPC: 0.370385 cumulative IPC: 0.354854 (Simulation time: 0 hr 14 min 35 sec) 
Heartbeat CPU 0 instructions: 360000000 cycles: 800953985 heartbeat IPC: 0.356187 cumulative IPC: 0.354905 (Simulation time: 0 hr 15 min 2 sec) 
Heartbeat CPU 0 instructions: 370000000 cycles: 829122654 heartbeat IPC: 0.355004 cumulative IPC: 0.354909 (Simulation time: 0 hr 15 min 30 sec) 
Heartbeat CPU 0 instructions: 380000000 cycles: 857621790 heartbeat IPC: 0.350888 cumulative IPC: 0.354764 (Simulation time: 0 hr 15 min 57 sec) 
Heartbeat CPU 0 instructions: 390000001 cycles: 885221241 heartbeat IPC: 0.362326 cumulative IPC: 0.355019 (Simulation time: 0 hr 16 min 25 sec) 
Heartbeat CPU 0 instructions: 400000000 cycles: 913848731 heartbeat IPC: 0.349315 cumulative IPC: 0.354826 (Simulation time: 0 hr 16 min 52 sec) 
Heartbeat CPU 0 instructions: 410000001 cycles: 941155726 heartbeat IPC: 0.366207 cumulative IPC: 0.355182 (Simulation time: 0 hr 17 min 20 sec) 
Heartbeat CPU 0 instructions: 420000000 cycles: 968473955 heartbeat IPC: 0.366056 cumulative IPC: 0.355512 (Simulation time: 0 hr 17 min 47 sec) 
Heartbeat CPU 0 instructions: 430000002 cycles: 996182120 heartbeat IPC: 0.360905 cumulative IPC: 0.355673 (Simulation time: 0 hr 18 min 15 sec) 
Heartbeat CPU 0 instructions: 440000000 cycles: 1025714802 heartbeat IPC: 0.338608 cumulative IPC: 0.355147 (Simulation time: 0 hr 18 min 42 sec) 
Heartbeat CPU 0 instructions: 450000002 cycles: 1054937335 heartbeat IPC: 0.342202 cumulative IPC: 0.354763 (Simulation time: 0 hr 19 min 10 sec) 
Heartbeat CPU 0 instructions: 460000000 cycles: 1082634990 heartbeat IPC: 0.361041 cumulative IPC: 0.354935 (Simulation time: 0 hr 19 min 38 sec) 
Heartbeat CPU 0 instructions: 470000000 cycles: 1110268482 heartbeat IPC: 0.36188 cumulative IPC: 0.355119 (Simulation time: 0 hr 20 min 5 sec) 
Heartbeat CPU 0 instructions: 480000000 cycles: 1138149480 heartbeat IPC: 0.358667 cumulative IPC: 0.355211 (Simulation time: 0 hr 20 min 33 sec) 
Heartbeat CPU 0 instructions: 490000000 cycles: 1165744375 heartbeat IPC: 0.362386 cumulative IPC: 0.355392 (Simulation time: 0 hr 21 min 0 sec) 
Heartbeat CPU 0 instructions: 500000000 cycles: 1194041749 heartbeat IPC: 0.35339 cumulative IPC: 0.355341 (Simulation time: 0 hr 21 min 28 sec) 
Heartbeat CPU 0 instructions: 510000000 cycles: 1228798740 heartbeat IPC: 0.287712 cumulative IPC: 0.353316 (Simulation time: 0 hr 21 min 59 sec) 
Heartbeat CPU 0 instructions: 520000000 cycles: 1256605666 heartbeat IPC: 0.359623 cumulative IPC: 0.353463 (Simulation time: 0 hr 22 min 27 sec) 
Heartbeat CPU 0 instructions: 530000001 cycles: 1286010139 heartbeat IPC: 0.340084 cumulative IPC: 0.35314 (Simulation time: 0 hr 22 min 56 sec) 
Heartbeat CPU 0 instructions: 540000000 cycles: 1314081404 heartbeat IPC: 0.356236 cumulative IPC: 0.35321 (Simulation time: 0 hr 23 min 24 sec) 
Heartbeat CPU 0 instructions: 550000001 cycles: 1343311295 heartbeat IPC: 0.342116 cumulative IPC: 0.352956 (Simulation time: 0 hr 23 min 54 sec) 
Heartbeat CPU 0 instructions: 560000000 cycles: 1368692485 heartbeat IPC: 0.393993 cumulative IPC: 0.353757 (Simulation time: 0 hr 24 min 22 sec) 
Heartbeat CPU 0 instructions: 570000000 cycles: 1398224811 heartbeat IPC: 0.338612 cumulative IPC: 0.35342 (Simulation time: 0 hr 24 min 51 sec) 
Heartbeat CPU 0 instructions: 580000000 cycles: 1426183335 heartbeat IPC: 0.357673 cumulative IPC: 0.353508 (Simulation time: 0 hr 25 min 20 sec) 
Heartbeat CPU 0 instructions: 590000001 cycles: 1450930519 heartbeat IPC: 0.404086 cumulative IPC: 0.354413 (Simulation time: 0 hr 25 min 47 sec) 
Heartbeat CPU 0 instructions: 600000000 cycles: 1477038783 heartbeat IPC: 0.38302 cumulative IPC: 0.354943 (Simulation time: 0 hr 26 min 15 sec) 
Finished CPU 0 instructions: 500000000 cycles: 1408675159 cumulative IPC: 0.354943 (Simulation time: 0 hr 26 min 15 sec) 

CPU 0 Branch Prediction Accuracy: 86.4311% MPKI: 26.2662
Number of Branches: 96788573 Number of Mispredictions: 13133102
Number of LOAD Instructions: 164682285
Number of LOAD Instructions (ROI): 164682285
Number of STORE Instructions: 78194750
Number of STORE Instructions (ROI): 78194750
Total Destination Memory Operands: 83268534
Total Destination Memory Operands (ROI): 83268534
Total Source Memory Operands: 164712438
Total Source Memory Operands (ROI): 164712438
Number of DEPENDED LOADS: 7059432
Number of DEPENDED LOADS (ROI): 7059432
Number of SQ_ADDED: 83268522
Number of SQ_ADDED (ROI): 83268522
Number of LQ_ADDED: 236697582
Number of LQ_ADDED (ROI): 236697582
Number of Instructions read from trace: 600000066

ChampSim completed all CPUs

Region of Interest Statistics

CPU 0 cumulative IPC: 0.354943 instructions: 500000000 cycles: 1408675159
ITLB TOTAL     ACCESS:  100513576  HIT:  100309130  MISS:     204446
ITLB LOAD      ACCESS:  100513576  HIT:  100309130  MISS:     204446
ITLB RFO       ACCESS:          0  HIT:          0  MISS:          0
ITLB PREFETCH  ACCESS:          0  HIT:          0  MISS:          0
ITLB WRITEBACK ACCESS:          0  HIT:          0  MISS:          0
ITLB PREFETCH  REQUESTED:          0  ISSUED:          0  USEFUL:          0  USELESS:          0
ITLB TOTAL MSHR MERGED:     172424
ITLB LOAD MSHR MERGED:     172424
ITLB RFO MSHR MERGED:          0
ITLB PREFETCH MSHR MERGED:          0
ITLB WRITEBACK MSHR MERGED:          0
ITLB TOTAL ACCESSES:  100686000 HITS:  100309130 MISSES:     376870
ITLB LOAD ACCESSES:  100686000 HITS:  100309130 MISSES:     376870
ITLB RFO ACCESSES:          0 HITS:          0 MISSES:          0
ITLB PREFETCH ACCESSES:          0 HITS:          0 MISSES:          0
ITLB WRITEBACK ACCESSES:          0 HITS:          0 MISSES:          0
ITLB RQ ACCESS:  500000057
ITLB RQ TO_CACHE:  100686000
ITLB RQ MERGED:  399314057
ITLB RQ FORWARD:          0
ITLB WQ ACCESS:          0
ITLB WQ TO_CACHE:          0
ITLB WQ MERGED:          0
ITLB WQ FORWARD:          0
DTLB TOTAL     ACCESS:  165336520  HIT:  164702170  MISS:     634350
DTLB LOAD      ACCESS:  106292186  HIT:  105722235  MISS:     569951
DTLB RFO       ACCESS:   59044334  HIT:   58979935  MISS:      64399
DTLB PREFETCH  ACCESS:          0  HIT:          0  MISS:          0
DTLB WRITEBACK ACCESS:          0  HIT:          0  MISS:          0
DTLB PREFETCH  REQUESTED:          0  ISSUED:          0  USEFUL:          0  USELESS:          0
DTLB TOTAL MSHR MERGED:      99990
DTLB LOAD MSHR MERGED:      59446
DTLB RFO MSHR MERGED:      40544
DTLB PREFETCH MSHR MERGED:          0
DTLB WRITEBACK MSHR MERGED:          0
DTLB TOTAL ACCESSES:  165436510 HITS:  164702170 MISSES:     734340
DTLB LOAD ACCESSES:  106351632 HITS:  105722235 MISSES:     629397
DTLB RFO ACCESSES:   59084878 HITS:   58979935 MISSES:     104943
DTLB PREFETCH ACCESSES:          0 HITS:          0 MISSES:          0
DTLB WRITEBACK ACCESSES:          0 HITS:          0 MISSES:          0
DTLB RQ ACCESS:  200311449
DTLB RQ TO_CACHE:  165436510
DTLB RQ MERGED:   34874939
DTLB RQ FORWARD:          0
DTLB WQ ACCESS:          0
DTLB WQ TO_CACHE:          0
DTLB WQ MERGED:          0
DTLB WQ FORWARD:          0
L1D TOTAL     ACCESS:  281831710  HIT:  273922392  MISS:    7909318
L1D LOAD      ACCESS:  110417595  HIT:  107139769  MISS:    3277826
L1D RFO       ACCESS:   67116522  HIT:   66225890  MISS:     890632
L1D PREFETCH  ACCESS:  104297593  HIT:  100556733  MISS:    3740860
L1D WRITEBACK ACCESS:          0  HIT:          0  MISS:          0
L1D PREFETCH  REQUESTED:  110817019  ISSUED:  109117714  USEFUL:    1661594  USELESS:    2079230
L1D TOTAL MSHR MERGED:    2872026
L1D LOAD MSHR MERGED:     496699
L1D RFO MSHR MERGED:    1869499
L1D PREFETCH MSHR MERGED:     505828
L1D WRITEBACK MSHR MERGED:          0
L1D TOTAL ACCESSES:  284731201 HITS:  273949857 MISSES:   10781344
L1D LOAD ACCESSES:  110818481 HITS:  107141231 MISSES:    3677250
L1D RFO ACCESSES:   68974190 HITS:   66225890 MISSES:    2748300
L1D PREFETCH ACCESSES:  104938530 HITS:  100582736 MISSES:    4355794
L1D WRITEBACK ACCESSES:          0 HITS:          0 MISSES:          0
L1D RQ ACCESS:  130758846
L1D RQ TO_CACHE:  110817022
L1D RQ MERGED:   19940362
L1D RQ FORWARD:          0
L1D WQ ACCESS:   69552603
L1D WQ TO_CACHE:   68974191
L1D WQ MERGED:     578412
L1D WQ FORWARD:      27465
L1I TOTAL     ACCESS:  126561263  HIT:  122322709  MISS:    4238554
L1I LOAD      ACCESS:  126561263  HIT:  122322709  MISS:    4238554
L1I RFO       ACCESS:          0  HIT:          0  MISS:          0
L1I PREFETCH  ACCESS:          0  HIT:          0  MISS:          0
L1I WRITEBACK ACCESS:          0  HIT:          0  MISS:          0
L1I PREFETCH  REQUESTED:          0  ISSUED:          0  USEFUL:          0  USELESS:          0
L1I TOTAL MSHR MERGED:    1834470
L1I LOAD MSHR MERGED:    1834470
L1I RFO MSHR MERGED:          0
L1I PREFETCH MSHR MERGED:          0
L1I WRITEBACK MSHR MERGED:          0
L1I TOTAL ACCESSES:  128395736 HITS:  122322709 MISSES:    6073027
L1I LOAD ACCESSES:  128395736 HITS:  122322709 MISSES:    6073027
L1I RFO ACCESSES:          0 HITS:          0 MISSES:          0
L1I PREFETCH ACCESSES:          0 HITS:          0 MISSES:          0
L1I WRITEBACK ACCESSES:          0 HITS:          0 MISSES:          0
L1I RQ ACCESS:  500000057
L1I RQ TO_CACHE:  128395736
L1I RQ MERGED:  371604321
L1I RQ FORWARD:          0
L1I WQ ACCESS:          0
L1I WQ TO_CACHE:          0
L1I WQ MERGED:          0
L1I WQ FORWARD:          0
L2C TOTAL     ACCESS:   14905039  HIT:   11158523  MISS:    3746516
L2C LOAD      ACCESS:    7418896  HIT:    5098830  MISS:    2320066
L2C RFO       ACCESS:     878703  HIT:     409900  MISS:     468803
L2C PREFETCH  ACCESS:    4568206  HIT:    3627815  MISS:     940391
L2C WRITEBACK ACCESS:    2039234  HIT:    2021978  MISS:      17256
L2C PREFETCH  REQUESTED:     842799  ISSUED:     842799  USEFUL:     203341  USELESS:     736756
L2C TOTAL MSHR MERGED:       7217
L2C LOAD MSHR MERGED:        811
L2C RFO MSHR MERGED:          0
L2C PREFETCH MSHR MERGED:       6406
L2C WRITEBACK MSHR MERGED:          0
L2C TOTAL ACCESSES:   14913168 HITS:   11158973 MISSES:    3754195
L2C LOAD ACCESSES:    7419105 HITS:    5099039 MISSES:    2320066
L2C RFO ACCESSES:     878801 HITS:     409998 MISSES:     468803
L2C PREFETCH ACCESSES:    4576028 HITS:    3627958 MISSES:     948070
L2C WRITEBACK ACCESSES:    2039234 HITS:    2021978 MISSES:      17256
L2C RQ ACCESS:    8297909
L2C RQ TO_CACHE:    8297602
L2C RQ MERGED:          0
L2C RQ FORWARD:          0
L2C WQ ACCESS:    2039234
L2C WQ TO_CACHE:    2039234
L2C WQ MERGED:          0
L2C WQ FORWARD:        450
LLC TOTAL     ACCESS:    4609877  HIT:    3968592  MISS:     641285
LLC LOAD      ACCESS:    2319241  HIT:    2087341  MISS:     231900
LLC RFO       ACCESS:     468793  HIT:     402575  MISS:      66218
LLC PREFETCH  ACCESS:     941540  HIT:     654824  MISS:     286716
LLC WRITEBACK ACCESS:     880303  HIT:     823852  MISS:      56451
LLC PREFETCH  REQUESTED:          0  ISSUED:          0  USEFUL:      15058  USELESS:     272222
LLC TOTAL MSHR MERGED:        108
LLC LOAD MSHR MERGED:         37
LLC RFO MSHR MERGED:          0
LLC PREFETCH MSHR MERGED:         71
LLC WRITEBACK MSHR MERGED:          0
LLC TOTAL ACCESSES:    4610019 HITS:    3968626 MISSES:     641393
LLC LOAD ACCESSES:    2319255 HITS:    2087355 MISSES:     231900
LLC RFO ACCESSES:     468803 HITS:     402585 MISSES:      66218
LLC PREFETCH ACCESSES:     941658 HITS:     654834 MISSES:     286824
LLC WRITEBACK ACCESSES:     880303 HITS:     823852 MISSES:      56451
LLC 0 RQ ACCESS:    2788058
LLC 0 RQ TO_CACHE:    2788034
LLC 0 RQ MERGED:          0
LLC 0 RQ FORWARD:          0
LLC WQ ACCESS:     880303
LLC WQ TO_CACHE:     880303
LLC WQ MERGED:          0
LLC WQ FORWARD:         34
Major fault: 0 Minor fault: 12862
CPU 0 L1D next line prefetcher final stats
CPU 0 L2C PC-based stride prefetcher final stats
All Misses: 762000
All Hits: 4664883
SD Algo Stats - Switches: 0 SRR-Repls: 273196 BRR-Repls: 0

DRAM Statistics
 CHANNEL 0
 RQ ROW_BUFFER_HIT:     114070  ROW_BUFFER_MISS:     470088
 DBUS_CONGESTED:     349938
 WQ ROW_BUFFER_HIT:      14333  ROW_BUFFER_MISS:     174052  FULL:          0

 AVG_CONGESTED_CYCLE: 13
LOADS RETIRED: 136549171
INSTR RETIRED: 500000000
