
*** ChampSim Multicore Out-of-Order Simulator ***

Warmup Instructions: 100000000
Simulation Instructions: 500000000
Number of CPUs: 1
LLC sets: 2048
LLC ways: 16
Clean RRIP Policies: 1213230112132301 Dirty RRIP Policies: 2213130122131301 PSEL Width: 10 Track Set: 4294967295 PSEL Mask: 1 Demote Mask: 3340101033401010DS Algo: 0Window size: 0
Off-chip DRAM Size: 4096 MB Channels: 1 Width: 64-bit Data Rate: 1600 MT/s

CPU 0 runs /mnt/beegfs/iconst01/spec2017/x264.trace.gz
NOT SORTED
TRACE STRING: /mnt/beegfs/iconst01/spec2017/x264.trace.gz
SORTED
TRACE STRING: /mnt/beegfs/iconst01/spec2017/x264.trace.gz
INITIAL
TRACE STRING: /mnt/beegfs/iconst01/spec2017/x264.trace.gz

champsim_seed used: 276

CPU 0 L1D next line prefetcher
CPU 0 L2C IP-based stride prefetcher
Initialize DRRIP state
Assign rand_sets[0]: 454  LLC: 2048
rand_sets[0]: 454
Assign rand_sets[1]: 1662  LLC: 2048
rand_sets[1]: 1662
Assign rand_sets[2]: 1921  LLC: 2048
rand_sets[2]: 1921
Assign rand_sets[3]: 1131  LLC: 2048
rand_sets[3]: 1131
Assign rand_sets[4]: 331  LLC: 2048
rand_sets[4]: 331
Assign rand_sets[5]: 1531  LLC: 2048
rand_sets[5]: 1531
Assign rand_sets[6]: 482  LLC: 2048
rand_sets[6]: 482
Assign rand_sets[7]: 1275  LLC: 2048
rand_sets[7]: 1275
Assign rand_sets[8]: 1876  LLC: 2048
rand_sets[8]: 1876
Assign rand_sets[9]: 2038  LLC: 2048
rand_sets[9]: 2038
Assign rand_sets[10]: 701  LLC: 2048
rand_sets[10]: 701
Assign rand_sets[11]: 479  LLC: 2048
rand_sets[11]: 479
Assign rand_sets[12]: 892  LLC: 2048
rand_sets[12]: 892
Assign rand_sets[13]: 1820  LLC: 2048
rand_sets[13]: 1820
Assign rand_sets[14]: 1505  LLC: 2048
rand_sets[14]: 1505
Assign rand_sets[15]: 1159  LLC: 2048
rand_sets[15]: 1159
Assign rand_sets[16]: 513  LLC: 2048
rand_sets[16]: 513
Assign rand_sets[17]: 703  LLC: 2048
rand_sets[17]: 703
Assign rand_sets[18]: 561  LLC: 2048
rand_sets[18]: 561
Assign rand_sets[19]: 990  LLC: 2048
rand_sets[19]: 990
Assign rand_sets[20]: 342  LLC: 2048
rand_sets[20]: 342
Assign rand_sets[21]: 882  LLC: 2048
rand_sets[21]: 882
Assign rand_sets[22]: 15  LLC: 2048
rand_sets[22]: 15
Assign rand_sets[23]: 71  LLC: 2048
rand_sets[23]: 71
Assign rand_sets[24]: 1127  LLC: 2048
rand_sets[24]: 1127
Assign rand_sets[25]: 1382  LLC: 2048
rand_sets[25]: 1382
Assign rand_sets[26]: 647  LLC: 2048
rand_sets[26]: 647
Assign rand_sets[27]: 857  LLC: 2048
rand_sets[27]: 857
Assign rand_sets[28]: 1450  LLC: 2048
rand_sets[28]: 1450
Assign rand_sets[29]: 1160  LLC: 2048
rand_sets[29]: 1160
Assign rand_sets[30]: 1852  LLC: 2048
rand_sets[30]: 1852
Assign rand_sets[31]: 1881  LLC: 2048
rand_sets[31]: 1881
Assign rand_sets[32]: 1770  LLC: 2048
rand_sets[32]: 1770
Assign rand_sets[33]: 1622  LLC: 2048
rand_sets[33]: 1622
Assign rand_sets[34]: 275  LLC: 2048
rand_sets[34]: 275
Assign rand_sets[35]: 635  LLC: 2048
rand_sets[35]: 635
Assign rand_sets[36]: 466  LLC: 2048
rand_sets[36]: 466
Assign rand_sets[37]: 1413  LLC: 2048
rand_sets[37]: 1413
Assign rand_sets[38]: 417  LLC: 2048
rand_sets[38]: 417
Assign rand_sets[39]: 472  LLC: 2048
rand_sets[39]: 472
Assign rand_sets[40]: 1340  LLC: 2048
rand_sets[40]: 1340
Assign rand_sets[41]: 852  LLC: 2048
rand_sets[41]: 852
Assign rand_sets[42]: 1365  LLC: 2048
rand_sets[42]: 1365
Assign rand_sets[43]: 47  LLC: 2048
rand_sets[43]: 47
Assign rand_sets[44]: 823  LLC: 2048
rand_sets[44]: 823
Assign rand_sets[45]: 686  LLC: 2048
rand_sets[45]: 686
Assign rand_sets[46]: 1637  LLC: 2048
rand_sets[46]: 1637
Assign rand_sets[47]: 1115  LLC: 2048
rand_sets[47]: 1115
Assign rand_sets[48]: 986  LLC: 2048
rand_sets[48]: 986
Assign rand_sets[49]: 258  LLC: 2048
rand_sets[49]: 258
Assign rand_sets[50]: 633  LLC: 2048
rand_sets[50]: 633
Assign rand_sets[51]: 920  LLC: 2048
rand_sets[51]: 920
Assign rand_sets[52]: 204  LLC: 2048
rand_sets[52]: 204
Assign rand_sets[53]: 227  LLC: 2048
rand_sets[53]: 227
Assign rand_sets[54]: 1818  LLC: 2048
rand_sets[54]: 1818
Assign rand_sets[55]: 886  LLC: 2048
rand_sets[55]: 886
Assign rand_sets[56]: 1422  LLC: 2048
rand_sets[56]: 1422
Assign rand_sets[57]: 607  LLC: 2048
rand_sets[57]: 607
Assign rand_sets[58]: 217  LLC: 2048
rand_sets[58]: 217
Assign rand_sets[59]: 1945  LLC: 2048
rand_sets[59]: 1945
Assign rand_sets[60]: 143  LLC: 2048
rand_sets[60]: 143
Assign rand_sets[61]: 1311  LLC: 2048
rand_sets[61]: 1311
Assign rand_sets[62]: 319  LLC: 2048
rand_sets[62]: 319
Assign rand_sets[63]: 1846  LLC: 2048
rand_sets[63]: 1846
 CLEAN-RRIP-POLICY-1: 1-2-1-3-2-3-0-1- CLEAN-RRIP-POLICY-2: 1-2-1-3-2-3-0-1-
 DIRTY-RRIP-POLICY-1: 2-2-1-3-1-3-0-1- DIRTY-RRIP-POLICY-2: 2-2-1-3-1-3-0-1-
 PSEL width: 10
Heartbeat CPU 0 instructions: 10000000 cycles: 4124759 heartbeat IPC: 2.42438 cumulative IPC: 2.42438 (Simulation time: 0 hr 0 min 14 sec) 
Heartbeat CPU 0 instructions: 20000000 cycles: 8233863 heartbeat IPC: 2.43362 cumulative IPC: 2.42899 (Simulation time: 0 hr 0 min 27 sec) 
Heartbeat CPU 0 instructions: 30000003 cycles: 12464696 heartbeat IPC: 2.3636 cumulative IPC: 2.4068 (Simulation time: 0 hr 0 min 40 sec) 
Heartbeat CPU 0 instructions: 40000000 cycles: 16636669 heartbeat IPC: 2.39695 cumulative IPC: 2.40433 (Simulation time: 0 hr 0 min 53 sec) 
Heartbeat CPU 0 instructions: 50000000 cycles: 20699131 heartbeat IPC: 2.46156 cumulative IPC: 2.41556 (Simulation time: 0 hr 1 min 6 sec) 
Heartbeat CPU 0 instructions: 60000000 cycles: 25022622 heartbeat IPC: 2.31295 cumulative IPC: 2.39783 (Simulation time: 0 hr 1 min 20 sec) 
Heartbeat CPU 0 instructions: 70000000 cycles: 29371021 heartbeat IPC: 2.2997 cumulative IPC: 2.3833 (Simulation time: 0 hr 1 min 32 sec) 
Heartbeat CPU 0 instructions: 80000000 cycles: 33721190 heartbeat IPC: 2.29876 cumulative IPC: 2.3724 (Simulation time: 0 hr 1 min 45 sec) 
Heartbeat CPU 0 instructions: 90000002 cycles: 38032199 heartbeat IPC: 2.31964 cumulative IPC: 2.36642 (Simulation time: 0 hr 1 min 58 sec) 
Heartbeat CPU 0 instructions: 100000000 cycles: 42329179 heartbeat IPC: 2.32722 cumulative IPC: 2.36244 (Simulation time: 0 hr 2 min 11 sec) 

Warmup complete CPU 0 instructions: 100000001 cycles: 42329180 (Simulation time: 0 hr 2 min 11 sec) 

Heartbeat CPU 0 instructions: 110000001 cycles: 49384207 heartbeat IPC: 1.41743 cumulative IPC: 1.41743 (Simulation time: 0 hr 2 min 28 sec) 
Heartbeat CPU 0 instructions: 120000000 cycles: 58883016 heartbeat IPC: 1.05276 cumulative IPC: 1.20818 (Simulation time: 0 hr 2 min 46 sec) 
Heartbeat CPU 0 instructions: 130000000 cycles: 63715783 heartbeat IPC: 2.06921 cumulative IPC: 1.40275 (Simulation time: 0 hr 3 min 3 sec) 
Heartbeat CPU 0 instructions: 140000000 cycles: 68665160 heartbeat IPC: 2.02046 cumulative IPC: 1.51883 (Simulation time: 0 hr 3 min 19 sec) 
Heartbeat CPU 0 instructions: 150000002 cycles: 75484786 heartbeat IPC: 1.46636 cumulative IPC: 1.50804 (Simulation time: 0 hr 3 min 36 sec) 
Heartbeat CPU 0 instructions: 160000000 cycles: 83306175 heartbeat IPC: 1.27855 cumulative IPC: 1.46424 (Simulation time: 0 hr 3 min 54 sec) 
Heartbeat CPU 0 instructions: 170000000 cycles: 90702212 heartbeat IPC: 1.35208 cumulative IPC: 1.44709 (Simulation time: 0 hr 4 min 11 sec) 
Heartbeat CPU 0 instructions: 180000000 cycles: 98005611 heartbeat IPC: 1.36923 cumulative IPC: 1.43687 (Simulation time: 0 hr 4 min 27 sec) 
Heartbeat CPU 0 instructions: 190000002 cycles: 105176809 heartbeat IPC: 1.39447 cumulative IPC: 1.43203 (Simulation time: 0 hr 4 min 44 sec) 
Heartbeat CPU 0 instructions: 200000000 cycles: 112412200 heartbeat IPC: 1.38209 cumulative IPC: 1.42688 (Simulation time: 0 hr 5 min 1 sec) 
Heartbeat CPU 0 instructions: 210000000 cycles: 119278474 heartbeat IPC: 1.45639 cumulative IPC: 1.42951 (Simulation time: 0 hr 5 min 17 sec) 
Heartbeat CPU 0 instructions: 220000000 cycles: 126051914 heartbeat IPC: 1.47635 cumulative IPC: 1.4333 (Simulation time: 0 hr 5 min 33 sec) 
Heartbeat CPU 0 instructions: 230000003 cycles: 132776210 heartbeat IPC: 1.48714 cumulative IPC: 1.43731 (Simulation time: 0 hr 5 min 49 sec) 
Heartbeat CPU 0 instructions: 240000000 cycles: 139520024 heartbeat IPC: 1.48284 cumulative IPC: 1.44046 (Simulation time: 0 hr 6 min 5 sec) 
Heartbeat CPU 0 instructions: 250000001 cycles: 146242355 heartbeat IPC: 1.48758 cumulative IPC: 1.44351 (Simulation time: 0 hr 6 min 21 sec) 
Heartbeat CPU 0 instructions: 260000000 cycles: 152944167 heartbeat IPC: 1.49213 cumulative IPC: 1.44646 (Simulation time: 0 hr 6 min 37 sec) 
Heartbeat CPU 0 instructions: 270000001 cycles: 159913015 heartbeat IPC: 1.43496 cumulative IPC: 1.44578 (Simulation time: 0 hr 6 min 54 sec) 
Heartbeat CPU 0 instructions: 280000000 cycles: 167442008 heartbeat IPC: 1.3282 cumulative IPC: 1.4387 (Simulation time: 0 hr 7 min 11 sec) 
Heartbeat CPU 0 instructions: 290000000 cycles: 175355652 heartbeat IPC: 1.26364 cumulative IPC: 1.42829 (Simulation time: 0 hr 7 min 28 sec) 
Heartbeat CPU 0 instructions: 300000000 cycles: 183531951 heartbeat IPC: 1.22305 cumulative IPC: 1.4164 (Simulation time: 0 hr 7 min 45 sec) 
Heartbeat CPU 0 instructions: 310000002 cycles: 191831741 heartbeat IPC: 1.20485 cumulative IPC: 1.40466 (Simulation time: 0 hr 8 min 3 sec) 
Heartbeat CPU 0 instructions: 320000000 cycles: 201839904 heartbeat IPC: 0.999184 cumulative IPC: 1.37922 (Simulation time: 0 hr 8 min 23 sec) 
Heartbeat CPU 0 instructions: 330000002 cycles: 206492318 heartbeat IPC: 2.14942 cumulative IPC: 1.40105 (Simulation time: 0 hr 8 min 39 sec) 
Heartbeat CPU 0 instructions: 340000000 cycles: 211758075 heartbeat IPC: 1.89906 cumulative IPC: 1.41652 (Simulation time: 0 hr 8 min 55 sec) 
Heartbeat CPU 0 instructions: 350000000 cycles: 218956086 heartbeat IPC: 1.38927 cumulative IPC: 1.41541 (Simulation time: 0 hr 9 min 13 sec) 
Heartbeat CPU 0 instructions: 360000000 cycles: 226609133 heartbeat IPC: 1.30667 cumulative IPC: 1.4109 (Simulation time: 0 hr 9 min 30 sec) 
Heartbeat CPU 0 instructions: 370000000 cycles: 234010073 heartbeat IPC: 1.35118 cumulative IPC: 1.40859 (Simulation time: 0 hr 9 min 47 sec) 
Heartbeat CPU 0 instructions: 380000000 cycles: 241281202 heartbeat IPC: 1.3753 cumulative IPC: 1.40737 (Simulation time: 0 hr 10 min 3 sec) 
Heartbeat CPU 0 instructions: 390000000 cycles: 249391615 heartbeat IPC: 1.23298 cumulative IPC: 1.40054 (Simulation time: 0 hr 10 min 21 sec) 
Heartbeat CPU 0 instructions: 400000000 cycles: 257589294 heartbeat IPC: 1.21986 cumulative IPC: 1.39366 (Simulation time: 0 hr 10 min 38 sec) 
Heartbeat CPU 0 instructions: 410000001 cycles: 265408327 heartbeat IPC: 1.27893 cumulative IPC: 1.38964 (Simulation time: 0 hr 10 min 56 sec) 
Heartbeat CPU 0 instructions: 420000000 cycles: 273456950 heartbeat IPC: 1.24245 cumulative IPC: 1.38452 (Simulation time: 0 hr 11 min 13 sec) 
Heartbeat CPU 0 instructions: 430000001 cycles: 281703384 heartbeat IPC: 1.21265 cumulative IPC: 1.37859 (Simulation time: 0 hr 11 min 31 sec) 
Heartbeat CPU 0 instructions: 440000000 cycles: 289736609 heartbeat IPC: 1.24483 cumulative IPC: 1.37425 (Simulation time: 0 hr 11 min 48 sec) 
Heartbeat CPU 0 instructions: 450000001 cycles: 297600610 heartbeat IPC: 1.27162 cumulative IPC: 1.37109 (Simulation time: 0 hr 12 min 5 sec) 
Heartbeat CPU 0 instructions: 460000000 cycles: 307534178 heartbeat IPC: 1.00669 cumulative IPC: 1.35744 (Simulation time: 0 hr 12 min 25 sec) 
Heartbeat CPU 0 instructions: 470000002 cycles: 312176289 heartbeat IPC: 2.15419 cumulative IPC: 1.37115 (Simulation time: 0 hr 12 min 41 sec) 
Heartbeat CPU 0 instructions: 480000000 cycles: 317464443 heartbeat IPC: 1.89102 cumulative IPC: 1.38114 (Simulation time: 0 hr 12 min 58 sec) 
Heartbeat CPU 0 instructions: 490000001 cycles: 324780329 heartbeat IPC: 1.36689 cumulative IPC: 1.38077 (Simulation time: 0 hr 13 min 16 sec) 
Heartbeat CPU 0 instructions: 500000000 cycles: 333508612 heartbeat IPC: 1.1457 cumulative IPC: 1.37372 (Simulation time: 0 hr 13 min 36 sec) 
Heartbeat CPU 0 instructions: 510000002 cycles: 342238987 heartbeat IPC: 1.14543 cumulative IPC: 1.36708 (Simulation time: 0 hr 13 min 55 sec) 
Heartbeat CPU 0 instructions: 520000000 cycles: 350966230 heartbeat IPC: 1.14584 cumulative IPC: 1.36082 (Simulation time: 0 hr 14 min 15 sec) 
Heartbeat CPU 0 instructions: 530000000 cycles: 359671874 heartbeat IPC: 1.14868 cumulative IPC: 1.355 (Simulation time: 0 hr 14 min 35 sec) 
Heartbeat CPU 0 instructions: 540000000 cycles: 367926960 heartbeat IPC: 1.21137 cumulative IPC: 1.35136 (Simulation time: 0 hr 14 min 54 sec) 
Heartbeat CPU 0 instructions: 550000000 cycles: 374963804 heartbeat IPC: 1.42109 cumulative IPC: 1.35284 (Simulation time: 0 hr 15 min 11 sec) 
Heartbeat CPU 0 instructions: 560000000 cycles: 381573216 heartbeat IPC: 1.51299 cumulative IPC: 1.35596 (Simulation time: 0 hr 15 min 28 sec) 
Heartbeat CPU 0 instructions: 570000002 cycles: 388160590 heartbeat IPC: 1.51806 cumulative IPC: 1.35904 (Simulation time: 0 hr 15 min 45 sec) 
Heartbeat CPU 0 instructions: 580000000 cycles: 394803019 heartbeat IPC: 1.50547 cumulative IPC: 1.3618 (Simulation time: 0 hr 16 min 2 sec) 
Heartbeat CPU 0 instructions: 590000002 cycles: 401491258 heartbeat IPC: 1.49516 cumulative IPC: 1.36429 (Simulation time: 0 hr 16 min 18 sec) 
Heartbeat CPU 0 instructions: 600000000 cycles: 408300541 heartbeat IPC: 1.46858 cumulative IPC: 1.36623 (Simulation time: 0 hr 16 min 35 sec) 
Finished CPU 0 instructions: 500000000 cycles: 365971369 cumulative IPC: 1.36623 (Simulation time: 0 hr 16 min 35 sec) 

CPU 0 Branch Prediction Accuracy: 93.4682% MPKI: 2.44079
Number of Branches: 18683822 Number of Mispredictions: 1220394
Number of LOAD Instructions: 142551610
Number of LOAD Instructions (ROI): 142551610
Number of STORE Instructions: 44807454
Number of STORE Instructions (ROI): 44807454
Total Destination Memory Operands: 48357071
Total Destination Memory Operands (ROI): 48357071
Total Source Memory Operands: 142551610
Total Source Memory Operands (ROI): 142551610
Number of DEPENDED LOADS: 7395049
Number of DEPENDED LOADS (ROI): 7395049
Number of SQ_ADDED: 48357051
Number of SQ_ADDED (ROI): 48357051
Number of LQ_ADDED: 157215978
Number of LQ_ADDED (ROI): 157215978
Number of Instructions read from trace: 600000256

ChampSim completed all CPUs

Region of Interest Statistics

CPU 0 cumulative IPC: 1.36623 instructions: 500000000 cycles: 365971369
ITLB TOTAL     ACCESS:   88177417  HIT:   88177348  MISS:         69
ITLB LOAD      ACCESS:   88177417  HIT:   88177348  MISS:         69
ITLB RFO       ACCESS:          0  HIT:          0  MISS:          0
ITLB PREFETCH  ACCESS:          0  HIT:          0  MISS:          0
ITLB WRITEBACK ACCESS:          0  HIT:          0  MISS:          0
ITLB PREFETCH  REQUESTED:          0  ISSUED:          0  USEFUL:          0  USELESS:          0
ITLB TOTAL MSHR MERGED:         85
ITLB LOAD MSHR MERGED:         85
ITLB RFO MSHR MERGED:          0
ITLB PREFETCH MSHR MERGED:          0
ITLB WRITEBACK MSHR MERGED:          0
ITLB TOTAL ACCESSES:   88177502 HITS:   88177348 MISSES:        154
ITLB LOAD ACCESSES:   88177502 HITS:   88177348 MISSES:        154
ITLB RFO ACCESSES:          0 HITS:          0 MISSES:          0
ITLB PREFETCH ACCESSES:          0 HITS:          0 MISSES:          0
ITLB WRITEBACK ACCESSES:          0 HITS:          0 MISSES:          0
ITLB RQ ACCESS:  500000000
ITLB RQ TO_CACHE:   88177502
ITLB RQ MERGED:  411822498
ITLB RQ FORWARD:          0
ITLB WQ ACCESS:          0
ITLB WQ TO_CACHE:          0
ITLB WQ MERGED:          0
ITLB WQ FORWARD:          0
DTLB TOTAL     ACCESS:   88203889  HIT:   88076473  MISS:     127416
DTLB LOAD      ACCESS:   59485772  HIT:   59393310  MISS:      92462
DTLB RFO       ACCESS:   28718117  HIT:   28683163  MISS:      34954
DTLB PREFETCH  ACCESS:          0  HIT:          0  MISS:          0
DTLB WRITEBACK ACCESS:          0  HIT:          0  MISS:          0
DTLB PREFETCH  REQUESTED:          0  ISSUED:          0  USEFUL:          0  USELESS:          0
DTLB TOTAL MSHR MERGED:     140853
DTLB LOAD MSHR MERGED:     107562
DTLB RFO MSHR MERGED:      33291
DTLB PREFETCH MSHR MERGED:          0
DTLB WRITEBACK MSHR MERGED:          0
DTLB TOTAL ACCESSES:   88344742 HITS:   88076473 MISSES:     268269
DTLB LOAD ACCESSES:   59593334 HITS:   59393310 MISSES:     200024
DTLB RFO ACCESSES:   28751408 HITS:   28683163 MISSES:      68245
DTLB PREFETCH ACCESSES:          0 HITS:          0 MISSES:          0
DTLB WRITEBACK ACCESSES:          0 HITS:          0 MISSES:          0
DTLB RQ ACCESS:  154558845
DTLB RQ TO_CACHE:   88344742
DTLB RQ MERGED:   66214103
DTLB RQ FORWARD:          0
DTLB WQ ACCESS:          0
DTLB WQ TO_CACHE:          0
DTLB WQ MERGED:          0
DTLB WQ FORWARD:          0
L1D TOTAL     ACCESS:  127880347  HIT:  124654844  MISS:    3225503
L1D LOAD      ACCESS:   53172664  HIT:   51977227  MISS:    1195437
L1D RFO       ACCESS:   37340705  HIT:   36726392  MISS:     614313
L1D PREFETCH  ACCESS:   37366978  HIT:   35951225  MISS:    1415753
L1D WRITEBACK ACCESS:          0  HIT:          0  MISS:          0
L1D PREFETCH  REQUESTED:   53658183  ISSUED:   52457813  USEFUL:     352023  USELESS:    1063695
L1D TOTAL MSHR MERGED:    2967123
L1D LOAD MSHR MERGED:     524299
L1D RFO MSHR MERGED:    1613439
L1D PREFETCH MSHR MERGED:     829385
L1D WRITEBACK MSHR MERGED:          0
L1D TOTAL ACCESSES:  130882069 HITS:  124689443 MISSES:    6192626
L1D LOAD ACCESSES:   53660788 HITS:   51979832 MISSES:    1680956
L1D RFO ACCESSES:   38952885 HITS:   36726392 MISSES:    2226493
L1D PREFETCH ACCESSES:   38268396 HITS:   35983219 MISSES:    2285177
L1D WRITEBACK ACCESSES:          0 HITS:          0 MISSES:          0
L1D RQ ACCESS:  113713953
L1D RQ TO_CACHE:   53658183
L1D RQ MERGED:   60053165
L1D RQ FORWARD:          0
L1D WQ ACCESS:   40844891
L1D WQ TO_CACHE:   38952885
L1D WQ MERGED:    1892006
L1D WQ FORWARD:      34599
L1I TOTAL     ACCESS:  108368878  HIT:  107809743  MISS:     559135
L1I LOAD      ACCESS:  108368878  HIT:  107809743  MISS:     559135
L1I RFO       ACCESS:          0  HIT:          0  MISS:          0
L1I PREFETCH  ACCESS:          0  HIT:          0  MISS:          0
L1I WRITEBACK ACCESS:          0  HIT:          0  MISS:          0
L1I PREFETCH  REQUESTED:          0  ISSUED:          0  USEFUL:          0  USELESS:          0
L1I TOTAL MSHR MERGED:     525757
L1I LOAD MSHR MERGED:     525757
L1I RFO MSHR MERGED:          0
L1I PREFETCH MSHR MERGED:          0
L1I WRITEBACK MSHR MERGED:          0
L1I TOTAL ACCESSES:  108894635 HITS:  107809743 MISSES:    1084892
L1I LOAD ACCESSES:  108894635 HITS:  107809743 MISSES:    1084892
L1I RFO ACCESSES:          0 HITS:          0 MISSES:          0
L1I PREFETCH ACCESSES:          0 HITS:          0 MISSES:          0
L1I WRITEBACK ACCESSES:          0 HITS:          0 MISSES:          0
L1I RQ ACCESS:  500000002
L1I RQ TO_CACHE:  108894635
L1I RQ MERGED:  391105367
L1I RQ FORWARD:          0
L1I WQ ACCESS:          0
L1I WQ TO_CACHE:          0
L1I WQ MERGED:          0
L1I WQ FORWARD:          0
L2C TOTAL     ACCESS:    4691376  HIT:    3865468  MISS:     825908
L2C LOAD      ACCESS:    1715679  HIT:    1562392  MISS:     153287
L2C RFO       ACCESS:     611633  HIT:     421182  MISS:     190451
L2C PREFETCH  ACCESS:    1661116  HIT:    1181131  MISS:     479985
L2C WRITEBACK ACCESS:     702948  HIT:     700763  MISS:       2185
L2C PREFETCH  REQUESTED:     256373  ISSUED:     256373  USEFUL:     172743  USELESS:     307908
L2C TOTAL MSHR MERGED:      13175
L2C LOAD MSHR MERGED:       4065
L2C RFO MSHR MERGED:          0
L2C PREFETCH MSHR MERGED:       9110
L2C WRITEBACK MSHR MERGED:          0
L2C TOTAL ACCESSES:    4712361 HITS:    3867071 MISSES:     845290
L2C LOAD ACCESSES:    1715792 HITS:    1562505 MISSES:     153287
L2C RFO ACCESSES:     613054 HITS:     422603 MISSES:     190451
L2C PREFETCH ACCESSES:    1680567 HITS:    1181200 MISSES:     499367
L2C WRITEBACK ACCESSES:     702948 HITS:     700763 MISSES:       2185
L2C RQ ACCESS:    2328846
L2C RQ TO_CACHE:    2327312
L2C RQ MERGED:          0
L2C RQ FORWARD:          0
L2C WQ ACCESS:     702948
L2C WQ TO_CACHE:     702948
L2C WQ MERGED:          0
L2C WQ FORWARD:       1603
LLC TOTAL     ACCESS:    1047609  HIT:     232763  MISS:     814846
LLC LOAD      ACCESS:     149219  HIT:      86819  MISS:      62400
LLC RFO       ACCESS:     190443  HIT:       7140  MISS:     183303
LLC PREFETCH  ACCESS:     487072  HIT:     102248  MISS:     384824
LLC WRITEBACK ACCESS:     220875  HIT:      36556  MISS:     184319
LLC PREFETCH  REQUESTED:          0  ISSUED:          0  USEFUL:       2020  USELESS:     383236
LLC TOTAL MSHR MERGED:       2339
LLC LOAD MSHR MERGED:        925
LLC RFO MSHR MERGED:          0
LLC PREFETCH MSHR MERGED:       1414
LLC WRITEBACK MSHR MERGED:          0
LLC TOTAL ACCESSES:    1049959 HITS:     232774 MISSES:     817185
LLC LOAD ACCESSES:     149222 HITS:      86822 MISSES:      62400
LLC RFO ACCESSES:     190451 HITS:       7148 MISSES:     183303
LLC PREFETCH ACCESSES:     489411 HITS:     102248 MISSES:     387163
LLC WRITEBACK ACCESSES:     220875 HITS:      36556 MISSES:     184319
LLC 0 RQ ACCESS:     339673
LLC 0 RQ TO_CACHE:     339662
LLC 0 RQ MERGED:          0
LLC 0 RQ FORWARD:          0
LLC WQ ACCESS:     220875
LLC WQ TO_CACHE:     220875
LLC WQ MERGED:          0
LLC WQ FORWARD:         11
Major fault: 0 Minor fault: 6811
CPU 0 L1D next line prefetcher final stats
CPU 0 L2C PC-based stride prefetcher final stats
All Misses: 955306
All Hits: 299286
SD Algo Stats - Switches: 0 SRR-Repls: 69732 BRR-Repls: 0

DRAM Statistics
 CHANNEL 0
 RQ ROW_BUFFER_HIT:     332366  ROW_BUFFER_MISS:     298036
 DBUS_CONGESTED:     437998
 WQ ROW_BUFFER_HIT:      32529  ROW_BUFFER_MISS:     183626  FULL:          0

 AVG_CONGESTED_CYCLE: 13
LOADS RETIRED: 119922929
INSTR RETIRED: 500000000
