
*** ChampSim Multicore Out-of-Order Simulator ***

Warmup Instructions: 100000000
Simulation Instructions: 500000000
Number of CPUs: 1
LLC sets: 2048
LLC ways: 16
Clean RRIP Policies: 2213230022132300 Dirty RRIP Policies: 1203130012031300 PSEL Width: 10 Track Set: 4294967295 PSEL Mask: 1 Demote Mask: 1040100010401000DS Algo: 0Window size: 0
Off-chip DRAM Size: 4096 MB Channels: 1 Width: 64-bit Data Rate: 1600 MT/s

CPU 0 runs /mnt/beegfs/iconst01/spec2017/x264.trace.gz
NOT SORTED
TRACE STRING: /mnt/beegfs/iconst01/spec2017/x264.trace.gz
SORTED
TRACE STRING: /mnt/beegfs/iconst01/spec2017/x264.trace.gz
INITIAL
TRACE STRING: /mnt/beegfs/iconst01/spec2017/x264.trace.gz

champsim_seed used: 276

CPU 0 L1D next line prefetcher
CPU 0 L2C IP-based stride prefetcher
Initialize DRRIP state
Assign rand_sets[0]: 454  LLC: 2048
rand_sets[0]: 454
Assign rand_sets[1]: 1662  LLC: 2048
rand_sets[1]: 1662
Assign rand_sets[2]: 1921  LLC: 2048
rand_sets[2]: 1921
Assign rand_sets[3]: 1131  LLC: 2048
rand_sets[3]: 1131
Assign rand_sets[4]: 331  LLC: 2048
rand_sets[4]: 331
Assign rand_sets[5]: 1531  LLC: 2048
rand_sets[5]: 1531
Assign rand_sets[6]: 482  LLC: 2048
rand_sets[6]: 482
Assign rand_sets[7]: 1275  LLC: 2048
rand_sets[7]: 1275
Assign rand_sets[8]: 1876  LLC: 2048
rand_sets[8]: 1876
Assign rand_sets[9]: 2038  LLC: 2048
rand_sets[9]: 2038
Assign rand_sets[10]: 701  LLC: 2048
rand_sets[10]: 701
Assign rand_sets[11]: 479  LLC: 2048
rand_sets[11]: 479
Assign rand_sets[12]: 892  LLC: 2048
rand_sets[12]: 892
Assign rand_sets[13]: 1820  LLC: 2048
rand_sets[13]: 1820
Assign rand_sets[14]: 1505  LLC: 2048
rand_sets[14]: 1505
Assign rand_sets[15]: 1159  LLC: 2048
rand_sets[15]: 1159
Assign rand_sets[16]: 513  LLC: 2048
rand_sets[16]: 513
Assign rand_sets[17]: 703  LLC: 2048
rand_sets[17]: 703
Assign rand_sets[18]: 561  LLC: 2048
rand_sets[18]: 561
Assign rand_sets[19]: 990  LLC: 2048
rand_sets[19]: 990
Assign rand_sets[20]: 342  LLC: 2048
rand_sets[20]: 342
Assign rand_sets[21]: 882  LLC: 2048
rand_sets[21]: 882
Assign rand_sets[22]: 15  LLC: 2048
rand_sets[22]: 15
Assign rand_sets[23]: 71  LLC: 2048
rand_sets[23]: 71
Assign rand_sets[24]: 1127  LLC: 2048
rand_sets[24]: 1127
Assign rand_sets[25]: 1382  LLC: 2048
rand_sets[25]: 1382
Assign rand_sets[26]: 647  LLC: 2048
rand_sets[26]: 647
Assign rand_sets[27]: 857  LLC: 2048
rand_sets[27]: 857
Assign rand_sets[28]: 1450  LLC: 2048
rand_sets[28]: 1450
Assign rand_sets[29]: 1160  LLC: 2048
rand_sets[29]: 1160
Assign rand_sets[30]: 1852  LLC: 2048
rand_sets[30]: 1852
Assign rand_sets[31]: 1881  LLC: 2048
rand_sets[31]: 1881
Assign rand_sets[32]: 1770  LLC: 2048
rand_sets[32]: 1770
Assign rand_sets[33]: 1622  LLC: 2048
rand_sets[33]: 1622
Assign rand_sets[34]: 275  LLC: 2048
rand_sets[34]: 275
Assign rand_sets[35]: 635  LLC: 2048
rand_sets[35]: 635
Assign rand_sets[36]: 466  LLC: 2048
rand_sets[36]: 466
Assign rand_sets[37]: 1413  LLC: 2048
rand_sets[37]: 1413
Assign rand_sets[38]: 417  LLC: 2048
rand_sets[38]: 417
Assign rand_sets[39]: 472  LLC: 2048
rand_sets[39]: 472
Assign rand_sets[40]: 1340  LLC: 2048
rand_sets[40]: 1340
Assign rand_sets[41]: 852  LLC: 2048
rand_sets[41]: 852
Assign rand_sets[42]: 1365  LLC: 2048
rand_sets[42]: 1365
Assign rand_sets[43]: 47  LLC: 2048
rand_sets[43]: 47
Assign rand_sets[44]: 823  LLC: 2048
rand_sets[44]: 823
Assign rand_sets[45]: 686  LLC: 2048
rand_sets[45]: 686
Assign rand_sets[46]: 1637  LLC: 2048
rand_sets[46]: 1637
Assign rand_sets[47]: 1115  LLC: 2048
rand_sets[47]: 1115
Assign rand_sets[48]: 986  LLC: 2048
rand_sets[48]: 986
Assign rand_sets[49]: 258  LLC: 2048
rand_sets[49]: 258
Assign rand_sets[50]: 633  LLC: 2048
rand_sets[50]: 633
Assign rand_sets[51]: 920  LLC: 2048
rand_sets[51]: 920
Assign rand_sets[52]: 204  LLC: 2048
rand_sets[52]: 204
Assign rand_sets[53]: 227  LLC: 2048
rand_sets[53]: 227
Assign rand_sets[54]: 1818  LLC: 2048
rand_sets[54]: 1818
Assign rand_sets[55]: 886  LLC: 2048
rand_sets[55]: 886
Assign rand_sets[56]: 1422  LLC: 2048
rand_sets[56]: 1422
Assign rand_sets[57]: 607  LLC: 2048
rand_sets[57]: 607
Assign rand_sets[58]: 217  LLC: 2048
rand_sets[58]: 217
Assign rand_sets[59]: 1945  LLC: 2048
rand_sets[59]: 1945
Assign rand_sets[60]: 143  LLC: 2048
rand_sets[60]: 143
Assign rand_sets[61]: 1311  LLC: 2048
rand_sets[61]: 1311
Assign rand_sets[62]: 319  LLC: 2048
rand_sets[62]: 319
Assign rand_sets[63]: 1846  LLC: 2048
rand_sets[63]: 1846
 CLEAN-RRIP-POLICY-1: 2-2-1-3-2-3-0-0- CLEAN-RRIP-POLICY-2: 2-2-1-3-2-3-0-0-
 DIRTY-RRIP-POLICY-1: 1-2-0-3-1-3-0-0- DIRTY-RRIP-POLICY-2: 1-2-0-3-1-3-0-0-
 PSEL width: 10
Heartbeat CPU 0 instructions: 10000000 cycles: 4124759 heartbeat IPC: 2.42438 cumulative IPC: 2.42438 (Simulation time: 0 hr 0 min 14 sec) 
Heartbeat CPU 0 instructions: 20000000 cycles: 8233863 heartbeat IPC: 2.43362 cumulative IPC: 2.42899 (Simulation time: 0 hr 0 min 27 sec) 
Heartbeat CPU 0 instructions: 30000003 cycles: 12464696 heartbeat IPC: 2.3636 cumulative IPC: 2.4068 (Simulation time: 0 hr 0 min 40 sec) 
Heartbeat CPU 0 instructions: 40000000 cycles: 16636669 heartbeat IPC: 2.39695 cumulative IPC: 2.40433 (Simulation time: 0 hr 0 min 53 sec) 
Heartbeat CPU 0 instructions: 50000000 cycles: 20699150 heartbeat IPC: 2.46155 cumulative IPC: 2.41556 (Simulation time: 0 hr 1 min 7 sec) 
Heartbeat CPU 0 instructions: 60000000 cycles: 25022637 heartbeat IPC: 2.31295 cumulative IPC: 2.39783 (Simulation time: 0 hr 1 min 20 sec) 
Heartbeat CPU 0 instructions: 70000000 cycles: 29370892 heartbeat IPC: 2.29977 cumulative IPC: 2.38331 (Simulation time: 0 hr 1 min 33 sec) 
Heartbeat CPU 0 instructions: 80000000 cycles: 33721014 heartbeat IPC: 2.29879 cumulative IPC: 2.37241 (Simulation time: 0 hr 1 min 46 sec) 
Heartbeat CPU 0 instructions: 90000002 cycles: 38031994 heartbeat IPC: 2.31966 cumulative IPC: 2.36643 (Simulation time: 0 hr 1 min 59 sec) 
Heartbeat CPU 0 instructions: 100000000 cycles: 42328905 heartbeat IPC: 2.32725 cumulative IPC: 2.36245 (Simulation time: 0 hr 2 min 12 sec) 

Warmup complete CPU 0 instructions: 100000001 cycles: 42328906 (Simulation time: 0 hr 2 min 12 sec) 

Heartbeat CPU 0 instructions: 110000001 cycles: 49376701 heartbeat IPC: 1.41888 cumulative IPC: 1.41888 (Simulation time: 0 hr 2 min 28 sec) 
Heartbeat CPU 0 instructions: 120000000 cycles: 58866148 heartbeat IPC: 1.0538 cumulative IPC: 1.20939 (Simulation time: 0 hr 2 min 47 sec) 
Heartbeat CPU 0 instructions: 130000000 cycles: 63684636 heartbeat IPC: 2.07534 cumulative IPC: 1.40478 (Simulation time: 0 hr 3 min 4 sec) 
Heartbeat CPU 0 instructions: 140000000 cycles: 68591543 heartbeat IPC: 2.03794 cumulative IPC: 1.52308 (Simulation time: 0 hr 3 min 20 sec) 
Heartbeat CPU 0 instructions: 150000002 cycles: 75421790 heartbeat IPC: 1.46408 cumulative IPC: 1.5109 (Simulation time: 0 hr 3 min 38 sec) 
Heartbeat CPU 0 instructions: 160000000 cycles: 83252814 heartbeat IPC: 1.27697 cumulative IPC: 1.46614 (Simulation time: 0 hr 3 min 56 sec) 
Heartbeat CPU 0 instructions: 170000000 cycles: 90650926 heartbeat IPC: 1.3517 cumulative IPC: 1.44861 (Simulation time: 0 hr 4 min 13 sec) 
Heartbeat CPU 0 instructions: 180000000 cycles: 97956402 heartbeat IPC: 1.36884 cumulative IPC: 1.43814 (Simulation time: 0 hr 4 min 30 sec) 
Heartbeat CPU 0 instructions: 190000002 cycles: 105129729 heartbeat IPC: 1.39405 cumulative IPC: 1.4331 (Simulation time: 0 hr 4 min 47 sec) 
Heartbeat CPU 0 instructions: 200000000 cycles: 112360536 heartbeat IPC: 1.38297 cumulative IPC: 1.42793 (Simulation time: 0 hr 5 min 4 sec) 
Heartbeat CPU 0 instructions: 210000000 cycles: 119229984 heartbeat IPC: 1.45572 cumulative IPC: 1.43041 (Simulation time: 0 hr 5 min 20 sec) 
Heartbeat CPU 0 instructions: 220000000 cycles: 125997751 heartbeat IPC: 1.47759 cumulative IPC: 1.43423 (Simulation time: 0 hr 5 min 37 sec) 
Heartbeat CPU 0 instructions: 230000003 cycles: 132726835 heartbeat IPC: 1.48609 cumulative IPC: 1.43809 (Simulation time: 0 hr 5 min 53 sec) 
Heartbeat CPU 0 instructions: 240000000 cycles: 139472074 heartbeat IPC: 1.48253 cumulative IPC: 1.44117 (Simulation time: 0 hr 6 min 9 sec) 
Heartbeat CPU 0 instructions: 250000001 cycles: 146200132 heartbeat IPC: 1.48631 cumulative IPC: 1.4441 (Simulation time: 0 hr 6 min 26 sec) 
Heartbeat CPU 0 instructions: 260000000 cycles: 152905214 heartbeat IPC: 1.49141 cumulative IPC: 1.44696 (Simulation time: 0 hr 6 min 42 sec) 
Heartbeat CPU 0 instructions: 270000001 cycles: 159882447 heartbeat IPC: 1.43323 cumulative IPC: 1.44615 (Simulation time: 0 hr 6 min 59 sec) 
Heartbeat CPU 0 instructions: 280000000 cycles: 167415572 heartbeat IPC: 1.32747 cumulative IPC: 1.439 (Simulation time: 0 hr 7 min 16 sec) 
Heartbeat CPU 0 instructions: 290000000 cycles: 175339944 heartbeat IPC: 1.26193 cumulative IPC: 1.42845 (Simulation time: 0 hr 7 min 34 sec) 
Heartbeat CPU 0 instructions: 300000000 cycles: 183517712 heartbeat IPC: 1.22283 cumulative IPC: 1.41654 (Simulation time: 0 hr 7 min 51 sec) 
Heartbeat CPU 0 instructions: 310000002 cycles: 191831884 heartbeat IPC: 1.20277 cumulative IPC: 1.40465 (Simulation time: 0 hr 8 min 9 sec) 
Heartbeat CPU 0 instructions: 320000000 cycles: 201823367 heartbeat IPC: 1.00085 cumulative IPC: 1.37936 (Simulation time: 0 hr 8 min 29 sec) 
Heartbeat CPU 0 instructions: 330000002 cycles: 206463074 heartbeat IPC: 2.15531 cumulative IPC: 1.40129 (Simulation time: 0 hr 8 min 46 sec) 
Heartbeat CPU 0 instructions: 340000000 cycles: 211673796 heartbeat IPC: 1.91912 cumulative IPC: 1.41723 (Simulation time: 0 hr 9 min 2 sec) 
Heartbeat CPU 0 instructions: 350000000 cycles: 218891512 heartbeat IPC: 1.38548 cumulative IPC: 1.41593 (Simulation time: 0 hr 9 min 20 sec) 
Heartbeat CPU 0 instructions: 360000000 cycles: 226546928 heartbeat IPC: 1.30626 cumulative IPC: 1.41137 (Simulation time: 0 hr 9 min 37 sec) 
Heartbeat CPU 0 instructions: 370000000 cycles: 233957515 heartbeat IPC: 1.34942 cumulative IPC: 1.40898 (Simulation time: 0 hr 9 min 55 sec) 
Heartbeat CPU 0 instructions: 380000000 cycles: 241228473 heartbeat IPC: 1.37533 cumulative IPC: 1.40775 (Simulation time: 0 hr 10 min 12 sec) 
Heartbeat CPU 0 instructions: 390000000 cycles: 249344406 heartbeat IPC: 1.23214 cumulative IPC: 1.40086 (Simulation time: 0 hr 10 min 29 sec) 
Heartbeat CPU 0 instructions: 400000000 cycles: 257550060 heartbeat IPC: 1.21867 cumulative IPC: 1.39392 (Simulation time: 0 hr 10 min 47 sec) 
Heartbeat CPU 0 instructions: 410000001 cycles: 265375039 heartbeat IPC: 1.27796 cumulative IPC: 1.38985 (Simulation time: 0 hr 11 min 5 sec) 
Heartbeat CPU 0 instructions: 420000000 cycles: 273426879 heartbeat IPC: 1.24195 cumulative IPC: 1.38469 (Simulation time: 0 hr 11 min 22 sec) 
Heartbeat CPU 0 instructions: 430000001 cycles: 281685656 heartbeat IPC: 1.21083 cumulative IPC: 1.3787 (Simulation time: 0 hr 11 min 40 sec) 
Heartbeat CPU 0 instructions: 440000000 cycles: 289728240 heartbeat IPC: 1.24338 cumulative IPC: 1.3743 (Simulation time: 0 hr 11 min 58 sec) 
Heartbeat CPU 0 instructions: 450000001 cycles: 297598032 heartbeat IPC: 1.27068 cumulative IPC: 1.3711 (Simulation time: 0 hr 12 min 16 sec) 
Heartbeat CPU 0 instructions: 460000000 cycles: 307525151 heartbeat IPC: 1.00734 cumulative IPC: 1.35749 (Simulation time: 0 hr 12 min 35 sec) 
Heartbeat CPU 0 instructions: 470000002 cycles: 312155692 heartbeat IPC: 2.15958 cumulative IPC: 1.37125 (Simulation time: 0 hr 12 min 51 sec) 
Heartbeat CPU 0 instructions: 480000000 cycles: 317388106 heartbeat IPC: 1.91116 cumulative IPC: 1.38152 (Simulation time: 0 hr 13 min 8 sec) 
Heartbeat CPU 0 instructions: 490000001 cycles: 324708301 heartbeat IPC: 1.36608 cumulative IPC: 1.38112 (Simulation time: 0 hr 13 min 26 sec) 
Heartbeat CPU 0 instructions: 500000000 cycles: 333442402 heartbeat IPC: 1.14494 cumulative IPC: 1.37403 (Simulation time: 0 hr 13 min 46 sec) 
Heartbeat CPU 0 instructions: 510000002 cycles: 342173808 heartbeat IPC: 1.14529 cumulative IPC: 1.36737 (Simulation time: 0 hr 14 min 6 sec) 
Heartbeat CPU 0 instructions: 520000000 cycles: 350901168 heartbeat IPC: 1.14582 cumulative IPC: 1.36111 (Simulation time: 0 hr 14 min 26 sec) 
Heartbeat CPU 0 instructions: 530000000 cycles: 359608196 heartbeat IPC: 1.1485 cumulative IPC: 1.35527 (Simulation time: 0 hr 14 min 45 sec) 
Heartbeat CPU 0 instructions: 540000000 cycles: 367864599 heartbeat IPC: 1.21118 cumulative IPC: 1.35162 (Simulation time: 0 hr 15 min 5 sec) 
Heartbeat CPU 0 instructions: 550000000 cycles: 374902877 heartbeat IPC: 1.4208 cumulative IPC: 1.35308 (Simulation time: 0 hr 15 min 22 sec) 
Heartbeat CPU 0 instructions: 560000000 cycles: 381515992 heartbeat IPC: 1.51215 cumulative IPC: 1.35618 (Simulation time: 0 hr 15 min 39 sec) 
Heartbeat CPU 0 instructions: 570000002 cycles: 388110749 heartbeat IPC: 1.51636 cumulative IPC: 1.35924 (Simulation time: 0 hr 15 min 56 sec) 
Heartbeat CPU 0 instructions: 580000000 cycles: 394764768 heartbeat IPC: 1.50285 cumulative IPC: 1.36195 (Simulation time: 0 hr 16 min 13 sec) 
Heartbeat CPU 0 instructions: 590000002 cycles: 401456841 heartbeat IPC: 1.49431 cumulative IPC: 1.36442 (Simulation time: 0 hr 16 min 29 sec) 
Heartbeat CPU 0 instructions: 600000000 cycles: 408277331 heartbeat IPC: 1.46617 cumulative IPC: 1.36631 (Simulation time: 0 hr 16 min 46 sec) 
Finished CPU 0 instructions: 500000000 cycles: 365948433 cumulative IPC: 1.36631 (Simulation time: 0 hr 16 min 46 sec) 

CPU 0 Branch Prediction Accuracy: 93.4682% MPKI: 2.44079
Number of Branches: 18683822 Number of Mispredictions: 1220394
Number of LOAD Instructions: 142551610
Number of LOAD Instructions (ROI): 142551610
Number of STORE Instructions: 44807454
Number of STORE Instructions (ROI): 44807454
Total Destination Memory Operands: 48357071
Total Destination Memory Operands (ROI): 48357071
Total Source Memory Operands: 142551610
Total Source Memory Operands (ROI): 142551610
Number of DEPENDED LOADS: 7395121
Number of DEPENDED LOADS (ROI): 7395121
Number of SQ_ADDED: 48357051
Number of SQ_ADDED (ROI): 48357051
Number of LQ_ADDED: 157236882
Number of LQ_ADDED (ROI): 157236882
Number of Instructions read from trace: 600000256

ChampSim completed all CPUs

Region of Interest Statistics

CPU 0 cumulative IPC: 1.36631 instructions: 500000000 cycles: 365948433
ITLB TOTAL     ACCESS:   88176977  HIT:   88176908  MISS:         69
ITLB LOAD      ACCESS:   88176977  HIT:   88176908  MISS:         69
ITLB RFO       ACCESS:          0  HIT:          0  MISS:          0
ITLB PREFETCH  ACCESS:          0  HIT:          0  MISS:          0
ITLB WRITEBACK ACCESS:          0  HIT:          0  MISS:          0
ITLB PREFETCH  REQUESTED:          0  ISSUED:          0  USEFUL:          0  USELESS:          0
ITLB TOTAL MSHR MERGED:         86
ITLB LOAD MSHR MERGED:         86
ITLB RFO MSHR MERGED:          0
ITLB PREFETCH MSHR MERGED:          0
ITLB WRITEBACK MSHR MERGED:          0
ITLB TOTAL ACCESSES:   88177063 HITS:   88176908 MISSES:        155
ITLB LOAD ACCESSES:   88177063 HITS:   88176908 MISSES:        155
ITLB RFO ACCESSES:          0 HITS:          0 MISSES:          0
ITLB PREFETCH ACCESSES:          0 HITS:          0 MISSES:          0
ITLB WRITEBACK ACCESSES:          0 HITS:          0 MISSES:          0
ITLB RQ ACCESS:  500000000
ITLB RQ TO_CACHE:   88177063
ITLB RQ MERGED:  411822937
ITLB RQ FORWARD:          0
ITLB WQ ACCESS:          0
ITLB WQ TO_CACHE:          0
ITLB WQ MERGED:          0
ITLB WQ FORWARD:          0
DTLB TOTAL     ACCESS:   88203524  HIT:   88076108  MISS:     127416
DTLB LOAD      ACCESS:   59485515  HIT:   59393052  MISS:      92463
DTLB RFO       ACCESS:   28718009  HIT:   28683056  MISS:      34953
DTLB PREFETCH  ACCESS:          0  HIT:          0  MISS:          0
DTLB WRITEBACK ACCESS:          0  HIT:          0  MISS:          0
DTLB PREFETCH  REQUESTED:          0  ISSUED:          0  USEFUL:          0  USELESS:          0
DTLB TOTAL MSHR MERGED:     141060
DTLB LOAD MSHR MERGED:     107687
DTLB RFO MSHR MERGED:      33373
DTLB PREFETCH MSHR MERGED:          0
DTLB WRITEBACK MSHR MERGED:          0
DTLB TOTAL ACCESSES:   88344584 HITS:   88076108 MISSES:     268476
DTLB LOAD ACCESSES:   59593202 HITS:   59393052 MISSES:     200150
DTLB RFO ACCESSES:   28751382 HITS:   28683056 MISSES:      68326
DTLB PREFETCH ACCESSES:          0 HITS:          0 MISSES:          0
DTLB WRITEBACK ACCESSES:          0 HITS:          0 MISSES:          0
DTLB RQ ACCESS:  154558772
DTLB RQ TO_CACHE:   88344584
DTLB RQ MERGED:   66214188
DTLB RQ FORWARD:          0
DTLB WQ ACCESS:          0
DTLB WQ TO_CACHE:          0
DTLB WQ MERGED:          0
DTLB WQ FORWARD:          0
L1D TOTAL     ACCESS:  128080403  HIT:  124854811  MISS:    3225592
L1D LOAD      ACCESS:   53172223  HIT:   51976890  MISS:    1195333
L1D RFO       ACCESS:   37387894  HIT:   36773691  MISS:     614203
L1D PREFETCH  ACCESS:   37520286  HIT:   36104230  MISS:    1416056
L1D WRITEBACK ACCESS:          0  HIT:          0  MISS:          0
L1D PREFETCH  REQUESTED:   53656992  ISSUED:   52457030  USEFUL:     352063  USELESS:    1063958
L1D TOTAL MSHR MERGED:    2817200
L1D LOAD MSHR MERGED:     523542
L1D RFO MSHR MERGED:    1566803
L1D PREFETCH MSHR MERGED:     726855
L1D WRITEBACK MSHR MERGED:          0
L1D TOTAL ACCESSES:  130932545 HITS:  124889753 MISSES:    6042792
L1D LOAD ACCESSES:   53659931 HITS:   51979829 MISSES:    1680102
L1D RFO ACCESSES:   38952804 HITS:   36773691 MISSES:    2179113
L1D PREFETCH ACCESSES:   38319810 HITS:   36136233 MISSES:    2183577
L1D WRITEBACK ACCESSES:          0 HITS:          0 MISSES:          0
L1D RQ ACCESS:  113713880
L1D RQ TO_CACHE:   53656992
L1D RQ MERGED:   60053949
L1D RQ FORWARD:          0
L1D WQ ACCESS:   40844891
L1D WQ TO_CACHE:   38952804
L1D WQ MERGED:    1892087
L1D WQ FORWARD:      34942
L1I TOTAL     ACCESS:  108368636  HIT:  107809504  MISS:     559132
L1I LOAD      ACCESS:  108368636  HIT:  107809504  MISS:     559132
L1I RFO       ACCESS:          0  HIT:          0  MISS:          0
L1I PREFETCH  ACCESS:          0  HIT:          0  MISS:          0
L1I WRITEBACK ACCESS:          0  HIT:          0  MISS:          0
L1I PREFETCH  REQUESTED:          0  ISSUED:          0  USEFUL:          0  USELESS:          0
L1I TOTAL MSHR MERGED:     525774
L1I LOAD MSHR MERGED:     525774
L1I RFO MSHR MERGED:          0
L1I PREFETCH MSHR MERGED:          0
L1I WRITEBACK MSHR MERGED:          0
L1I TOTAL ACCESSES:  108894410 HITS:  107809504 MISSES:    1084906
L1I LOAD ACCESSES:  108894410 HITS:  107809504 MISSES:    1084906
L1I RFO ACCESSES:          0 HITS:          0 MISSES:          0
L1I PREFETCH ACCESSES:          0 HITS:          0 MISSES:          0
L1I WRITEBACK ACCESSES:          0 HITS:          0 MISSES:          0
L1I RQ ACCESS:  500000002
L1I RQ TO_CACHE:  108894410
L1I RQ MERGED:  391105592
L1I RQ FORWARD:          0
L1I WQ ACCESS:          0
L1I WQ TO_CACHE:          0
L1I WQ MERGED:          0
L1I WQ FORWARD:          0
L2C TOTAL     ACCESS:    4691953  HIT:    3865858  MISS:     826095
L2C LOAD      ACCESS:    1715584  HIT:    1562713  MISS:     152871
L2C RFO       ACCESS:     610882  HIT:     421223  MISS:     189659
L2C PREFETCH  ACCESS:    1662597  HIT:    1181220  MISS:     481377
L2C WRITEBACK ACCESS:     702890  HIT:     700702  MISS:       2188
L2C PREFETCH  REQUESTED:     256301  ISSUED:     256301  USEFUL:     173166  USELESS:     308877
L2C TOTAL MSHR MERGED:      13479
L2C LOAD MSHR MERGED:       4110
L2C RFO MSHR MERGED:          0
L2C PREFETCH MSHR MERGED:       9369
L2C WRITEBACK MSHR MERGED:          0
L2C TOTAL ACCESSES:    4712030 HITS:    3867463 MISSES:     844567
L2C LOAD ACCESSES:    1715692 HITS:    1562821 MISSES:     152871
L2C RFO ACCESSES:     612310 HITS:     422651 MISSES:     189659
L2C PREFETCH ACCESSES:    1681138 HITS:    1181289 MISSES:     499849
L2C WRITEBACK ACCESSES:     702890 HITS:     700702 MISSES:       2188
L2C RQ ACCESS:    2328002
L2C RQ TO_CACHE:    2326466
L2C RQ MERGED:          0
L2C RQ FORWARD:          0
L2C WQ ACCESS:     702890
L2C WQ TO_CACHE:     702890
L2C WQ MERGED:          0
L2C WQ FORWARD:       1605
LLC TOTAL     ACCESS:    1047513  HIT:     282112  MISS:     765401
LLC LOAD      ACCESS:     148757  HIT:      89535  MISS:      59222
LLC RFO       ACCESS:     189652  HIT:       7290  MISS:     182362
LLC PREFETCH  ACCESS:     488226  HIT:     145971  MISS:     342255
LLC WRITEBACK ACCESS:     220878  HIT:      39316  MISS:     181562
LLC PREFETCH  REQUESTED:          0  ISSUED:          0  USEFUL:       2146  USELESS:     340569
LLC TOTAL MSHR MERGED:       1561
LLC LOAD MSHR MERGED:        531
LLC RFO MSHR MERGED:          0
LLC PREFETCH MSHR MERGED:       1030
LLC WRITEBACK MSHR MERGED:          0
LLC TOTAL ACCESSES:    1049085 HITS:     282123 MISSES:     766962
LLC LOAD ACCESSES:     148761 HITS:      89539 MISSES:      59222
LLC RFO ACCESSES:     189659 HITS:       7297 MISSES:     182362
LLC PREFETCH ACCESSES:     489787 HITS:     145971 MISSES:     343816
LLC WRITEBACK ACCESSES:     220878 HITS:      39316 MISSES:     181562
LLC 0 RQ ACCESS:     338420
LLC 0 RQ TO_CACHE:     338409
LLC 0 RQ MERGED:          0
LLC 0 RQ FORWARD:          0
LLC WQ ACCESS:     220878
LLC WQ TO_CACHE:     220878
LLC WQ MERGED:          0
LLC WQ FORWARD:         11
Major fault: 0 Minor fault: 6811
CPU 0 L1D next line prefetcher final stats
CPU 0 L2C PC-based stride prefetcher final stats
All Misses: 904435
All Hits: 350061
SD Algo Stats - Switches: 0 SRR-Repls: 66579 BRR-Repls: 0

DRAM Statistics
 CHANNEL 0
 RQ ROW_BUFFER_HIT:     295618  ROW_BUFFER_MISS:     288145
 DBUS_CONGESTED:     403163
 WQ ROW_BUFFER_HIT:      23572  ROW_BUFFER_MISS:     191835  FULL:          0

 AVG_CONGESTED_CYCLE: 13
LOADS RETIRED: 119922929
INSTR RETIRED: 500000000
