
*** ChampSim Multicore Out-of-Order Simulator ***

Warmup Instructions: 100000000
Simulation Instructions: 500000000
Number of CPUs: 1
LLC sets: 2048
LLC ways: 16
Clean RRIP Policies: 323102203231022 Dirty RRIP Policies: 2323201223232012 PSEL Width: 10 Track Set: 4294967295 PSEL Mask: 1 Demote Mask: 2330143323301433DS Algo: 0Window size: 0
Off-chip DRAM Size: 4096 MB Channels: 1 Width: 64-bit Data Rate: 1600 MT/s

CPU 0 runs /mnt/beegfs/iconst01/spec2017/Gcc.trace.gz
NOT SORTED
TRACE STRING: /mnt/beegfs/iconst01/spec2017/Gcc.trace.gz
SORTED
TRACE STRING: /mnt/beegfs/iconst01/spec2017/Gcc.trace.gz
INITIAL
TRACE STRING: /mnt/beegfs/iconst01/spec2017/Gcc.trace.gz

champsim_seed used: 269

CPU 0 L1D next line prefetcher
CPU 0 L2C IP-based stride prefetcher
Initialize DRRIP state
Assign rand_sets[0]: 454  LLC: 2048
rand_sets[0]: 454
Assign rand_sets[1]: 1662  LLC: 2048
rand_sets[1]: 1662
Assign rand_sets[2]: 1921  LLC: 2048
rand_sets[2]: 1921
Assign rand_sets[3]: 1131  LLC: 2048
rand_sets[3]: 1131
Assign rand_sets[4]: 331  LLC: 2048
rand_sets[4]: 331
Assign rand_sets[5]: 1531  LLC: 2048
rand_sets[5]: 1531
Assign rand_sets[6]: 482  LLC: 2048
rand_sets[6]: 482
Assign rand_sets[7]: 1275  LLC: 2048
rand_sets[7]: 1275
Assign rand_sets[8]: 1876  LLC: 2048
rand_sets[8]: 1876
Assign rand_sets[9]: 2038  LLC: 2048
rand_sets[9]: 2038
Assign rand_sets[10]: 701  LLC: 2048
rand_sets[10]: 701
Assign rand_sets[11]: 479  LLC: 2048
rand_sets[11]: 479
Assign rand_sets[12]: 892  LLC: 2048
rand_sets[12]: 892
Assign rand_sets[13]: 1820  LLC: 2048
rand_sets[13]: 1820
Assign rand_sets[14]: 1505  LLC: 2048
rand_sets[14]: 1505
Assign rand_sets[15]: 1159  LLC: 2048
rand_sets[15]: 1159
Assign rand_sets[16]: 513  LLC: 2048
rand_sets[16]: 513
Assign rand_sets[17]: 703  LLC: 2048
rand_sets[17]: 703
Assign rand_sets[18]: 561  LLC: 2048
rand_sets[18]: 561
Assign rand_sets[19]: 990  LLC: 2048
rand_sets[19]: 990
Assign rand_sets[20]: 342  LLC: 2048
rand_sets[20]: 342
Assign rand_sets[21]: 882  LLC: 2048
rand_sets[21]: 882
Assign rand_sets[22]: 15  LLC: 2048
rand_sets[22]: 15
Assign rand_sets[23]: 71  LLC: 2048
rand_sets[23]: 71
Assign rand_sets[24]: 1127  LLC: 2048
rand_sets[24]: 1127
Assign rand_sets[25]: 1382  LLC: 2048
rand_sets[25]: 1382
Assign rand_sets[26]: 647  LLC: 2048
rand_sets[26]: 647
Assign rand_sets[27]: 857  LLC: 2048
rand_sets[27]: 857
Assign rand_sets[28]: 1450  LLC: 2048
rand_sets[28]: 1450
Assign rand_sets[29]: 1160  LLC: 2048
rand_sets[29]: 1160
Assign rand_sets[30]: 1852  LLC: 2048
rand_sets[30]: 1852
Assign rand_sets[31]: 1881  LLC: 2048
rand_sets[31]: 1881
Assign rand_sets[32]: 1770  LLC: 2048
rand_sets[32]: 1770
Assign rand_sets[33]: 1622  LLC: 2048
rand_sets[33]: 1622
Assign rand_sets[34]: 275  LLC: 2048
rand_sets[34]: 275
Assign rand_sets[35]: 635  LLC: 2048
rand_sets[35]: 635
Assign rand_sets[36]: 466  LLC: 2048
rand_sets[36]: 466
Assign rand_sets[37]: 1413  LLC: 2048
rand_sets[37]: 1413
Assign rand_sets[38]: 417  LLC: 2048
rand_sets[38]: 417
Assign rand_sets[39]: 472  LLC: 2048
rand_sets[39]: 472
Assign rand_sets[40]: 1340  LLC: 2048
rand_sets[40]: 1340
Assign rand_sets[41]: 852  LLC: 2048
rand_sets[41]: 852
Assign rand_sets[42]: 1365  LLC: 2048
rand_sets[42]: 1365
Assign rand_sets[43]: 47  LLC: 2048
rand_sets[43]: 47
Assign rand_sets[44]: 823  LLC: 2048
rand_sets[44]: 823
Assign rand_sets[45]: 686  LLC: 2048
rand_sets[45]: 686
Assign rand_sets[46]: 1637  LLC: 2048
rand_sets[46]: 1637
Assign rand_sets[47]: 1115  LLC: 2048
rand_sets[47]: 1115
Assign rand_sets[48]: 986  LLC: 2048
rand_sets[48]: 986
Assign rand_sets[49]: 258  LLC: 2048
rand_sets[49]: 258
Assign rand_sets[50]: 633  LLC: 2048
rand_sets[50]: 633
Assign rand_sets[51]: 920  LLC: 2048
rand_sets[51]: 920
Assign rand_sets[52]: 204  LLC: 2048
rand_sets[52]: 204
Assign rand_sets[53]: 227  LLC: 2048
rand_sets[53]: 227
Assign rand_sets[54]: 1818  LLC: 2048
rand_sets[54]: 1818
Assign rand_sets[55]: 886  LLC: 2048
rand_sets[55]: 886
Assign rand_sets[56]: 1422  LLC: 2048
rand_sets[56]: 1422
Assign rand_sets[57]: 607  LLC: 2048
rand_sets[57]: 607
Assign rand_sets[58]: 217  LLC: 2048
rand_sets[58]: 217
Assign rand_sets[59]: 1945  LLC: 2048
rand_sets[59]: 1945
Assign rand_sets[60]: 143  LLC: 2048
rand_sets[60]: 143
Assign rand_sets[61]: 1311  LLC: 2048
rand_sets[61]: 1311
Assign rand_sets[62]: 319  LLC: 2048
rand_sets[62]: 319
Assign rand_sets[63]: 1846  LLC: 2048
rand_sets[63]: 1846
 CLEAN-RRIP-POLICY-1: 0-3-2-3-1-0-2-2- CLEAN-RRIP-POLICY-2: 0-3-2-3-1-0-2-2-
 DIRTY-RRIP-POLICY-1: 2-3-2-3-2-0-1-2- DIRTY-RRIP-POLICY-2: 2-3-2-3-2-0-1-2-
 PSEL width: 10
Heartbeat CPU 0 instructions: 10000001 cycles: 7316001 heartbeat IPC: 1.36687 cumulative IPC: 1.36687 (Simulation time: 0 hr 0 min 15 sec) 
Heartbeat CPU 0 instructions: 20000000 cycles: 14307976 heartbeat IPC: 1.43021 cumulative IPC: 1.39782 (Simulation time: 0 hr 0 min 30 sec) 
Heartbeat CPU 0 instructions: 30000001 cycles: 21021224 heartbeat IPC: 1.48959 cumulative IPC: 1.42713 (Simulation time: 0 hr 0 min 46 sec) 
Heartbeat CPU 0 instructions: 40000000 cycles: 27482388 heartbeat IPC: 1.54771 cumulative IPC: 1.45548 (Simulation time: 0 hr 1 min 3 sec) 
Heartbeat CPU 0 instructions: 50000001 cycles: 33583986 heartbeat IPC: 1.63892 cumulative IPC: 1.4888 (Simulation time: 0 hr 1 min 18 sec) 
Heartbeat CPU 0 instructions: 60000000 cycles: 40065188 heartbeat IPC: 1.54292 cumulative IPC: 1.49756 (Simulation time: 0 hr 1 min 34 sec) 
Heartbeat CPU 0 instructions: 70000000 cycles: 47102834 heartbeat IPC: 1.42093 cumulative IPC: 1.48611 (Simulation time: 0 hr 1 min 49 sec) 
Heartbeat CPU 0 instructions: 80000000 cycles: 54192772 heartbeat IPC: 1.41045 cumulative IPC: 1.47621 (Simulation time: 0 hr 2 min 4 sec) 
Heartbeat CPU 0 instructions: 90000003 cycles: 61197391 heartbeat IPC: 1.42763 cumulative IPC: 1.47065 (Simulation time: 0 hr 2 min 19 sec) 
Heartbeat CPU 0 instructions: 100000000 cycles: 68365012 heartbeat IPC: 1.39516 cumulative IPC: 1.46274 (Simulation time: 0 hr 2 min 34 sec) 

Warmup complete CPU 0 instructions: 100000004 cycles: 68365013 (Simulation time: 0 hr 2 min 34 sec) 

Heartbeat CPU 0 instructions: 110000003 cycles: 96231336 heartbeat IPC: 0.358856 cumulative IPC: 0.358856 (Simulation time: 0 hr 3 min 3 sec) 
Heartbeat CPU 0 instructions: 120000000 cycles: 123801192 heartbeat IPC: 0.362715 cumulative IPC: 0.360775 (Simulation time: 0 hr 3 min 32 sec) 
Heartbeat CPU 0 instructions: 130000000 cycles: 148884094 heartbeat IPC: 0.398678 cumulative IPC: 0.372582 (Simulation time: 0 hr 4 min 1 sec) 
Heartbeat CPU 0 instructions: 140000000 cycles: 178494689 heartbeat IPC: 0.337717 cumulative IPC: 0.363208 (Simulation time: 0 hr 4 min 30 sec) 
Heartbeat CPU 0 instructions: 150000000 cycles: 208624134 heartbeat IPC: 0.331901 cumulative IPC: 0.356483 (Simulation time: 0 hr 4 min 59 sec) 
Heartbeat CPU 0 instructions: 160000000 cycles: 236083308 heartbeat IPC: 0.364177 cumulative IPC: 0.357743 (Simulation time: 0 hr 5 min 27 sec) 
Heartbeat CPU 0 instructions: 170000001 cycles: 264238027 heartbeat IPC: 0.35518 cumulative IPC: 0.357374 (Simulation time: 0 hr 5 min 58 sec) 
Heartbeat CPU 0 instructions: 180000000 cycles: 292810160 heartbeat IPC: 0.349991 cumulative IPC: 0.356435 (Simulation time: 0 hr 6 min 27 sec) 
Heartbeat CPU 0 instructions: 190000002 cycles: 320922873 heartbeat IPC: 0.355711 cumulative IPC: 0.356354 (Simulation time: 0 hr 6 min 57 sec) 
Heartbeat CPU 0 instructions: 200000000 cycles: 349471811 heartbeat IPC: 0.350276 cumulative IPC: 0.355737 (Simulation time: 0 hr 7 min 26 sec) 
Heartbeat CPU 0 instructions: 210000002 cycles: 377422781 heartbeat IPC: 0.357769 cumulative IPC: 0.355921 (Simulation time: 0 hr 7 min 56 sec) 
Heartbeat CPU 0 instructions: 220000000 cycles: 406682606 heartbeat IPC: 0.341765 cumulative IPC: 0.354696 (Simulation time: 0 hr 8 min 24 sec) 
Heartbeat CPU 0 instructions: 230000000 cycles: 434560647 heartbeat IPC: 0.358705 cumulative IPC: 0.355001 (Simulation time: 0 hr 8 min 52 sec) 
Heartbeat CPU 0 instructions: 240000000 cycles: 461087595 heartbeat IPC: 0.376975 cumulative IPC: 0.356486 (Simulation time: 0 hr 9 min 20 sec) 
Heartbeat CPU 0 instructions: 250000000 cycles: 491370891 heartbeat IPC: 0.330215 cumulative IPC: 0.354605 (Simulation time: 0 hr 9 min 51 sec) 
Heartbeat CPU 0 instructions: 260000000 cycles: 518631374 heartbeat IPC: 0.366831 cumulative IPC: 0.355345 (Simulation time: 0 hr 10 min 19 sec) 
Heartbeat CPU 0 instructions: 270000003 cycles: 547163922 heartbeat IPC: 0.350477 cumulative IPC: 0.355055 (Simulation time: 0 hr 10 min 50 sec) 
Heartbeat CPU 0 instructions: 280000000 cycles: 575525330 heartbeat IPC: 0.352592 cumulative IPC: 0.354917 (Simulation time: 0 hr 11 min 20 sec) 
Heartbeat CPU 0 instructions: 290000000 cycles: 604425853 heartbeat IPC: 0.346014 cumulative IPC: 0.354437 (Simulation time: 0 hr 11 min 50 sec) 
Heartbeat CPU 0 instructions: 300000000 cycles: 634435454 heartbeat IPC: 0.333227 cumulative IPC: 0.353313 (Simulation time: 0 hr 12 min 19 sec) 
Heartbeat CPU 0 instructions: 310000001 cycles: 664135088 heartbeat IPC: 0.336705 cumulative IPC: 0.352485 (Simulation time: 0 hr 12 min 48 sec) 
Heartbeat CPU 0 instructions: 320000000 cycles: 692588343 heartbeat IPC: 0.351454 cumulative IPC: 0.352438 (Simulation time: 0 hr 13 min 17 sec) 
Heartbeat CPU 0 instructions: 330000000 cycles: 721294125 heartbeat IPC: 0.348362 cumulative IPC: 0.352259 (Simulation time: 0 hr 13 min 45 sec) 
Heartbeat CPU 0 instructions: 340000000 cycles: 750943273 heartbeat IPC: 0.337278 cumulative IPC: 0.351608 (Simulation time: 0 hr 14 min 15 sec) 
Heartbeat CPU 0 instructions: 350000003 cycles: 778031282 heartbeat IPC: 0.369167 cumulative IPC: 0.352278 (Simulation time: 0 hr 14 min 43 sec) 
Heartbeat CPU 0 instructions: 360000000 cycles: 806607316 heartbeat IPC: 0.349943 cumulative IPC: 0.352188 (Simulation time: 0 hr 15 min 11 sec) 
Heartbeat CPU 0 instructions: 370000000 cycles: 835335704 heartbeat IPC: 0.348088 cumulative IPC: 0.352034 (Simulation time: 0 hr 15 min 39 sec) 
Heartbeat CPU 0 instructions: 380000000 cycles: 864447496 heartbeat IPC: 0.343503 cumulative IPC: 0.351722 (Simulation time: 0 hr 16 min 7 sec) 
Heartbeat CPU 0 instructions: 390000001 cycles: 892614076 heartbeat IPC: 0.355031 cumulative IPC: 0.351835 (Simulation time: 0 hr 16 min 35 sec) 
Heartbeat CPU 0 instructions: 400000000 cycles: 921777241 heartbeat IPC: 0.342898 cumulative IPC: 0.35153 (Simulation time: 0 hr 17 min 3 sec) 
Heartbeat CPU 0 instructions: 410000001 cycles: 949637225 heartbeat IPC: 0.358938 cumulative IPC: 0.351764 (Simulation time: 0 hr 17 min 31 sec) 
Heartbeat CPU 0 instructions: 420000000 cycles: 977486146 heartbeat IPC: 0.35908 cumulative IPC: 0.351988 (Simulation time: 0 hr 17 min 59 sec) 
Heartbeat CPU 0 instructions: 430000002 cycles: 1005709781 heartbeat IPC: 0.354313 cumulative IPC: 0.352058 (Simulation time: 0 hr 18 min 27 sec) 
Heartbeat CPU 0 instructions: 440000000 cycles: 1035612456 heartbeat IPC: 0.334418 cumulative IPC: 0.351513 (Simulation time: 0 hr 18 min 56 sec) 
Heartbeat CPU 0 instructions: 450000002 cycles: 1065393204 heartbeat IPC: 0.335787 cumulative IPC: 0.351043 (Simulation time: 0 hr 19 min 24 sec) 
Heartbeat CPU 0 instructions: 460000000 cycles: 1093581845 heartbeat IPC: 0.354753 cumulative IPC: 0.351145 (Simulation time: 0 hr 19 min 52 sec) 
Heartbeat CPU 0 instructions: 470000000 cycles: 1121703563 heartbeat IPC: 0.355597 cumulative IPC: 0.351264 (Simulation time: 0 hr 20 min 20 sec) 
Heartbeat CPU 0 instructions: 480000000 cycles: 1150022142 heartbeat IPC: 0.353125 cumulative IPC: 0.351313 (Simulation time: 0 hr 20 min 48 sec) 
Heartbeat CPU 0 instructions: 490000000 cycles: 1178076830 heartbeat IPC: 0.356447 cumulative IPC: 0.351443 (Simulation time: 0 hr 21 min 16 sec) 
Heartbeat CPU 0 instructions: 500000000 cycles: 1206724828 heartbeat IPC: 0.349065 cumulative IPC: 0.351383 (Simulation time: 0 hr 21 min 44 sec) 
Heartbeat CPU 0 instructions: 510000000 cycles: 1242038286 heartbeat IPC: 0.283178 cumulative IPC: 0.349331 (Simulation time: 0 hr 22 min 16 sec) 
Heartbeat CPU 0 instructions: 520000000 cycles: 1269707370 heartbeat IPC: 0.361414 cumulative IPC: 0.349609 (Simulation time: 0 hr 22 min 44 sec) 
Heartbeat CPU 0 instructions: 530000001 cycles: 1299194516 heartbeat IPC: 0.339131 cumulative IPC: 0.349358 (Simulation time: 0 hr 23 min 13 sec) 
Heartbeat CPU 0 instructions: 540000000 cycles: 1327712173 heartbeat IPC: 0.35066 cumulative IPC: 0.349387 (Simulation time: 0 hr 23 min 42 sec) 
Heartbeat CPU 0 instructions: 550000001 cycles: 1357223790 heartbeat IPC: 0.33885 cumulative IPC: 0.349146 (Simulation time: 0 hr 24 min 13 sec) 
Heartbeat CPU 0 instructions: 560000000 cycles: 1382873768 heartbeat IPC: 0.389864 cumulative IPC: 0.349941 (Simulation time: 0 hr 24 min 41 sec) 
Heartbeat CPU 0 instructions: 570000000 cycles: 1412585333 heartbeat IPC: 0.336569 cumulative IPC: 0.349645 (Simulation time: 0 hr 25 min 11 sec) 
Heartbeat CPU 0 instructions: 580000000 cycles: 1441076521 heartbeat IPC: 0.350986 cumulative IPC: 0.349673 (Simulation time: 0 hr 25 min 40 sec) 
Heartbeat CPU 0 instructions: 590000001 cycles: 1466656930 heartbeat IPC: 0.390924 cumulative IPC: 0.350428 (Simulation time: 0 hr 26 min 7 sec) 
Heartbeat CPU 0 instructions: 600000000 cycles: 1494389004 heartbeat IPC: 0.360593 cumulative IPC: 0.350625 (Simulation time: 0 hr 26 min 36 sec) 
Finished CPU 0 instructions: 500000000 cycles: 1426024013 cumulative IPC: 0.350625 (Simulation time: 0 hr 26 min 36 sec) 

CPU 0 Branch Prediction Accuracy: 86.4311% MPKI: 26.2662
Number of Branches: 96788573 Number of Mispredictions: 13133102
Number of LOAD Instructions: 164682285
Number of LOAD Instructions (ROI): 164682285
Number of STORE Instructions: 78194750
Number of STORE Instructions (ROI): 78194750
Total Destination Memory Operands: 83268534
Total Destination Memory Operands (ROI): 83268534
Total Source Memory Operands: 164712438
Total Source Memory Operands (ROI): 164712438
Number of DEPENDED LOADS: 7081403
Number of DEPENDED LOADS (ROI): 7081403
Number of SQ_ADDED: 83268522
Number of SQ_ADDED (ROI): 83268522
Number of LQ_ADDED: 236956991
Number of LQ_ADDED (ROI): 236956991
Number of Instructions read from trace: 600000066

ChampSim completed all CPUs

Region of Interest Statistics

CPU 0 cumulative IPC: 0.350625 instructions: 500000000 cycles: 1426024013
ITLB TOTAL     ACCESS:  100492534  HIT:  100288088  MISS:     204446
ITLB LOAD      ACCESS:  100492534  HIT:  100288088  MISS:     204446
ITLB RFO       ACCESS:          0  HIT:          0  MISS:          0
ITLB PREFETCH  ACCESS:          0  HIT:          0  MISS:          0
ITLB WRITEBACK ACCESS:          0  HIT:          0  MISS:          0
ITLB PREFETCH  REQUESTED:          0  ISSUED:          0  USEFUL:          0  USELESS:          0
ITLB TOTAL MSHR MERGED:     172424
ITLB LOAD MSHR MERGED:     172424
ITLB RFO MSHR MERGED:          0
ITLB PREFETCH MSHR MERGED:          0
ITLB WRITEBACK MSHR MERGED:          0
ITLB TOTAL ACCESSES:  100664958 HITS:  100288088 MISSES:     376870
ITLB LOAD ACCESSES:  100664958 HITS:  100288088 MISSES:     376870
ITLB RFO ACCESSES:          0 HITS:          0 MISSES:          0
ITLB PREFETCH ACCESSES:          0 HITS:          0 MISSES:          0
ITLB WRITEBACK ACCESSES:          0 HITS:          0 MISSES:          0
ITLB RQ ACCESS:  500000057
ITLB RQ TO_CACHE:  100664958
ITLB RQ MERGED:  399335099
ITLB RQ FORWARD:          0
ITLB WQ ACCESS:          0
ITLB WQ TO_CACHE:          0
ITLB WQ MERGED:          0
ITLB WQ FORWARD:          0
DTLB TOTAL     ACCESS:  165317714  HIT:  164683365  MISS:     634349
DTLB LOAD      ACCESS:  106275248  HIT:  105705227  MISS:     570021
DTLB RFO       ACCESS:   59042466  HIT:   58978138  MISS:      64328
DTLB PREFETCH  ACCESS:          0  HIT:          0  MISS:          0
DTLB WRITEBACK ACCESS:          0  HIT:          0  MISS:          0
DTLB PREFETCH  REQUESTED:          0  ISSUED:          0  USEFUL:          0  USELESS:          0
DTLB TOTAL MSHR MERGED:      99812
DTLB LOAD MSHR MERGED:      59358
DTLB RFO MSHR MERGED:      40454
DTLB PREFETCH MSHR MERGED:          0
DTLB WRITEBACK MSHR MERGED:          0
DTLB TOTAL ACCESSES:  165417526 HITS:  164683365 MISSES:     734161
DTLB LOAD ACCESSES:  106334606 HITS:  105705227 MISSES:     629379
DTLB RFO ACCESSES:   59082920 HITS:   58978138 MISSES:     104782
DTLB PREFETCH ACCESSES:          0 HITS:          0 MISSES:          0
DTLB WRITEBACK ACCESSES:          0 HITS:          0 MISSES:          0
DTLB RQ ACCESS:  200289608
DTLB RQ TO_CACHE:  165417526
DTLB RQ MERGED:   34872082
DTLB RQ FORWARD:          0
DTLB WQ ACCESS:          0
DTLB WQ TO_CACHE:          0
DTLB WQ MERGED:          0
DTLB WQ FORWARD:          0
L1D TOTAL     ACCESS:  281685386  HIT:  273776246  MISS:    7909140
L1D LOAD      ACCESS:  110387899  HIT:  107102923  MISS:    3284976
L1D RFO       ACCESS:   67067837  HIT:   66174632  MISS:     893205
L1D PREFETCH  ACCESS:  104229650  HIT:  100498691  MISS:    3730959
L1D WRITEBACK ACCESS:          0  HIT:          0  MISS:          0
L1D PREFETCH  REQUESTED:  110801854  ISSUED:  109102712  USEFUL:    1652016  USELESS:    2078907
L1D TOTAL MSHR MERGED:    2989991
L1D LOAD MSHR MERGED:     518706
L1D RFO MSHR MERGED:    1919427
L1D PREFETCH MSHR MERGED:     551858
L1D WRITEBACK MSHR MERGED:          0
L1D TOTAL ACCESSES:  284703369 HITS:  273804238 MISSES:   10899131
L1D LOAD ACCESSES:  110803850 HITS:  107104919 MISSES:    3698931
L1D RFO ACCESSES:   68972833 HITS:   66174632 MISSES:    2798201
L1D PREFETCH ACCESSES:  104926686 HITS:  100524687 MISSES:    4401999
L1D WRITEBACK ACCESSES:          0 HITS:          0 MISSES:          0
L1D RQ ACCESS:  130737005
L1D RQ TO_CACHE:  110801857
L1D RQ MERGED:   19933152
L1D RQ FORWARD:          0
L1D WQ ACCESS:   69552603
L1D WQ TO_CACHE:   68972834
L1D WQ MERGED:     579769
L1D WQ FORWARD:      27992
L1I TOTAL     ACCESS:  126538717  HIT:  122300168  MISS:    4238549
L1I LOAD      ACCESS:  126538717  HIT:  122300168  MISS:    4238549
L1I RFO       ACCESS:          0  HIT:          0  MISS:          0
L1I PREFETCH  ACCESS:          0  HIT:          0  MISS:          0
L1I WRITEBACK ACCESS:          0  HIT:          0  MISS:          0
L1I PREFETCH  REQUESTED:          0  ISSUED:          0  USEFUL:          0  USELESS:          0
L1I TOTAL MSHR MERGED:    1834736
L1I LOAD MSHR MERGED:    1834736
L1I RFO MSHR MERGED:          0
L1I PREFETCH MSHR MERGED:          0
L1I WRITEBACK MSHR MERGED:          0
L1I TOTAL ACCESSES:  128373456 HITS:  122300168 MISSES:    6073288
L1I LOAD ACCESSES:  128373456 HITS:  122300168 MISSES:    6073288
L1I RFO ACCESSES:          0 HITS:          0 MISSES:          0
L1I PREFETCH ACCESSES:          0 HITS:          0 MISSES:          0
L1I WRITEBACK ACCESSES:          0 HITS:          0 MISSES:          0
L1I RQ ACCESS:  500000057
L1I RQ TO_CACHE:  128373456
L1I RQ MERGED:  371626601
L1I RQ FORWARD:          0
L1I WQ ACCESS:          0
L1I WQ TO_CACHE:          0
L1I WQ MERGED:          0
L1I WQ FORWARD:          0
L2C TOTAL     ACCESS:   14901847  HIT:   11155593  MISS:    3746254
L2C LOAD      ACCESS:    7418570  HIT:    5097995  MISS:    2320575
L2C RFO       ACCESS:     878674  HIT:     409908  MISS:     468766
L2C PREFETCH  ACCESS:    4565411  HIT:    3625746  MISS:     939665
L2C WRITEBACK ACCESS:    2039192  HIT:    2021944  MISS:      17248
L2C PREFETCH  REQUESTED:     842053  ISSUED:     842053  USEFUL:     202561  USELESS:     736809
L2C TOTAL MSHR MERGED:       9718
L2C LOAD MSHR MERGED:       1493
L2C RFO MSHR MERGED:          0
L2C PREFETCH MSHR MERGED:       8225
L2C WRITEBACK MSHR MERGED:          0
L2C TOTAL ACCESSES:   14912570 HITS:   11156044 MISSES:    3756526
L2C LOAD ACCESSES:    7418774 HITS:    5098199 MISSES:    2320575
L2C RFO ACCESSES:     878774 HITS:     410008 MISSES:     468766
L2C PREFETCH ACCESSES:    4575830 HITS:    3625893 MISSES:     949937
L2C WRITEBACK ACCESSES:    2039192 HITS:    2021944 MISSES:      17248
L2C RQ ACCESS:    8297551
L2C RQ TO_CACHE:    8297247
L2C RQ MERGED:          0
L2C RQ FORWARD:          0
L2C WQ ACCESS:    2039192
L2C WQ TO_CACHE:    2039192
L2C WQ MERGED:          0
L2C WQ FORWARD:        451
LLC TOTAL     ACCESS:    4609609  HIT:    3520264  MISS:    1089345
LLC LOAD      ACCESS:    2319072  HIT:    1989176  MISS:     329896
LLC RFO       ACCESS:     468755  HIT:     308646  MISS:     160109
LLC PREFETCH  ACCESS:     941566  HIT:     502916  MISS:     438650
LLC WRITEBACK ACCESS:     880216  HIT:     719526  MISS:     160690
LLC PREFETCH  REQUESTED:          0  ISSUED:          0  USEFUL:      17202  USELESS:     421794
LLC TOTAL MSHR MERGED:        129
LLC LOAD MSHR MERGED:         42
LLC RFO MSHR MERGED:          0
LLC PREFETCH MSHR MERGED:         87
LLC WRITEBACK MSHR MERGED:          0
LLC TOTAL ACCESSES:    4609768 HITS:    3520294 MISSES:    1089474
LLC LOAD ACCESSES:    2319082 HITS:    1989186 MISSES:     329896
LLC RFO ACCESSES:     468766 HITS:     308657 MISSES:     160109
LLC PREFETCH ACCESSES:     941704 HITS:     502925 MISSES:     438779
LLC WRITEBACK ACCESSES:     880216 HITS:     719526 MISSES:     160690
LLC 0 RQ ACCESS:    2787848
LLC 0 RQ TO_CACHE:    2787827
LLC 0 RQ MERGED:          0
LLC 0 RQ FORWARD:          0
LLC WQ ACCESS:     880216
LLC WQ TO_CACHE:     880216
LLC WQ MERGED:          0
LLC WQ FORWARD:         30
Major fault: 0 Minor fault: 12862
CPU 0 L1D next line prefetcher final stats
CPU 0 L2C PC-based stride prefetcher final stats
All Misses: 1243945
All Hits: 4182670
SD Algo Stats - Switches: 0 SRR-Repls: 371476 BRR-Repls: 0

DRAM Statistics
 CHANNEL 0
 RQ ROW_BUFFER_HIT:     183424  ROW_BUFFER_MISS:     740144
 DBUS_CONGESTED:     639343
 WQ ROW_BUFFER_HIT:      49301  ROW_BUFFER_MISS:     370931  FULL:          0

 AVG_CONGESTED_CYCLE: 13
LOADS RETIRED: 136549171
INSTR RETIRED: 500000000
