
*** ChampSim Multicore Out-of-Order Simulator ***

Warmup Instructions: 100000000
Simulation Instructions: 500000000
Number of CPUs: 1
LLC sets: 2048
LLC ways: 16
Clean RRIP Policies: 2101120221011202 Dirty RRIP Policies: 1101020211010202 PSEL Width: 10 Track Set: 4294967295 PSEL Mask: 1 Demote Mask: 2143042121430421DS Algo: 0Window size: 0
Off-chip DRAM Size: 4096 MB Channels: 1 Width: 64-bit Data Rate: 1600 MT/s

CPU 0 runs /mnt/beegfs/iconst01/spec2017/Blender.trace.gz
NOT SORTED
TRACE STRING: /mnt/beegfs/iconst01/spec2017/Blender.trace.gz
SORTED
TRACE STRING: /mnt/beegfs/iconst01/spec2017/Blender.trace.gz
INITIAL
TRACE STRING: /mnt/beegfs/iconst01/spec2017/Blender.trace.gz

champsim_seed used: 700

CPU 0 L1D next line prefetcher
CPU 0 L2C IP-based stride prefetcher
Initialize DRRIP state
Assign rand_sets[0]: 454  LLC: 2048
rand_sets[0]: 454
Assign rand_sets[1]: 1662  LLC: 2048
rand_sets[1]: 1662
Assign rand_sets[2]: 1921  LLC: 2048
rand_sets[2]: 1921
Assign rand_sets[3]: 1131  LLC: 2048
rand_sets[3]: 1131
Assign rand_sets[4]: 331  LLC: 2048
rand_sets[4]: 331
Assign rand_sets[5]: 1531  LLC: 2048
rand_sets[5]: 1531
Assign rand_sets[6]: 482  LLC: 2048
rand_sets[6]: 482
Assign rand_sets[7]: 1275  LLC: 2048
rand_sets[7]: 1275
Assign rand_sets[8]: 1876  LLC: 2048
rand_sets[8]: 1876
Assign rand_sets[9]: 2038  LLC: 2048
rand_sets[9]: 2038
Assign rand_sets[10]: 701  LLC: 2048
rand_sets[10]: 701
Assign rand_sets[11]: 479  LLC: 2048
rand_sets[11]: 479
Assign rand_sets[12]: 892  LLC: 2048
rand_sets[12]: 892
Assign rand_sets[13]: 1820  LLC: 2048
rand_sets[13]: 1820
Assign rand_sets[14]: 1505  LLC: 2048
rand_sets[14]: 1505
Assign rand_sets[15]: 1159  LLC: 2048
rand_sets[15]: 1159
Assign rand_sets[16]: 513  LLC: 2048
rand_sets[16]: 513
Assign rand_sets[17]: 703  LLC: 2048
rand_sets[17]: 703
Assign rand_sets[18]: 561  LLC: 2048
rand_sets[18]: 561
Assign rand_sets[19]: 990  LLC: 2048
rand_sets[19]: 990
Assign rand_sets[20]: 342  LLC: 2048
rand_sets[20]: 342
Assign rand_sets[21]: 882  LLC: 2048
rand_sets[21]: 882
Assign rand_sets[22]: 15  LLC: 2048
rand_sets[22]: 15
Assign rand_sets[23]: 71  LLC: 2048
rand_sets[23]: 71
Assign rand_sets[24]: 1127  LLC: 2048
rand_sets[24]: 1127
Assign rand_sets[25]: 1382  LLC: 2048
rand_sets[25]: 1382
Assign rand_sets[26]: 647  LLC: 2048
rand_sets[26]: 647
Assign rand_sets[27]: 857  LLC: 2048
rand_sets[27]: 857
Assign rand_sets[28]: 1450  LLC: 2048
rand_sets[28]: 1450
Assign rand_sets[29]: 1160  LLC: 2048
rand_sets[29]: 1160
Assign rand_sets[30]: 1852  LLC: 2048
rand_sets[30]: 1852
Assign rand_sets[31]: 1881  LLC: 2048
rand_sets[31]: 1881
Assign rand_sets[32]: 1770  LLC: 2048
rand_sets[32]: 1770
Assign rand_sets[33]: 1622  LLC: 2048
rand_sets[33]: 1622
Assign rand_sets[34]: 275  LLC: 2048
rand_sets[34]: 275
Assign rand_sets[35]: 635  LLC: 2048
rand_sets[35]: 635
Assign rand_sets[36]: 466  LLC: 2048
rand_sets[36]: 466
Assign rand_sets[37]: 1413  LLC: 2048
rand_sets[37]: 1413
Assign rand_sets[38]: 417  LLC: 2048
rand_sets[38]: 417
Assign rand_sets[39]: 472  LLC: 2048
rand_sets[39]: 472
Assign rand_sets[40]: 1340  LLC: 2048
rand_sets[40]: 1340
Assign rand_sets[41]: 852  LLC: 2048
rand_sets[41]: 852
Assign rand_sets[42]: 1365  LLC: 2048
rand_sets[42]: 1365
Assign rand_sets[43]: 47  LLC: 2048
rand_sets[43]: 47
Assign rand_sets[44]: 823  LLC: 2048
rand_sets[44]: 823
Assign rand_sets[45]: 686  LLC: 2048
rand_sets[45]: 686
Assign rand_sets[46]: 1637  LLC: 2048
rand_sets[46]: 1637
Assign rand_sets[47]: 1115  LLC: 2048
rand_sets[47]: 1115
Assign rand_sets[48]: 986  LLC: 2048
rand_sets[48]: 986
Assign rand_sets[49]: 258  LLC: 2048
rand_sets[49]: 258
Assign rand_sets[50]: 633  LLC: 2048
rand_sets[50]: 633
Assign rand_sets[51]: 920  LLC: 2048
rand_sets[51]: 920
Assign rand_sets[52]: 204  LLC: 2048
rand_sets[52]: 204
Assign rand_sets[53]: 227  LLC: 2048
rand_sets[53]: 227
Assign rand_sets[54]: 1818  LLC: 2048
rand_sets[54]: 1818
Assign rand_sets[55]: 886  LLC: 2048
rand_sets[55]: 886
Assign rand_sets[56]: 1422  LLC: 2048
rand_sets[56]: 1422
Assign rand_sets[57]: 607  LLC: 2048
rand_sets[57]: 607
Assign rand_sets[58]: 217  LLC: 2048
rand_sets[58]: 217
Assign rand_sets[59]: 1945  LLC: 2048
rand_sets[59]: 1945
Assign rand_sets[60]: 143  LLC: 2048
rand_sets[60]: 143
Assign rand_sets[61]: 1311  LLC: 2048
rand_sets[61]: 1311
Assign rand_sets[62]: 319  LLC: 2048
rand_sets[62]: 319
Assign rand_sets[63]: 1846  LLC: 2048
rand_sets[63]: 1846
 CLEAN-RRIP-POLICY-1: 2-1-0-1-1-2-0-2- CLEAN-RRIP-POLICY-2: 2-1-0-1-1-2-0-2-
 DIRTY-RRIP-POLICY-1: 1-1-0-1-0-2-0-2- DIRTY-RRIP-POLICY-2: 1-1-0-1-0-2-0-2-
 PSEL width: 10
Heartbeat CPU 0 instructions: 10000002 cycles: 5480873 heartbeat IPC: 1.82453 cumulative IPC: 1.82453 (Simulation time: 0 hr 0 min 13 sec) 
Heartbeat CPU 0 instructions: 20000000 cycles: 10913539 heartbeat IPC: 1.84072 cumulative IPC: 1.83259 (Simulation time: 0 hr 0 min 26 sec) 
Heartbeat CPU 0 instructions: 30000000 cycles: 16448821 heartbeat IPC: 1.80659 cumulative IPC: 1.82384 (Simulation time: 0 hr 0 min 39 sec) 
Heartbeat CPU 0 instructions: 40000000 cycles: 21901054 heartbeat IPC: 1.83411 cumulative IPC: 1.8264 (Simulation time: 0 hr 0 min 52 sec) 
Heartbeat CPU 0 instructions: 50000000 cycles: 27404323 heartbeat IPC: 1.8171 cumulative IPC: 1.82453 (Simulation time: 0 hr 1 min 6 sec) 
Heartbeat CPU 0 instructions: 60000000 cycles: 32784405 heartbeat IPC: 1.85871 cumulative IPC: 1.83014 (Simulation time: 0 hr 1 min 19 sec) 
Heartbeat CPU 0 instructions: 70000001 cycles: 38341863 heartbeat IPC: 1.79938 cumulative IPC: 1.82568 (Simulation time: 0 hr 1 min 32 sec) 
Heartbeat CPU 0 instructions: 80000000 cycles: 43802726 heartbeat IPC: 1.83121 cumulative IPC: 1.82637 (Simulation time: 0 hr 1 min 45 sec) 
Heartbeat CPU 0 instructions: 90000000 cycles: 49251116 heartbeat IPC: 1.8354 cumulative IPC: 1.82737 (Simulation time: 0 hr 1 min 59 sec) 
Heartbeat CPU 0 instructions: 100000000 cycles: 54797838 heartbeat IPC: 1.80287 cumulative IPC: 1.82489 (Simulation time: 0 hr 2 min 12 sec) 

Warmup complete CPU 0 instructions: 100000002 cycles: 54797839 (Simulation time: 0 hr 2 min 12 sec) 

Heartbeat CPU 0 instructions: 110000001 cycles: 69620324 heartbeat IPC: 0.674651 cumulative IPC: 0.674651 (Simulation time: 0 hr 2 min 31 sec) 
Heartbeat CPU 0 instructions: 120000000 cycles: 85162296 heartbeat IPC: 0.643419 cumulative IPC: 0.658665 (Simulation time: 0 hr 2 min 51 sec) 
Heartbeat CPU 0 instructions: 130000000 cycles: 100047399 heartbeat IPC: 0.671813 cumulative IPC: 0.66299 (Simulation time: 0 hr 3 min 11 sec) 
Heartbeat CPU 0 instructions: 140000000 cycles: 114762118 heartbeat IPC: 0.679592 cumulative IPC: 0.667064 (Simulation time: 0 hr 3 min 30 sec) 
Heartbeat CPU 0 instructions: 150000000 cycles: 129930625 heartbeat IPC: 0.659261 cumulative IPC: 0.665488 (Simulation time: 0 hr 3 min 49 sec) 
Heartbeat CPU 0 instructions: 160000000 cycles: 145506093 heartbeat IPC: 0.642035 cumulative IPC: 0.661461 (Simulation time: 0 hr 4 min 9 sec) 
Heartbeat CPU 0 instructions: 170000001 cycles: 160917993 heartbeat IPC: 0.648849 cumulative IPC: 0.65963 (Simulation time: 0 hr 4 min 28 sec) 
Heartbeat CPU 0 instructions: 180000000 cycles: 176345776 heartbeat IPC: 0.648181 cumulative IPC: 0.658177 (Simulation time: 0 hr 4 min 48 sec) 
Heartbeat CPU 0 instructions: 190000002 cycles: 191223333 heartbeat IPC: 0.672153 cumulative IPC: 0.659701 (Simulation time: 0 hr 5 min 8 sec) 
Heartbeat CPU 0 instructions: 200000000 cycles: 206000914 heartbeat IPC: 0.676701 cumulative IPC: 0.661362 (Simulation time: 0 hr 5 min 27 sec) 
Heartbeat CPU 0 instructions: 210000003 cycles: 221034568 heartbeat IPC: 0.665174 cumulative IPC: 0.661707 (Simulation time: 0 hr 5 min 47 sec) 
Heartbeat CPU 0 instructions: 220000000 cycles: 236112045 heartbeat IPC: 0.663241 cumulative IPC: 0.661834 (Simulation time: 0 hr 6 min 6 sec) 
Heartbeat CPU 0 instructions: 230000001 cycles: 251740861 heartbeat IPC: 0.639844 cumulative IPC: 0.660089 (Simulation time: 0 hr 6 min 26 sec) 
Heartbeat CPU 0 instructions: 240000000 cycles: 267132202 heartbeat IPC: 0.649716 cumulative IPC: 0.659337 (Simulation time: 0 hr 6 min 46 sec) 
Heartbeat CPU 0 instructions: 250000003 cycles: 282424025 heartbeat IPC: 0.653944 cumulative IPC: 0.658975 (Simulation time: 0 hr 7 min 5 sec) 
Heartbeat CPU 0 instructions: 260000000 cycles: 298496099 heartbeat IPC: 0.622197 cumulative IPC: 0.65655 (Simulation time: 0 hr 7 min 25 sec) 
Heartbeat CPU 0 instructions: 270000003 cycles: 313535381 heartbeat IPC: 0.664926 cumulative IPC: 0.657036 (Simulation time: 0 hr 7 min 45 sec) 
Heartbeat CPU 0 instructions: 280000000 cycles: 328422053 heartbeat IPC: 0.671742 cumulative IPC: 0.657836 (Simulation time: 0 hr 8 min 4 sec) 
Heartbeat CPU 0 instructions: 290000002 cycles: 343242063 heartbeat IPC: 0.674764 cumulative IPC: 0.658706 (Simulation time: 0 hr 8 min 24 sec) 
Heartbeat CPU 0 instructions: 300000000 cycles: 359251487 heartbeat IPC: 0.624632 cumulative IPC: 0.656914 (Simulation time: 0 hr 8 min 44 sec) 
Heartbeat CPU 0 instructions: 310000000 cycles: 374731274 heartbeat IPC: 0.646004 cumulative IPC: 0.656387 (Simulation time: 0 hr 9 min 3 sec) 
Heartbeat CPU 0 instructions: 320000000 cycles: 389971837 heartbeat IPC: 0.656144 cumulative IPC: 0.656375 (Simulation time: 0 hr 9 min 22 sec) 
Heartbeat CPU 0 instructions: 330000000 cycles: 406388696 heartbeat IPC: 0.60913 cumulative IPC: 0.654169 (Simulation time: 0 hr 9 min 42 sec) 
Heartbeat CPU 0 instructions: 340000000 cycles: 421512877 heartbeat IPC: 0.661193 cumulative IPC: 0.654459 (Simulation time: 0 hr 10 min 2 sec) 
Heartbeat CPU 0 instructions: 350000000 cycles: 436519864 heartbeat IPC: 0.666356 cumulative IPC: 0.654927 (Simulation time: 0 hr 10 min 21 sec) 
Heartbeat CPU 0 instructions: 360000000 cycles: 451599625 heartbeat IPC: 0.66314 cumulative IPC: 0.655239 (Simulation time: 0 hr 10 min 40 sec) 
Heartbeat CPU 0 instructions: 370000002 cycles: 467608952 heartbeat IPC: 0.624636 cumulative IPC: 0.654052 (Simulation time: 0 hr 11 min 0 sec) 
Heartbeat CPU 0 instructions: 380000000 cycles: 482896299 heartbeat IPC: 0.654136 cumulative IPC: 0.654055 (Simulation time: 0 hr 11 min 20 sec) 
Heartbeat CPU 0 instructions: 390000003 cycles: 498313737 heartbeat IPC: 0.648616 cumulative IPC: 0.653866 (Simulation time: 0 hr 11 min 39 sec) 
Heartbeat CPU 0 instructions: 400000000 cycles: 514824188 heartbeat IPC: 0.605677 cumulative IPC: 0.652137 (Simulation time: 0 hr 11 min 59 sec) 
Heartbeat CPU 0 instructions: 410000001 cycles: 530371636 heartbeat IPC: 0.643192 cumulative IPC: 0.651844 (Simulation time: 0 hr 12 min 19 sec) 
Heartbeat CPU 0 instructions: 420000000 cycles: 545588490 heartbeat IPC: 0.657166 cumulative IPC: 0.652009 (Simulation time: 0 hr 12 min 38 sec) 
Heartbeat CPU 0 instructions: 430000000 cycles: 561610515 heartbeat IPC: 0.624141 cumulative IPC: 0.651128 (Simulation time: 0 hr 12 min 57 sec) 
Heartbeat CPU 0 instructions: 440000000 cycles: 576872087 heartbeat IPC: 0.65524 cumulative IPC: 0.651248 (Simulation time: 0 hr 13 min 17 sec) 
Heartbeat CPU 0 instructions: 450000000 cycles: 592341060 heartbeat IPC: 0.646455 cumulative IPC: 0.65111 (Simulation time: 0 hr 13 min 36 sec) 
Heartbeat CPU 0 instructions: 460000000 cycles: 608788519 heartbeat IPC: 0.607997 cumulative IPC: 0.64983 (Simulation time: 0 hr 13 min 55 sec) 
Heartbeat CPU 0 instructions: 470000000 cycles: 624392879 heartbeat IPC: 0.640847 cumulative IPC: 0.649584 (Simulation time: 0 hr 14 min 14 sec) 
Heartbeat CPU 0 instructions: 480000000 cycles: 639775840 heartbeat IPC: 0.65007 cumulative IPC: 0.649597 (Simulation time: 0 hr 14 min 33 sec) 
Heartbeat CPU 0 instructions: 490000002 cycles: 655604974 heartbeat IPC: 0.631747 cumulative IPC: 0.649127 (Simulation time: 0 hr 14 min 53 sec) 
Heartbeat CPU 0 instructions: 500000000 cycles: 670926972 heartbeat IPC: 0.652656 cumulative IPC: 0.649215 (Simulation time: 0 hr 15 min 12 sec) 
Heartbeat CPU 0 instructions: 510000001 cycles: 686508640 heartbeat IPC: 0.64178 cumulative IPC: 0.649031 (Simulation time: 0 hr 15 min 31 sec) 
Heartbeat CPU 0 instructions: 520000000 cycles: 702574822 heartbeat IPC: 0.622425 cumulative IPC: 0.648371 (Simulation time: 0 hr 15 min 51 sec) 
Heartbeat CPU 0 instructions: 530000001 cycles: 718586135 heartbeat IPC: 0.624558 cumulative IPC: 0.647797 (Simulation time: 0 hr 16 min 10 sec) 
Heartbeat CPU 0 instructions: 540000000 cycles: 733626770 heartbeat IPC: 0.664865 cumulative IPC: 0.648175 (Simulation time: 0 hr 16 min 29 sec) 
Heartbeat CPU 0 instructions: 550000001 cycles: 749453943 heartbeat IPC: 0.631825 cumulative IPC: 0.647803 (Simulation time: 0 hr 16 min 48 sec) 
Heartbeat CPU 0 instructions: 560000000 cycles: 764685734 heartbeat IPC: 0.656522 cumulative IPC: 0.64799 (Simulation time: 0 hr 17 min 7 sec) 
Heartbeat CPU 0 instructions: 570000002 cycles: 780339570 heartbeat IPC: 0.638821 cumulative IPC: 0.647792 (Simulation time: 0 hr 17 min 26 sec) 
Heartbeat CPU 0 instructions: 580000000 cycles: 795881688 heartbeat IPC: 0.643413 cumulative IPC: 0.6477 (Simulation time: 0 hr 17 min 45 sec) 
Heartbeat CPU 0 instructions: 590000001 cycles: 811390586 heartbeat IPC: 0.644791 cumulative IPC: 0.64764 (Simulation time: 0 hr 18 min 3 sec) 
Heartbeat CPU 0 instructions: 600000000 cycles: 826505435 heartbeat IPC: 0.661601 cumulative IPC: 0.647914 (Simulation time: 0 hr 18 min 22 sec) 
Finished CPU 0 instructions: 500000000 cycles: 771707604 cumulative IPC: 0.647914 (Simulation time: 0 hr 18 min 22 sec) 

CPU 0 Branch Prediction Accuracy: 93.7783% MPKI: 10.0718
Number of Branches: 80940586 Number of Mispredictions: 5035908
Number of LOAD Instructions: 184238101
Number of LOAD Instructions (ROI): 184238101
Number of STORE Instructions: 33143298
Number of STORE Instructions (ROI): 33143298
Total Destination Memory Operands: 33324321
Total Destination Memory Operands (ROI): 33324321
Total Source Memory Operands: 184238101
Total Source Memory Operands (ROI): 184238101
Number of DEPENDED LOADS: 4462555
Number of DEPENDED LOADS (ROI): 4462555
Number of SQ_ADDED: 33324292
Number of SQ_ADDED (ROI): 33324292
Number of LQ_ADDED: 184870845
Number of LQ_ADDED (ROI): 184870845
Number of Instructions read from trace: 600000256

ChampSim completed all CPUs

Region of Interest Statistics

CPU 0 cumulative IPC: 0.647914 instructions: 500000000 cycles: 771707604
ITLB TOTAL     ACCESS:   77755422  HIT:   77755422  MISS:          0
ITLB LOAD      ACCESS:   77755422  HIT:   77755422  MISS:          0
ITLB RFO       ACCESS:          0  HIT:          0  MISS:          0
ITLB PREFETCH  ACCESS:          0  HIT:          0  MISS:          0
ITLB WRITEBACK ACCESS:          0  HIT:          0  MISS:          0
ITLB PREFETCH  REQUESTED:          0  ISSUED:          0  USEFUL:          0  USELESS:          0
ITLB TOTAL MSHR MERGED:          0
ITLB LOAD MSHR MERGED:          0
ITLB RFO MSHR MERGED:          0
ITLB PREFETCH MSHR MERGED:          0
ITLB WRITEBACK MSHR MERGED:          0
ITLB TOTAL ACCESSES:   77755422 HITS:   77755422 MISSES:          0
ITLB LOAD ACCESSES:   77755422 HITS:   77755422 MISSES:          0
ITLB RFO ACCESSES:          0 HITS:          0 MISSES:          0
ITLB PREFETCH ACCESSES:          0 HITS:          0 MISSES:          0
ITLB WRITEBACK ACCESSES:          0 HITS:          0 MISSES:          0
ITLB RQ ACCESS:  500000245
ITLB RQ TO_CACHE:   77755422
ITLB RQ MERGED:  422244823
ITLB RQ FORWARD:          0
ITLB WQ ACCESS:          0
ITLB WQ TO_CACHE:          0
ITLB WQ MERGED:          0
ITLB WQ FORWARD:          0
DTLB TOTAL     ACCESS:   88441842  HIT:   87305001  MISS:    1136841
DTLB LOAD      ACCESS:   66315847  HIT:   65183246  MISS:    1132601
DTLB RFO       ACCESS:   22125995  HIT:   22121755  MISS:       4240
DTLB PREFETCH  ACCESS:          0  HIT:          0  MISS:          0
DTLB WRITEBACK ACCESS:          0  HIT:          0  MISS:          0
DTLB PREFETCH  REQUESTED:          0  ISSUED:          0  USEFUL:          0  USELESS:          0
DTLB TOTAL MSHR MERGED:     135586
DTLB LOAD MSHR MERGED:     133773
DTLB RFO MSHR MERGED:       1813
DTLB PREFETCH MSHR MERGED:          0
DTLB WRITEBACK MSHR MERGED:          0
DTLB TOTAL ACCESSES:   88577428 HITS:   87305001 MISSES:    1272427
DTLB LOAD ACCESSES:   66449620 HITS:   65183246 MISSES:    1266374
DTLB RFO ACCESSES:   22127808 HITS:   22121755 MISSES:       6053
DTLB PREFETCH ACCESSES:          0 HITS:          0 MISSES:          0
DTLB WRITEBACK ACCESSES:          0 HITS:          0 MISSES:          0
DTLB RQ ACCESS:  177578109
DTLB RQ TO_CACHE:   88577428
DTLB RQ MERGED:   89000681
DTLB RQ FORWARD:          0
DTLB WQ ACCESS:          0
DTLB WQ TO_CACHE:          0
DTLB WQ MERGED:          0
DTLB WQ FORWARD:          0
L1D TOTAL     ACCESS:  142194234  HIT:  136635159  MISS:    5559075
L1D LOAD      ACCESS:   61391126  HIT:   58313292  MISS:    3077834
L1D RFO       ACCESS:   27669184  HIT:   27587359  MISS:      81825
L1D PREFETCH  ACCESS:   53133924  HIT:   50734508  MISS:    2399416
L1D WRITEBACK ACCESS:          0  HIT:          0  MISS:          0
L1D PREFETCH  REQUESTED:   61681946  ISSUED:   60763656  USEFUL:     692524  USELESS:    1706897
L1D TOTAL MSHR MERGED:    1104577
L1D LOAD MSHR MERGED:     363012
L1D RFO MSHR MERGED:     163885
L1D PREFETCH MSHR MERGED:     577680
L1D WRITEBACK MSHR MERGED:          0
L1D TOTAL ACCESSES:  143396427 HITS:  136732775 MISSES:    6663652
L1D LOAD ACCESSES:   61681955 HITS:   58313301 MISSES:    3368654
L1D RFO ACCESSES:   27829275 HITS:   27587359 MISSES:     241916
L1D PREFETCH ACCESSES:   53885197 HITS:   50832115 MISSES:    3053082
L1D WRITEBACK ACCESSES:          0 HITS:          0 MISSES:          0
L1D RQ ACCESS:  149745143
L1D RQ TO_CACHE:   61681946
L1D RQ MERGED:   88063188
L1D RQ FORWARD:          0
L1D WQ ACCESS:   27832966
L1D WQ TO_CACHE:   27829275
L1D WQ MERGED:       3691
L1D WQ FORWARD:      97616
L1I TOTAL     ACCESS:   96232224  HIT:   96072980  MISS:     159244
L1I LOAD      ACCESS:   96232224  HIT:   96072980  MISS:     159244
L1I RFO       ACCESS:          0  HIT:          0  MISS:          0
L1I PREFETCH  ACCESS:          0  HIT:          0  MISS:          0
L1I WRITEBACK ACCESS:          0  HIT:          0  MISS:          0
L1I PREFETCH  REQUESTED:          0  ISSUED:          0  USEFUL:          0  USELESS:          0
L1I TOTAL MSHR MERGED:     130100
L1I LOAD MSHR MERGED:     130100
L1I RFO MSHR MERGED:          0
L1I PREFETCH MSHR MERGED:          0
L1I WRITEBACK MSHR MERGED:          0
L1I TOTAL ACCESSES:   96362324 HITS:   96072980 MISSES:     289344
L1I LOAD ACCESSES:   96362324 HITS:   96072980 MISSES:     289344
L1I RFO ACCESSES:          0 HITS:          0 MISSES:          0
L1I PREFETCH ACCESSES:          0 HITS:          0 MISSES:          0
L1I WRITEBACK ACCESSES:          0 HITS:          0 MISSES:          0
L1I RQ ACCESS:  500000245
L1I RQ TO_CACHE:   96362324
L1I RQ MERGED:  403637921
L1I RQ FORWARD:          0
L1I WQ ACCESS:          0
L1I WQ TO_CACHE:          0
L1I WQ MERGED:          0
L1I WQ FORWARD:          0
L2C TOTAL     ACCESS:    5913105  HIT:    3064449  MISS:    2848656
L2C LOAD      ACCESS:    3164875  HIT:    1583843  MISS:    1581032
L2C RFO       ACCESS:      77945  HIT:      45090  MISS:      32855
L2C PREFETCH  ACCESS:    2526739  HIT:    1297554  MISS:    1229185
L2C WRITEBACK ACCESS:     143546  HIT:     137962  MISS:       5584
L2C PREFETCH  REQUESTED:      52723  ISSUED:      52723  USEFUL:      19500  USELESS:    1209725
L2C TOTAL MSHR MERGED:        458
L2C LOAD MSHR MERGED:        112
L2C RFO MSHR MERGED:          0
L2C PREFETCH MSHR MERGED:        346
L2C WRITEBACK MSHR MERGED:          0
L2C TOTAL ACCESSES:    5913663 HITS:    3064546 MISSES:    2849117
L2C LOAD ACCESSES:    3164886 HITS:    1583854 MISSES:    1581032
L2C RFO ACCESSES:      78031 HITS:      45176 MISSES:      32855
L2C PREFETCH ACCESSES:    2527200 HITS:    1297554 MISSES:    1229646
L2C WRITEBACK ACCESSES:     143546 HITS:     137962 MISSES:       5584
L2C RQ ACCESS:    3242917
L2C RQ TO_CACHE:    3242820
L2C RQ MERGED:          0
L2C RQ FORWARD:          0
L2C WQ ACCESS:     143546
L2C WQ TO_CACHE:     143546
L2C WQ MERGED:          0
L2C WQ FORWARD:         97
LLC TOTAL     ACCESS:    2892611  HIT:    1912056  MISS:     980555
LLC LOAD      ACCESS:    1580920  HIT:     925530  MISS:     655390
LLC RFO       ACCESS:      32845  HIT:      32340  MISS:        505
LLC PREFETCH  ACCESS:    1229300  HIT:     905587  MISS:     323713
LLC WRITEBACK ACCESS:      49546  HIT:      48599  MISS:        947
LLC PREFETCH  REQUESTED:          0  ISSUED:          0  USEFUL:      29094  USELESS:     294517
LLC TOTAL MSHR MERGED:          0
LLC LOAD MSHR MERGED:          0
LLC RFO MSHR MERGED:          0
LLC PREFETCH MSHR MERGED:          0
LLC WRITEBACK MSHR MERGED:          0
LLC TOTAL ACCESSES:    2892621 HITS:    1912066 MISSES:     980555
LLC LOAD ACCESSES:    1580920 HITS:     925530 MISSES:     655390
LLC RFO ACCESSES:      32855 HITS:      32350 MISSES:        505
LLC PREFETCH ACCESSES:    1229300 HITS:     905587 MISSES:     323713
LLC WRITEBACK ACCESSES:      49546 HITS:      48599 MISSES:        947
LLC 0 RQ ACCESS:    1613775
LLC 0 RQ TO_CACHE:    1613765
LLC 0 RQ MERGED:          0
LLC 0 RQ FORWARD:          0
LLC WQ ACCESS:      49546
LLC WQ TO_CACHE:      49546
LLC WQ MERGED:          0
LLC WQ FORWARD:         10
Major fault: 0 Minor fault: 8460
CPU 0 L1D next line prefetcher final stats
CPU 0 L2C PC-based stride prefetcher final stats
All Misses: 1174373
All Hits: 2254833
SD Algo Stats - Switches: 0 SRR-Repls: 752285 BRR-Repls: 0

DRAM Statistics
 CHANNEL 0
 RQ ROW_BUFFER_HIT:     324526  ROW_BUFFER_MISS:     654659
 DBUS_CONGESTED:     308780
 WQ ROW_BUFFER_HIT:        262  ROW_BUFFER_MISS:       1326  FULL:          0

 AVG_CONGESTED_CYCLE: 12
LOADS RETIRED: 153532848
INSTR RETIRED: 500000000
