
*** ChampSim Multicore Out-of-Order Simulator ***

Warmup Instructions: 100000000
Simulation Instructions: 500000000
Number of CPUs: 1
LLC sets: 2048
LLC ways: 16
Clean RRIP Policies: 1213210112132101 Dirty RRIP Policies: 2203110122031101 PSEL Width: 10 Track Set: 4294967295 PSEL Mask: 1 Demote Mask: 3010100030101000DS Algo: 0Window size: 0
Off-chip DRAM Size: 4096 MB Channels: 1 Width: 64-bit Data Rate: 1600 MT/s

CPU 0 runs /mnt/beegfs/iconst01/spec2017/Gcc.trace.gz
NOT SORTED
TRACE STRING: /mnt/beegfs/iconst01/spec2017/Gcc.trace.gz
SORTED
TRACE STRING: /mnt/beegfs/iconst01/spec2017/Gcc.trace.gz
INITIAL
TRACE STRING: /mnt/beegfs/iconst01/spec2017/Gcc.trace.gz

champsim_seed used: 269

CPU 0 L1D next line prefetcher
CPU 0 L2C IP-based stride prefetcher
Initialize DRRIP state
Assign rand_sets[0]: 454  LLC: 2048
rand_sets[0]: 454
Assign rand_sets[1]: 1662  LLC: 2048
rand_sets[1]: 1662
Assign rand_sets[2]: 1921  LLC: 2048
rand_sets[2]: 1921
Assign rand_sets[3]: 1131  LLC: 2048
rand_sets[3]: 1131
Assign rand_sets[4]: 331  LLC: 2048
rand_sets[4]: 331
Assign rand_sets[5]: 1531  LLC: 2048
rand_sets[5]: 1531
Assign rand_sets[6]: 482  LLC: 2048
rand_sets[6]: 482
Assign rand_sets[7]: 1275  LLC: 2048
rand_sets[7]: 1275
Assign rand_sets[8]: 1876  LLC: 2048
rand_sets[8]: 1876
Assign rand_sets[9]: 2038  LLC: 2048
rand_sets[9]: 2038
Assign rand_sets[10]: 701  LLC: 2048
rand_sets[10]: 701
Assign rand_sets[11]: 479  LLC: 2048
rand_sets[11]: 479
Assign rand_sets[12]: 892  LLC: 2048
rand_sets[12]: 892
Assign rand_sets[13]: 1820  LLC: 2048
rand_sets[13]: 1820
Assign rand_sets[14]: 1505  LLC: 2048
rand_sets[14]: 1505
Assign rand_sets[15]: 1159  LLC: 2048
rand_sets[15]: 1159
Assign rand_sets[16]: 513  LLC: 2048
rand_sets[16]: 513
Assign rand_sets[17]: 703  LLC: 2048
rand_sets[17]: 703
Assign rand_sets[18]: 561  LLC: 2048
rand_sets[18]: 561
Assign rand_sets[19]: 990  LLC: 2048
rand_sets[19]: 990
Assign rand_sets[20]: 342  LLC: 2048
rand_sets[20]: 342
Assign rand_sets[21]: 882  LLC: 2048
rand_sets[21]: 882
Assign rand_sets[22]: 15  LLC: 2048
rand_sets[22]: 15
Assign rand_sets[23]: 71  LLC: 2048
rand_sets[23]: 71
Assign rand_sets[24]: 1127  LLC: 2048
rand_sets[24]: 1127
Assign rand_sets[25]: 1382  LLC: 2048
rand_sets[25]: 1382
Assign rand_sets[26]: 647  LLC: 2048
rand_sets[26]: 647
Assign rand_sets[27]: 857  LLC: 2048
rand_sets[27]: 857
Assign rand_sets[28]: 1450  LLC: 2048
rand_sets[28]: 1450
Assign rand_sets[29]: 1160  LLC: 2048
rand_sets[29]: 1160
Assign rand_sets[30]: 1852  LLC: 2048
rand_sets[30]: 1852
Assign rand_sets[31]: 1881  LLC: 2048
rand_sets[31]: 1881
Assign rand_sets[32]: 1770  LLC: 2048
rand_sets[32]: 1770
Assign rand_sets[33]: 1622  LLC: 2048
rand_sets[33]: 1622
Assign rand_sets[34]: 275  LLC: 2048
rand_sets[34]: 275
Assign rand_sets[35]: 635  LLC: 2048
rand_sets[35]: 635
Assign rand_sets[36]: 466  LLC: 2048
rand_sets[36]: 466
Assign rand_sets[37]: 1413  LLC: 2048
rand_sets[37]: 1413
Assign rand_sets[38]: 417  LLC: 2048
rand_sets[38]: 417
Assign rand_sets[39]: 472  LLC: 2048
rand_sets[39]: 472
Assign rand_sets[40]: 1340  LLC: 2048
rand_sets[40]: 1340
Assign rand_sets[41]: 852  LLC: 2048
rand_sets[41]: 852
Assign rand_sets[42]: 1365  LLC: 2048
rand_sets[42]: 1365
Assign rand_sets[43]: 47  LLC: 2048
rand_sets[43]: 47
Assign rand_sets[44]: 823  LLC: 2048
rand_sets[44]: 823
Assign rand_sets[45]: 686  LLC: 2048
rand_sets[45]: 686
Assign rand_sets[46]: 1637  LLC: 2048
rand_sets[46]: 1637
Assign rand_sets[47]: 1115  LLC: 2048
rand_sets[47]: 1115
Assign rand_sets[48]: 986  LLC: 2048
rand_sets[48]: 986
Assign rand_sets[49]: 258  LLC: 2048
rand_sets[49]: 258
Assign rand_sets[50]: 633  LLC: 2048
rand_sets[50]: 633
Assign rand_sets[51]: 920  LLC: 2048
rand_sets[51]: 920
Assign rand_sets[52]: 204  LLC: 2048
rand_sets[52]: 204
Assign rand_sets[53]: 227  LLC: 2048
rand_sets[53]: 227
Assign rand_sets[54]: 1818  LLC: 2048
rand_sets[54]: 1818
Assign rand_sets[55]: 886  LLC: 2048
rand_sets[55]: 886
Assign rand_sets[56]: 1422  LLC: 2048
rand_sets[56]: 1422
Assign rand_sets[57]: 607  LLC: 2048
rand_sets[57]: 607
Assign rand_sets[58]: 217  LLC: 2048
rand_sets[58]: 217
Assign rand_sets[59]: 1945  LLC: 2048
rand_sets[59]: 1945
Assign rand_sets[60]: 143  LLC: 2048
rand_sets[60]: 143
Assign rand_sets[61]: 1311  LLC: 2048
rand_sets[61]: 1311
Assign rand_sets[62]: 319  LLC: 2048
rand_sets[62]: 319
Assign rand_sets[63]: 1846  LLC: 2048
rand_sets[63]: 1846
 CLEAN-RRIP-POLICY-1: 1-2-1-3-2-1-0-1- CLEAN-RRIP-POLICY-2: 1-2-1-3-2-1-0-1-
 DIRTY-RRIP-POLICY-1: 2-2-0-3-1-1-0-1- DIRTY-RRIP-POLICY-2: 2-2-0-3-1-1-0-1-
 PSEL width: 10
Heartbeat CPU 0 instructions: 10000001 cycles: 7315978 heartbeat IPC: 1.36687 cumulative IPC: 1.36687 (Simulation time: 0 hr 0 min 14 sec) 
Heartbeat CPU 0 instructions: 20000000 cycles: 14307546 heartbeat IPC: 1.43029 cumulative IPC: 1.39786 (Simulation time: 0 hr 0 min 29 sec) 
Heartbeat CPU 0 instructions: 30000001 cycles: 21020514 heartbeat IPC: 1.48965 cumulative IPC: 1.42718 (Simulation time: 0 hr 0 min 44 sec) 
Heartbeat CPU 0 instructions: 40000000 cycles: 27481353 heartbeat IPC: 1.54779 cumulative IPC: 1.45553 (Simulation time: 0 hr 1 min 0 sec) 
Heartbeat CPU 0 instructions: 50000001 cycles: 33583242 heartbeat IPC: 1.63884 cumulative IPC: 1.48884 (Simulation time: 0 hr 1 min 15 sec) 
Heartbeat CPU 0 instructions: 60000000 cycles: 40064531 heartbeat IPC: 1.5429 cumulative IPC: 1.49758 (Simulation time: 0 hr 1 min 31 sec) 
Heartbeat CPU 0 instructions: 70000000 cycles: 47104088 heartbeat IPC: 1.42054 cumulative IPC: 1.48607 (Simulation time: 0 hr 1 min 46 sec) 
Heartbeat CPU 0 instructions: 80000000 cycles: 54194006 heartbeat IPC: 1.41045 cumulative IPC: 1.47618 (Simulation time: 0 hr 2 min 0 sec) 
Heartbeat CPU 0 instructions: 90000003 cycles: 61198490 heartbeat IPC: 1.42766 cumulative IPC: 1.47062 (Simulation time: 0 hr 2 min 15 sec) 
Heartbeat CPU 0 instructions: 100000000 cycles: 68365941 heartbeat IPC: 1.3952 cumulative IPC: 1.46272 (Simulation time: 0 hr 2 min 29 sec) 

Warmup complete CPU 0 instructions: 100000004 cycles: 68365942 (Simulation time: 0 hr 2 min 29 sec) 

Heartbeat CPU 0 instructions: 110000003 cycles: 96022939 heartbeat IPC: 0.361572 cumulative IPC: 0.361572 (Simulation time: 0 hr 2 min 57 sec) 
Heartbeat CPU 0 instructions: 120000000 cycles: 123493169 heartbeat IPC: 0.36403 cumulative IPC: 0.362797 (Simulation time: 0 hr 3 min 26 sec) 
Heartbeat CPU 0 instructions: 130000000 cycles: 148499759 heartbeat IPC: 0.399895 cumulative IPC: 0.374374 (Simulation time: 0 hr 3 min 54 sec) 
Heartbeat CPU 0 instructions: 140000000 cycles: 178067037 heartbeat IPC: 0.338212 cumulative IPC: 0.364627 (Simulation time: 0 hr 4 min 21 sec) 
Heartbeat CPU 0 instructions: 150000000 cycles: 207944981 heartbeat IPC: 0.334695 cumulative IPC: 0.35822 (Simulation time: 0 hr 4 min 49 sec) 
Heartbeat CPU 0 instructions: 160000000 cycles: 235376789 heartbeat IPC: 0.36454 cumulative IPC: 0.359258 (Simulation time: 0 hr 5 min 16 sec) 
Heartbeat CPU 0 instructions: 170000001 cycles: 263437427 heartbeat IPC: 0.356371 cumulative IPC: 0.358843 (Simulation time: 0 hr 5 min 46 sec) 
Heartbeat CPU 0 instructions: 180000000 cycles: 291920198 heartbeat IPC: 0.351089 cumulative IPC: 0.357855 (Simulation time: 0 hr 6 min 14 sec) 
Heartbeat CPU 0 instructions: 190000002 cycles: 319986741 heartbeat IPC: 0.356296 cumulative IPC: 0.357681 (Simulation time: 0 hr 6 min 43 sec) 
Heartbeat CPU 0 instructions: 200000000 cycles: 348342713 heartbeat IPC: 0.352659 cumulative IPC: 0.357172 (Simulation time: 0 hr 7 min 11 sec) 
Heartbeat CPU 0 instructions: 210000002 cycles: 376228992 heartbeat IPC: 0.358599 cumulative IPC: 0.357302 (Simulation time: 0 hr 7 min 40 sec) 
Heartbeat CPU 0 instructions: 220000000 cycles: 405394607 heartbeat IPC: 0.342869 cumulative IPC: 0.356053 (Simulation time: 0 hr 8 min 7 sec) 
Heartbeat CPU 0 instructions: 230000000 cycles: 432942894 heartbeat IPC: 0.362999 cumulative IPC: 0.356578 (Simulation time: 0 hr 8 min 34 sec) 
Heartbeat CPU 0 instructions: 240000000 cycles: 458839725 heartbeat IPC: 0.386148 cumulative IPC: 0.358539 (Simulation time: 0 hr 9 min 1 sec) 
Heartbeat CPU 0 instructions: 250000000 cycles: 488994611 heartbeat IPC: 0.331621 cumulative IPC: 0.356609 (Simulation time: 0 hr 9 min 30 sec) 
Heartbeat CPU 0 instructions: 260000000 cycles: 516110587 heartbeat IPC: 0.368786 cumulative IPC: 0.357347 (Simulation time: 0 hr 9 min 58 sec) 
Heartbeat CPU 0 instructions: 270000003 cycles: 544606729 heartbeat IPC: 0.350925 cumulative IPC: 0.356962 (Simulation time: 0 hr 10 min 27 sec) 
Heartbeat CPU 0 instructions: 280000000 cycles: 572846746 heartbeat IPC: 0.354107 cumulative IPC: 0.356802 (Simulation time: 0 hr 10 min 56 sec) 
Heartbeat CPU 0 instructions: 290000000 cycles: 601796697 heartbeat IPC: 0.345424 cumulative IPC: 0.356185 (Simulation time: 0 hr 11 min 26 sec) 
Heartbeat CPU 0 instructions: 300000000 cycles: 631807246 heartbeat IPC: 0.333216 cumulative IPC: 0.354962 (Simulation time: 0 hr 11 min 53 sec) 
Heartbeat CPU 0 instructions: 310000001 cycles: 661226109 heartbeat IPC: 0.339918 cumulative IPC: 0.354215 (Simulation time: 0 hr 12 min 21 sec) 
Heartbeat CPU 0 instructions: 320000000 cycles: 689477490 heartbeat IPC: 0.353965 cumulative IPC: 0.354204 (Simulation time: 0 hr 12 min 48 sec) 
Heartbeat CPU 0 instructions: 330000000 cycles: 718137611 heartbeat IPC: 0.348917 cumulative IPC: 0.35397 (Simulation time: 0 hr 13 min 16 sec) 
Heartbeat CPU 0 instructions: 340000000 cycles: 747438357 heartbeat IPC: 0.341288 cumulative IPC: 0.353423 (Simulation time: 0 hr 13 min 43 sec) 
Heartbeat CPU 0 instructions: 350000003 cycles: 774509071 heartbeat IPC: 0.369403 cumulative IPC: 0.354036 (Simulation time: 0 hr 14 min 10 sec) 
Heartbeat CPU 0 instructions: 360000000 cycles: 802641812 heartbeat IPC: 0.355458 cumulative IPC: 0.35409 (Simulation time: 0 hr 14 min 37 sec) 
Heartbeat CPU 0 instructions: 370000000 cycles: 830821947 heartbeat IPC: 0.35486 cumulative IPC: 0.354119 (Simulation time: 0 hr 15 min 3 sec) 
Heartbeat CPU 0 instructions: 380000000 cycles: 859334495 heartbeat IPC: 0.350723 cumulative IPC: 0.353996 (Simulation time: 0 hr 15 min 29 sec) 
Heartbeat CPU 0 instructions: 390000001 cycles: 886950728 heartbeat IPC: 0.362106 cumulative IPC: 0.35427 (Simulation time: 0 hr 15 min 55 sec) 
Heartbeat CPU 0 instructions: 400000000 cycles: 915583648 heartbeat IPC: 0.349248 cumulative IPC: 0.3541 (Simulation time: 0 hr 16 min 22 sec) 
Heartbeat CPU 0 instructions: 410000001 cycles: 942872213 heartbeat IPC: 0.366454 cumulative IPC: 0.354486 (Simulation time: 0 hr 16 min 47 sec) 
Heartbeat CPU 0 instructions: 420000000 cycles: 970172412 heartbeat IPC: 0.366298 cumulative IPC: 0.354843 (Simulation time: 0 hr 17 min 13 sec) 
Heartbeat CPU 0 instructions: 430000002 cycles: 997877896 heartbeat IPC: 0.360939 cumulative IPC: 0.355025 (Simulation time: 0 hr 17 min 38 sec) 
Heartbeat CPU 0 instructions: 440000000 cycles: 1027455748 heartbeat IPC: 0.338091 cumulative IPC: 0.354503 (Simulation time: 0 hr 18 min 3 sec) 
Heartbeat CPU 0 instructions: 450000002 cycles: 1056699974 heartbeat IPC: 0.341948 cumulative IPC: 0.354131 (Simulation time: 0 hr 18 min 29 sec) 
Heartbeat CPU 0 instructions: 460000000 cycles: 1084394624 heartbeat IPC: 0.36108 cumulative IPC: 0.354321 (Simulation time: 0 hr 18 min 54 sec) 
Heartbeat CPU 0 instructions: 470000000 cycles: 1112026546 heartbeat IPC: 0.3619 cumulative IPC: 0.354521 (Simulation time: 0 hr 19 min 19 sec) 
Heartbeat CPU 0 instructions: 480000000 cycles: 1139916614 heartbeat IPC: 0.358551 cumulative IPC: 0.354626 (Simulation time: 0 hr 19 min 44 sec) 
Heartbeat CPU 0 instructions: 490000000 cycles: 1167503569 heartbeat IPC: 0.36249 cumulative IPC: 0.354824 (Simulation time: 0 hr 20 min 9 sec) 
Heartbeat CPU 0 instructions: 500000000 cycles: 1195827728 heartbeat IPC: 0.353056 cumulative IPC: 0.354779 (Simulation time: 0 hr 20 min 34 sec) 
Heartbeat CPU 0 instructions: 510000000 cycles: 1230197543 heartbeat IPC: 0.290953 cumulative IPC: 0.352891 (Simulation time: 0 hr 21 min 3 sec) 
Heartbeat CPU 0 instructions: 520000000 cycles: 1258204900 heartbeat IPC: 0.357049 cumulative IPC: 0.352989 (Simulation time: 0 hr 21 min 29 sec) 
Heartbeat CPU 0 instructions: 530000001 cycles: 1287538284 heartbeat IPC: 0.340909 cumulative IPC: 0.352698 (Simulation time: 0 hr 21 min 55 sec) 
Heartbeat CPU 0 instructions: 540000000 cycles: 1315581865 heartbeat IPC: 0.356588 cumulative IPC: 0.352786 (Simulation time: 0 hr 22 min 21 sec) 
Heartbeat CPU 0 instructions: 550000001 cycles: 1344772948 heartbeat IPC: 0.34257 cumulative IPC: 0.352552 (Simulation time: 0 hr 22 min 49 sec) 
Heartbeat CPU 0 instructions: 560000000 cycles: 1370164260 heartbeat IPC: 0.393835 cumulative IPC: 0.353357 (Simulation time: 0 hr 23 min 14 sec) 
Heartbeat CPU 0 instructions: 570000000 cycles: 1399734815 heartbeat IPC: 0.338174 cumulative IPC: 0.35302 (Simulation time: 0 hr 23 min 41 sec) 
Heartbeat CPU 0 instructions: 580000000 cycles: 1427717240 heartbeat IPC: 0.357367 cumulative IPC: 0.35311 (Simulation time: 0 hr 24 min 7 sec) 
Heartbeat CPU 0 instructions: 590000001 cycles: 1452440459 heartbeat IPC: 0.404478 cumulative IPC: 0.354027 (Simulation time: 0 hr 24 min 32 sec) 
Heartbeat CPU 0 instructions: 600000000 cycles: 1478487258 heartbeat IPC: 0.383924 cumulative IPC: 0.354579 (Simulation time: 0 hr 24 min 57 sec) 
Finished CPU 0 instructions: 500000000 cycles: 1410121338 cumulative IPC: 0.354579 (Simulation time: 0 hr 24 min 57 sec) 

CPU 0 Branch Prediction Accuracy: 86.4311% MPKI: 26.2662
Number of Branches: 96788573 Number of Mispredictions: 13133102
Number of LOAD Instructions: 164682285
Number of LOAD Instructions (ROI): 164682285
Number of STORE Instructions: 78194750
Number of STORE Instructions (ROI): 78194750
Total Destination Memory Operands: 83268534
Total Destination Memory Operands (ROI): 83268534
Total Source Memory Operands: 164712438
Total Source Memory Operands (ROI): 164712438
Number of DEPENDED LOADS: 7057027
Number of DEPENDED LOADS (ROI): 7057027
Number of SQ_ADDED: 83268522
Number of SQ_ADDED (ROI): 83268522
Number of LQ_ADDED: 236764334
Number of LQ_ADDED (ROI): 236764334
Number of Instructions read from trace: 600000066

ChampSim completed all CPUs

Region of Interest Statistics

CPU 0 cumulative IPC: 0.354579 instructions: 500000000 cycles: 1410121338
ITLB TOTAL     ACCESS:  100519919  HIT:  100315473  MISS:     204446
ITLB LOAD      ACCESS:  100519919  HIT:  100315473  MISS:     204446
ITLB RFO       ACCESS:          0  HIT:          0  MISS:          0
ITLB PREFETCH  ACCESS:          0  HIT:          0  MISS:          0
ITLB WRITEBACK ACCESS:          0  HIT:          0  MISS:          0
ITLB PREFETCH  REQUESTED:          0  ISSUED:          0  USEFUL:          0  USELESS:          0
ITLB TOTAL MSHR MERGED:     172424
ITLB LOAD MSHR MERGED:     172424
ITLB RFO MSHR MERGED:          0
ITLB PREFETCH MSHR MERGED:          0
ITLB WRITEBACK MSHR MERGED:          0
ITLB TOTAL ACCESSES:  100692343 HITS:  100315473 MISSES:     376870
ITLB LOAD ACCESSES:  100692343 HITS:  100315473 MISSES:     376870
ITLB RFO ACCESSES:          0 HITS:          0 MISSES:          0
ITLB PREFETCH ACCESSES:          0 HITS:          0 MISSES:          0
ITLB WRITEBACK ACCESSES:          0 HITS:          0 MISSES:          0
ITLB RQ ACCESS:  500000057
ITLB RQ TO_CACHE:  100692343
ITLB RQ MERGED:  399307714
ITLB RQ FORWARD:          0
ITLB WQ ACCESS:          0
ITLB WQ TO_CACHE:          0
ITLB WQ MERGED:          0
ITLB WQ FORWARD:          0
DTLB TOTAL     ACCESS:  165339079  HIT:  164704727  MISS:     634352
DTLB LOAD      ACCESS:  106294320  HIT:  105724396  MISS:     569924
DTLB RFO       ACCESS:   59044759  HIT:   58980331  MISS:      64428
DTLB PREFETCH  ACCESS:          0  HIT:          0  MISS:          0
DTLB WRITEBACK ACCESS:          0  HIT:          0  MISS:          0
DTLB PREFETCH  REQUESTED:          0  ISSUED:          0  USEFUL:          0  USELESS:          0
DTLB TOTAL MSHR MERGED:      99936
DTLB LOAD MSHR MERGED:      59423
DTLB RFO MSHR MERGED:      40513
DTLB PREFETCH MSHR MERGED:          0
DTLB WRITEBACK MSHR MERGED:          0
DTLB TOTAL ACCESSES:  165439015 HITS:  164704727 MISSES:     734288
DTLB LOAD ACCESSES:  106353743 HITS:  105724396 MISSES:     629347
DTLB RFO ACCESSES:   59085272 HITS:   58980331 MISSES:     104941
DTLB PREFETCH ACCESSES:          0 HITS:          0 MISSES:          0
DTLB WRITEBACK ACCESSES:          0 HITS:          0 MISSES:          0
DTLB RQ ACCESS:  200313841
DTLB RQ TO_CACHE:  165439015
DTLB RQ MERGED:   34874826
DTLB RQ FORWARD:          0
DTLB WQ ACCESS:          0
DTLB WQ TO_CACHE:          0
DTLB WQ MERGED:          0
DTLB WQ FORWARD:          0
L1D TOTAL     ACCESS:  281838989  HIT:  273929643  MISS:    7909346
L1D LOAD      ACCESS:  110419582  HIT:  107141628  MISS:    3277954
L1D RFO       ACCESS:   67119349  HIT:   66228707  MISS:     890642
L1D PREFETCH  ACCESS:  104300058  HIT:  100559308  MISS:    3740750
L1D WRITEBACK ACCESS:          0  HIT:          0  MISS:          0
L1D PREFETCH  REQUESTED:  110819672  ISSUED:  109120336  USEFUL:    1661445  USELESS:    2079269
L1D TOTAL MSHR MERGED:    2870358
L1D LOAD MSHR MERGED:     497519
L1D RFO MSHR MERGED:    1866741
L1D PREFETCH MSHR MERGED:     506098
L1D WRITEBACK MSHR MERGED:          0
L1D TOTAL ACCESSES:  284736785 HITS:  273957081 MISSES:   10779704
L1D LOAD ACCESSES:  110821112 HITS:  107143068 MISSES:    3678044
L1D RFO ACCESSES:   68974253 HITS:   66228707 MISSES:    2745546
L1D PREFETCH ACCESSES:  104941420 HITS:  100585306 MISSES:    4356114
L1D WRITEBACK ACCESSES:          0 HITS:          0 MISSES:          0
L1D RQ ACCESS:  130761238
L1D RQ TO_CACHE:  110819675
L1D RQ MERGED:   19940123
L1D RQ FORWARD:          0
L1D WQ ACCESS:   69552603
L1D WQ TO_CACHE:   68974254
L1D WQ MERGED:     578349
L1D WQ FORWARD:      27438
L1I TOTAL     ACCESS:  126567238  HIT:  122328685  MISS:    4238553
L1I LOAD      ACCESS:  126567238  HIT:  122328685  MISS:    4238553
L1I RFO       ACCESS:          0  HIT:          0  MISS:          0
L1I PREFETCH  ACCESS:          0  HIT:          0  MISS:          0
L1I WRITEBACK ACCESS:          0  HIT:          0  MISS:          0
L1I PREFETCH  REQUESTED:          0  ISSUED:          0  USEFUL:          0  USELESS:          0
L1I TOTAL MSHR MERGED:    1834669
L1I LOAD MSHR MERGED:    1834669
L1I RFO MSHR MERGED:          0
L1I PREFETCH MSHR MERGED:          0
L1I WRITEBACK MSHR MERGED:          0
L1I TOTAL ACCESSES:  128401910 HITS:  122328685 MISSES:    6073225
L1I LOAD ACCESSES:  128401910 HITS:  122328685 MISSES:    6073225
L1I RFO ACCESSES:          0 HITS:          0 MISSES:          0
L1I PREFETCH ACCESSES:          0 HITS:          0 MISSES:          0
L1I WRITEBACK ACCESSES:          0 HITS:          0 MISSES:          0
L1I RQ ACCESS:  500000057
L1I RQ TO_CACHE:  128401910
L1I RQ MERGED:  371598147
L1I RQ FORWARD:          0
L1I WQ ACCESS:          0
L1I WQ TO_CACHE:          0
L1I WQ MERGED:          0
L1I WQ FORWARD:          0
L2C TOTAL     ACCESS:   14905230  HIT:   11158711  MISS:    3746519
L2C LOAD      ACCESS:    7418868  HIT:    5098867  MISS:    2320001
L2C RFO       ACCESS:     878708  HIT:     409906  MISS:     468802
L2C PREFETCH  ACCESS:    4568412  HIT:    3627954  MISS:     940458
L2C WRITEBACK ACCESS:    2039242  HIT:    2021984  MISS:      17258
L2C PREFETCH  REQUESTED:     842822  ISSUED:     842822  USEFUL:     203378  USELESS:     736786
L2C TOTAL MSHR MERGED:       7143
L2C LOAD MSHR MERGED:        806
L2C RFO MSHR MERGED:          0
L2C PREFETCH MSHR MERGED:       6337
L2C WRITEBACK MSHR MERGED:          0
L2C TOTAL ACCESSES:   14913226 HITS:   11159163 MISSES:    3754063
L2C LOAD ACCESSES:    7419078 HITS:    5099077 MISSES:    2320001
L2C RFO ACCESSES:     878805 HITS:     410003 MISSES:     468802
L2C PREFETCH ACCESSES:    4576101 HITS:    3628099 MISSES:     948002
L2C WRITEBACK ACCESSES:    2039242 HITS:    2021984 MISSES:      17258
L2C RQ ACCESS:    8297886
L2C RQ TO_CACHE:    8297579
L2C RQ MERGED:          0
L2C RQ FORWARD:          0
L2C WQ ACCESS:    2039242
L2C WQ TO_CACHE:    2039242
L2C WQ MERGED:          0
L2C WQ FORWARD:        452
LLC TOTAL     ACCESS:    4609834  HIT:    3985916  MISS:     623918
LLC LOAD      ACCESS:    2319180  HIT:    2067347  MISS:     251833
LLC RFO       ACCESS:     468792  HIT:     403995  MISS:      64797
LLC PREFETCH  ACCESS:     941559  HIT:     660248  MISS:     281311
LLC WRITEBACK ACCESS:     880303  HIT:     854326  MISS:      25977
LLC PREFETCH  REQUESTED:          0  ISSUED:          0  USEFUL:      16272  USELESS:     265070
LLC TOTAL MSHR MERGED:         88
LLC LOAD MSHR MERGED:         27
LLC RFO MSHR MERGED:          0
LLC PREFETCH MSHR MERGED:         61
LLC WRITEBACK MSHR MERGED:          0
LLC TOTAL ACCESSES:    4609958 HITS:    3985952 MISSES:     624006
LLC LOAD ACCESSES:    2319195 HITS:    2067362 MISSES:     251833
LLC RFO ACCESSES:     468802 HITS:     404005 MISSES:      64797
LLC PREFETCH ACCESSES:     941658 HITS:     660259 MISSES:     281399
LLC WRITEBACK ACCESSES:     880303 HITS:     854326 MISSES:      25977
LLC 0 RQ ACCESS:    2787997
LLC 0 RQ TO_CACHE:    2787972
LLC 0 RQ MERGED:          0
LLC 0 RQ FORWARD:          0
LLC WQ ACCESS:     880303
LLC WQ TO_CACHE:     880303
LLC WQ MERGED:          0
LLC WQ FORWARD:         36
Major fault: 0 Minor fault: 12862
CPU 0 L1D next line prefetcher final stats
CPU 0 L2C PC-based stride prefetcher final stats
All Misses: 743344
All Hits: 4683496
SD Algo Stats - Switches: 0 SRR-Repls: 297600 BRR-Repls: 0

DRAM Statistics
 CHANNEL 0
 RQ ROW_BUFFER_HIT:     124924  ROW_BUFFER_MISS:     471962
 DBUS_CONGESTED:     334411
 WQ ROW_BUFFER_HIT:      11914  ROW_BUFFER_MISS:     162554  FULL:          0

 AVG_CONGESTED_CYCLE: 13
LOADS RETIRED: 136549171
INSTR RETIRED: 500000000
