
*** ChampSim Multicore Out-of-Order Simulator ***

Warmup Instructions: 100000000
Simulation Instructions: 500000000
Number of CPUs: 1
LLC sets: 2048
LLC ways: 16
Clean RRIP Policies: 1213210112132101 Dirty RRIP Policies: 2203110122031101 PSEL Width: 10 Track Set: 4294967295 PSEL Mask: 1 Demote Mask: 3010100030101000DS Algo: 0Window size: 0
Off-chip DRAM Size: 4096 MB Channels: 1 Width: 64-bit Data Rate: 1600 MT/s

CPU 0 runs /mnt/beegfs/iconst01/spec2017/Mcf.trace.gz
NOT SORTED
TRACE STRING: /mnt/beegfs/iconst01/spec2017/Mcf.trace.gz
SORTED
TRACE STRING: /mnt/beegfs/iconst01/spec2017/Mcf.trace.gz
INITIAL
TRACE STRING: /mnt/beegfs/iconst01/spec2017/Mcf.trace.gz

champsim_seed used: 278

CPU 0 L1D next line prefetcher
CPU 0 L2C IP-based stride prefetcher
Initialize DRRIP state
Assign rand_sets[0]: 454  LLC: 2048
rand_sets[0]: 454
Assign rand_sets[1]: 1662  LLC: 2048
rand_sets[1]: 1662
Assign rand_sets[2]: 1921  LLC: 2048
rand_sets[2]: 1921
Assign rand_sets[3]: 1131  LLC: 2048
rand_sets[3]: 1131
Assign rand_sets[4]: 331  LLC: 2048
rand_sets[4]: 331
Assign rand_sets[5]: 1531  LLC: 2048
rand_sets[5]: 1531
Assign rand_sets[6]: 482  LLC: 2048
rand_sets[6]: 482
Assign rand_sets[7]: 1275  LLC: 2048
rand_sets[7]: 1275
Assign rand_sets[8]: 1876  LLC: 2048
rand_sets[8]: 1876
Assign rand_sets[9]: 2038  LLC: 2048
rand_sets[9]: 2038
Assign rand_sets[10]: 701  LLC: 2048
rand_sets[10]: 701
Assign rand_sets[11]: 479  LLC: 2048
rand_sets[11]: 479
Assign rand_sets[12]: 892  LLC: 2048
rand_sets[12]: 892
Assign rand_sets[13]: 1820  LLC: 2048
rand_sets[13]: 1820
Assign rand_sets[14]: 1505  LLC: 2048
rand_sets[14]: 1505
Assign rand_sets[15]: 1159  LLC: 2048
rand_sets[15]: 1159
Assign rand_sets[16]: 513  LLC: 2048
rand_sets[16]: 513
Assign rand_sets[17]: 703  LLC: 2048
rand_sets[17]: 703
Assign rand_sets[18]: 561  LLC: 2048
rand_sets[18]: 561
Assign rand_sets[19]: 990  LLC: 2048
rand_sets[19]: 990
Assign rand_sets[20]: 342  LLC: 2048
rand_sets[20]: 342
Assign rand_sets[21]: 882  LLC: 2048
rand_sets[21]: 882
Assign rand_sets[22]: 15  LLC: 2048
rand_sets[22]: 15
Assign rand_sets[23]: 71  LLC: 2048
rand_sets[23]: 71
Assign rand_sets[24]: 1127  LLC: 2048
rand_sets[24]: 1127
Assign rand_sets[25]: 1382  LLC: 2048
rand_sets[25]: 1382
Assign rand_sets[26]: 647  LLC: 2048
rand_sets[26]: 647
Assign rand_sets[27]: 857  LLC: 2048
rand_sets[27]: 857
Assign rand_sets[28]: 1450  LLC: 2048
rand_sets[28]: 1450
Assign rand_sets[29]: 1160  LLC: 2048
rand_sets[29]: 1160
Assign rand_sets[30]: 1852  LLC: 2048
rand_sets[30]: 1852
Assign rand_sets[31]: 1881  LLC: 2048
rand_sets[31]: 1881
Assign rand_sets[32]: 1770  LLC: 2048
rand_sets[32]: 1770
Assign rand_sets[33]: 1622  LLC: 2048
rand_sets[33]: 1622
Assign rand_sets[34]: 275  LLC: 2048
rand_sets[34]: 275
Assign rand_sets[35]: 635  LLC: 2048
rand_sets[35]: 635
Assign rand_sets[36]: 466  LLC: 2048
rand_sets[36]: 466
Assign rand_sets[37]: 1413  LLC: 2048
rand_sets[37]: 1413
Assign rand_sets[38]: 417  LLC: 2048
rand_sets[38]: 417
Assign rand_sets[39]: 472  LLC: 2048
rand_sets[39]: 472
Assign rand_sets[40]: 1340  LLC: 2048
rand_sets[40]: 1340
Assign rand_sets[41]: 852  LLC: 2048
rand_sets[41]: 852
Assign rand_sets[42]: 1365  LLC: 2048
rand_sets[42]: 1365
Assign rand_sets[43]: 47  LLC: 2048
rand_sets[43]: 47
Assign rand_sets[44]: 823  LLC: 2048
rand_sets[44]: 823
Assign rand_sets[45]: 686  LLC: 2048
rand_sets[45]: 686
Assign rand_sets[46]: 1637  LLC: 2048
rand_sets[46]: 1637
Assign rand_sets[47]: 1115  LLC: 2048
rand_sets[47]: 1115
Assign rand_sets[48]: 986  LLC: 2048
rand_sets[48]: 986
Assign rand_sets[49]: 258  LLC: 2048
rand_sets[49]: 258
Assign rand_sets[50]: 633  LLC: 2048
rand_sets[50]: 633
Assign rand_sets[51]: 920  LLC: 2048
rand_sets[51]: 920
Assign rand_sets[52]: 204  LLC: 2048
rand_sets[52]: 204
Assign rand_sets[53]: 227  LLC: 2048
rand_sets[53]: 227
Assign rand_sets[54]: 1818  LLC: 2048
rand_sets[54]: 1818
Assign rand_sets[55]: 886  LLC: 2048
rand_sets[55]: 886
Assign rand_sets[56]: 1422  LLC: 2048
rand_sets[56]: 1422
Assign rand_sets[57]: 607  LLC: 2048
rand_sets[57]: 607
Assign rand_sets[58]: 217  LLC: 2048
rand_sets[58]: 217
Assign rand_sets[59]: 1945  LLC: 2048
rand_sets[59]: 1945
Assign rand_sets[60]: 143  LLC: 2048
rand_sets[60]: 143
Assign rand_sets[61]: 1311  LLC: 2048
rand_sets[61]: 1311
Assign rand_sets[62]: 319  LLC: 2048
rand_sets[62]: 319
Assign rand_sets[63]: 1846  LLC: 2048
rand_sets[63]: 1846
 CLEAN-RRIP-POLICY-1: 1-2-1-3-2-1-0-1- CLEAN-RRIP-POLICY-2: 1-2-1-3-2-1-0-1-
 DIRTY-RRIP-POLICY-1: 2-2-0-3-1-1-0-1- DIRTY-RRIP-POLICY-2: 2-2-0-3-1-1-0-1-
 PSEL width: 10
Heartbeat CPU 0 instructions: 10000002 cycles: 6248368 heartbeat IPC: 1.60042 cumulative IPC: 1.60042 (Simulation time: 0 hr 0 min 13 sec) 
Heartbeat CPU 0 instructions: 20000000 cycles: 12468913 heartbeat IPC: 1.60758 cumulative IPC: 1.60399 (Simulation time: 0 hr 0 min 26 sec) 
Heartbeat CPU 0 instructions: 30000000 cycles: 18678980 heartbeat IPC: 1.61029 cumulative IPC: 1.60608 (Simulation time: 0 hr 0 min 39 sec) 
Heartbeat CPU 0 instructions: 40000000 cycles: 24889340 heartbeat IPC: 1.61021 cumulative IPC: 1.60711 (Simulation time: 0 hr 0 min 52 sec) 
Heartbeat CPU 0 instructions: 50000003 cycles: 31101561 heartbeat IPC: 1.60973 cumulative IPC: 1.60764 (Simulation time: 0 hr 1 min 5 sec) 
Heartbeat CPU 0 instructions: 60000000 cycles: 37297551 heartbeat IPC: 1.61395 cumulative IPC: 1.60868 (Simulation time: 0 hr 1 min 18 sec) 
Heartbeat CPU 0 instructions: 70000003 cycles: 43515760 heartbeat IPC: 1.60818 cumulative IPC: 1.60861 (Simulation time: 0 hr 1 min 31 sec) 
Heartbeat CPU 0 instructions: 80000000 cycles: 49746028 heartbeat IPC: 1.60507 cumulative IPC: 1.60817 (Simulation time: 0 hr 1 min 45 sec) 
Heartbeat CPU 0 instructions: 90000000 cycles: 55974818 heartbeat IPC: 1.60545 cumulative IPC: 1.60787 (Simulation time: 0 hr 1 min 58 sec) 
Heartbeat CPU 0 instructions: 100000000 cycles: 62193572 heartbeat IPC: 1.60804 cumulative IPC: 1.60788 (Simulation time: 0 hr 2 min 12 sec) 

Warmup complete CPU 0 instructions: 100000001 cycles: 62193573 (Simulation time: 0 hr 2 min 12 sec) 

Heartbeat CPU 0 instructions: 110000000 cycles: 86770259 heartbeat IPC: 0.40689 cumulative IPC: 0.40689 (Simulation time: 0 hr 2 min 37 sec) 
Heartbeat CPU 0 instructions: 120000000 cycles: 111440950 heartbeat IPC: 0.405339 cumulative IPC: 0.406113 (Simulation time: 0 hr 3 min 2 sec) 
Heartbeat CPU 0 instructions: 130000000 cycles: 136186199 heartbeat IPC: 0.404118 cumulative IPC: 0.405446 (Simulation time: 0 hr 3 min 28 sec) 
Heartbeat CPU 0 instructions: 140000000 cycles: 160886148 heartbeat IPC: 0.404859 cumulative IPC: 0.405299 (Simulation time: 0 hr 3 min 53 sec) 
Heartbeat CPU 0 instructions: 150000003 cycles: 185473300 heartbeat IPC: 0.406717 cumulative IPC: 0.405582 (Simulation time: 0 hr 4 min 19 sec) 
Heartbeat CPU 0 instructions: 160000000 cycles: 210329219 heartbeat IPC: 0.402319 cumulative IPC: 0.405034 (Simulation time: 0 hr 4 min 44 sec) 
Heartbeat CPU 0 instructions: 170000001 cycles: 235057155 heartbeat IPC: 0.404401 cumulative IPC: 0.404944 (Simulation time: 0 hr 5 min 10 sec) 
Heartbeat CPU 0 instructions: 180000000 cycles: 259777952 heartbeat IPC: 0.404518 cumulative IPC: 0.40489 (Simulation time: 0 hr 5 min 36 sec) 
Heartbeat CPU 0 instructions: 190000003 cycles: 284462320 heartbeat IPC: 0.405115 cumulative IPC: 0.404915 (Simulation time: 0 hr 6 min 1 sec) 
Heartbeat CPU 0 instructions: 200000000 cycles: 309185493 heartbeat IPC: 0.404479 cumulative IPC: 0.404872 (Simulation time: 0 hr 6 min 27 sec) 
Heartbeat CPU 0 instructions: 210000003 cycles: 333965501 heartbeat IPC: 0.403551 cumulative IPC: 0.404751 (Simulation time: 0 hr 6 min 52 sec) 
Heartbeat CPU 0 instructions: 220000000 cycles: 358932979 heartbeat IPC: 0.400521 cumulative IPC: 0.404395 (Simulation time: 0 hr 7 min 18 sec) 
Heartbeat CPU 0 instructions: 230000002 cycles: 383558492 heartbeat IPC: 0.406083 cumulative IPC: 0.404525 (Simulation time: 0 hr 7 min 44 sec) 
Heartbeat CPU 0 instructions: 240000000 cycles: 408492385 heartbeat IPC: 0.40106 cumulative IPC: 0.404275 (Simulation time: 0 hr 8 min 9 sec) 
Heartbeat CPU 0 instructions: 250000000 cycles: 433247350 heartbeat IPC: 0.403959 cumulative IPC: 0.404254 (Simulation time: 0 hr 8 min 35 sec) 
Heartbeat CPU 0 instructions: 260000000 cycles: 457953705 heartbeat IPC: 0.404754 cumulative IPC: 0.404285 (Simulation time: 0 hr 9 min 1 sec) 
Heartbeat CPU 0 instructions: 270000001 cycles: 482756024 heartbeat IPC: 0.403188 cumulative IPC: 0.404221 (Simulation time: 0 hr 9 min 26 sec) 
Heartbeat CPU 0 instructions: 280000000 cycles: 507489841 heartbeat IPC: 0.404305 cumulative IPC: 0.404225 (Simulation time: 0 hr 9 min 52 sec) 
Heartbeat CPU 0 instructions: 290000001 cycles: 532305717 heartbeat IPC: 0.402968 cumulative IPC: 0.404159 (Simulation time: 0 hr 10 min 18 sec) 
Heartbeat CPU 0 instructions: 300000000 cycles: 557278822 heartbeat IPC: 0.400431 cumulative IPC: 0.403971 (Simulation time: 0 hr 10 min 44 sec) 
Heartbeat CPU 0 instructions: 310000003 cycles: 581906436 heartbeat IPC: 0.406048 cumulative IPC: 0.404069 (Simulation time: 0 hr 11 min 10 sec) 
Heartbeat CPU 0 instructions: 320000000 cycles: 606887387 heartbeat IPC: 0.400305 cumulative IPC: 0.403897 (Simulation time: 0 hr 11 min 35 sec) 
Heartbeat CPU 0 instructions: 330000003 cycles: 631617640 heartbeat IPC: 0.404363 cumulative IPC: 0.403917 (Simulation time: 0 hr 12 min 1 sec) 
Heartbeat CPU 0 instructions: 340000000 cycles: 656637873 heartbeat IPC: 0.399676 cumulative IPC: 0.403738 (Simulation time: 0 hr 12 min 27 sec) 
Heartbeat CPU 0 instructions: 350000002 cycles: 681627167 heartbeat IPC: 0.400171 cumulative IPC: 0.403595 (Simulation time: 0 hr 12 min 52 sec) 
Heartbeat CPU 0 instructions: 360000000 cycles: 706754507 heartbeat IPC: 0.397973 cumulative IPC: 0.403375 (Simulation time: 0 hr 13 min 18 sec) 
Heartbeat CPU 0 instructions: 370000000 cycles: 731661308 heartbeat IPC: 0.401497 cumulative IPC: 0.403305 (Simulation time: 0 hr 13 min 43 sec) 
Heartbeat CPU 0 instructions: 380000000 cycles: 756383243 heartbeat IPC: 0.404499 cumulative IPC: 0.403348 (Simulation time: 0 hr 14 min 9 sec) 
Heartbeat CPU 0 instructions: 390000002 cycles: 781126327 heartbeat IPC: 0.404153 cumulative IPC: 0.403376 (Simulation time: 0 hr 14 min 34 sec) 
Heartbeat CPU 0 instructions: 400000000 cycles: 806041540 heartbeat IPC: 0.401361 cumulative IPC: 0.403308 (Simulation time: 0 hr 15 min 0 sec) 
Heartbeat CPU 0 instructions: 410000002 cycles: 830865162 heartbeat IPC: 0.402842 cumulative IPC: 0.403293 (Simulation time: 0 hr 15 min 25 sec) 
Heartbeat CPU 0 instructions: 420000000 cycles: 855482272 heartbeat IPC: 0.406221 cumulative IPC: 0.403384 (Simulation time: 0 hr 15 min 51 sec) 
Heartbeat CPU 0 instructions: 430000000 cycles: 880330227 heartbeat IPC: 0.402448 cumulative IPC: 0.403356 (Simulation time: 0 hr 16 min 17 sec) 
Heartbeat CPU 0 instructions: 440000000 cycles: 904887538 heartbeat IPC: 0.407211 cumulative IPC: 0.403468 (Simulation time: 0 hr 16 min 42 sec) 
Heartbeat CPU 0 instructions: 450000000 cycles: 929880266 heartbeat IPC: 0.400116 cumulative IPC: 0.403371 (Simulation time: 0 hr 17 min 8 sec) 
Heartbeat CPU 0 instructions: 460000000 cycles: 954783979 heartbeat IPC: 0.401547 cumulative IPC: 0.40332 (Simulation time: 0 hr 17 min 34 sec) 
Heartbeat CPU 0 instructions: 470000001 cycles: 979474170 heartbeat IPC: 0.405019 cumulative IPC: 0.403366 (Simulation time: 0 hr 17 min 59 sec) 
Heartbeat CPU 0 instructions: 480000000 cycles: 1004351965 heartbeat IPC: 0.401965 cumulative IPC: 0.403329 (Simulation time: 0 hr 18 min 25 sec) 
Heartbeat CPU 0 instructions: 490000000 cycles: 1029322262 heartbeat IPC: 0.400476 cumulative IPC: 0.403256 (Simulation time: 0 hr 18 min 51 sec) 
Heartbeat CPU 0 instructions: 500000000 cycles: 1054602773 heartbeat IPC: 0.395562 cumulative IPC: 0.40306 (Simulation time: 0 hr 19 min 16 sec) 
Heartbeat CPU 0 instructions: 510000003 cycles: 1079762043 heartbeat IPC: 0.397468 cumulative IPC: 0.402921 (Simulation time: 0 hr 19 min 42 sec) 
Heartbeat CPU 0 instructions: 520000000 cycles: 1105084923 heartbeat IPC: 0.3949 cumulative IPC: 0.402727 (Simulation time: 0 hr 20 min 7 sec) 
Heartbeat CPU 0 instructions: 530000003 cycles: 1130425686 heartbeat IPC: 0.394621 cumulative IPC: 0.402534 (Simulation time: 0 hr 20 min 33 sec) 
Heartbeat CPU 0 instructions: 540000000 cycles: 1155688688 heartbeat IPC: 0.395836 cumulative IPC: 0.402379 (Simulation time: 0 hr 20 min 58 sec) 
Heartbeat CPU 0 instructions: 550000000 cycles: 1180963712 heartbeat IPC: 0.395647 cumulative IPC: 0.402227 (Simulation time: 0 hr 21 min 24 sec) 
Heartbeat CPU 0 instructions: 560000000 cycles: 1206554372 heartbeat IPC: 0.390768 cumulative IPC: 0.401971 (Simulation time: 0 hr 21 min 49 sec) 
Heartbeat CPU 0 instructions: 570000001 cycles: 1232073880 heartbeat IPC: 0.391857 cumulative IPC: 0.401751 (Simulation time: 0 hr 22 min 15 sec) 
Heartbeat CPU 0 instructions: 580000000 cycles: 1257587103 heartbeat IPC: 0.391954 cumulative IPC: 0.401541 (Simulation time: 0 hr 22 min 41 sec) 
Heartbeat CPU 0 instructions: 590000000 cycles: 1283263589 heartbeat IPC: 0.389461 cumulative IPC: 0.401287 (Simulation time: 0 hr 23 min 6 sec) 
Heartbeat CPU 0 instructions: 600000000 cycles: 1309028845 heartbeat IPC: 0.38812 cumulative IPC: 0.401015 (Simulation time: 0 hr 23 min 32 sec) 
Finished CPU 0 instructions: 500000003 cycles: 1246835285 cumulative IPC: 0.401015 (Simulation time: 0 hr 23 min 32 sec) 

CPU 0 Branch Prediction Accuracy: 91.1342% MPKI: 18.7968
Number of Branches: 106006945 Number of Mispredictions: 9398408
Number of LOAD Instructions: 207894007
Number of LOAD Instructions (ROI): 207894007
Number of STORE Instructions: 54285997
Number of STORE Instructions (ROI): 54285997
Total Destination Memory Operands: 57463404
Total Destination Memory Operands (ROI): 57463404
Total Source Memory Operands: 207894007
Total Source Memory Operands (ROI): 207894007
Number of DEPENDED LOADS: 18105994
Number of DEPENDED LOADS (ROI): 18105994
Number of SQ_ADDED: 57463404
Number of SQ_ADDED (ROI): 57463404
Number of LQ_ADDED: 209237883
Number of LQ_ADDED (ROI): 209237883
Number of Instructions read from trace: 600000039

ChampSim completed all CPUs

Region of Interest Statistics

CPU 0 cumulative IPC: 0.401015 instructions: 500000003 cycles: 1246835285
ITLB TOTAL     ACCESS:   96420555  HIT:   96420555  MISS:          0
ITLB LOAD      ACCESS:   96420555  HIT:   96420555  MISS:          0
ITLB RFO       ACCESS:          0  HIT:          0  MISS:          0
ITLB PREFETCH  ACCESS:          0  HIT:          0  MISS:          0
ITLB WRITEBACK ACCESS:          0  HIT:          0  MISS:          0
ITLB PREFETCH  REQUESTED:          0  ISSUED:          0  USEFUL:          0  USELESS:          0
ITLB TOTAL MSHR MERGED:          0
ITLB LOAD MSHR MERGED:          0
ITLB RFO MSHR MERGED:          0
ITLB PREFETCH MSHR MERGED:          0
ITLB WRITEBACK MSHR MERGED:          0
ITLB TOTAL ACCESSES:   96420555 HITS:   96420555 MISSES:          0
ITLB LOAD ACCESSES:   96420555 HITS:   96420555 MISSES:          0
ITLB RFO ACCESSES:          0 HITS:          0 MISSES:          0
ITLB PREFETCH ACCESSES:          0 HITS:          0 MISSES:          0
ITLB WRITEBACK ACCESSES:          0 HITS:          0 MISSES:          0
ITLB RQ ACCESS:  499999980
ITLB RQ TO_CACHE:   96420555
ITLB RQ MERGED:  403579425
ITLB RQ FORWARD:          0
ITLB WQ ACCESS:          0
ITLB WQ TO_CACHE:          0
ITLB WQ MERGED:          0
ITLB WQ FORWARD:          0
DTLB TOTAL     ACCESS:  155173111  HIT:  150260991  MISS:    4912120
DTLB LOAD      ACCESS:  117722497  HIT:  113332088  MISS:    4390409
DTLB RFO       ACCESS:   37450614  HIT:   36928903  MISS:     521711
DTLB PREFETCH  ACCESS:          0  HIT:          0  MISS:          0
DTLB WRITEBACK ACCESS:          0  HIT:          0  MISS:          0
DTLB PREFETCH  REQUESTED:          0  ISSUED:          0  USEFUL:          0  USELESS:          0
DTLB TOTAL MSHR MERGED:     453020
DTLB LOAD MSHR MERGED:     161582
DTLB RFO MSHR MERGED:     291438
DTLB PREFETCH MSHR MERGED:          0
DTLB WRITEBACK MSHR MERGED:          0
DTLB TOTAL ACCESSES:  155626131 HITS:  150260991 MISSES:    5365140
DTLB LOAD ACCESSES:  117884079 HITS:  113332088 MISSES:    4551991
DTLB RFO ACCESSES:   37742052 HITS:   36928903 MISSES:     813149
DTLB PREFETCH ACCESSES:          0 HITS:          0 MISSES:          0
DTLB WRITEBACK ACCESSES:          0 HITS:          0 MISSES:          0
DTLB RQ ACCESS:  205976938
DTLB RQ TO_CACHE:  155626131
DTLB RQ MERGED:   50350807
DTLB RQ FORWARD:          0
DTLB WQ ACCESS:          0
DTLB WQ TO_CACHE:          0
DTLB WQ MERGED:          0
DTLB WQ FORWARD:          0
L1D TOTAL     ACCESS:  277177707  HIT:  242355321  MISS:   34822386
L1D LOAD      ACCESS:  125414626  HIT:  107775201  MISS:   17639425
L1D RFO       ACCESS:   41135410  HIT:   38823580  MISS:    2311830
L1D PREFETCH  ACCESS:  110627671  HIT:   95756540  MISS:   14871131
L1D WRITEBACK ACCESS:          0  HIT:          0  MISS:          0
L1D PREFETCH  REQUESTED:  126271320  ISSUED:  124752119  USEFUL:    2705227  USELESS:   12165931
L1D TOTAL MSHR MERGED:    8490542
L1D LOAD MSHR MERGED:    1548888
L1D RFO MSHR MERGED:    3769179
L1D PREFETCH MSHR MERGED:    3172475
L1D WRITEBACK MSHR MERGED:          0
L1D TOTAL ACCESSES:  285755565 HITS:  242442634 MISSES:   43312931
L1D LOAD ACCESSES:  126271352 HITS:  107775233 MISSES:   18496119
L1D RFO ACCESSES:   44904094 HITS:   38823580 MISSES:    6080514
L1D PREFETCH ACCESSES:  114580119 HITS:   95843821 MISSES:   18736298
L1D WRITEBACK ACCESSES:          0 HITS:          0 MISSES:          0
L1D RQ ACCESS:  158430057
L1D RQ TO_CACHE:  126271320
L1D RQ MERGED:   32158705
L1D RQ FORWARD:          0
L1D WQ ACCESS:   47546882
L1D WQ TO_CACHE:   44904094
L1D WQ MERGED:    2642788
L1D WQ FORWARD:      87313
L1I TOTAL     ACCESS:  132830068  HIT:  132830068  MISS:          0
L1I LOAD      ACCESS:  132830068  HIT:  132830068  MISS:          0
L1I RFO       ACCESS:          0  HIT:          0  MISS:          0
L1I PREFETCH  ACCESS:          0  HIT:          0  MISS:          0
L1I WRITEBACK ACCESS:          0  HIT:          0  MISS:          0
L1I PREFETCH  REQUESTED:          0  ISSUED:          0  USEFUL:          0  USELESS:          0
L1I TOTAL MSHR MERGED:          0
L1I LOAD MSHR MERGED:          0
L1I RFO MSHR MERGED:          0
L1I PREFETCH MSHR MERGED:          0
L1I WRITEBACK MSHR MERGED:          0
L1I TOTAL ACCESSES:  132830068 HITS:  132830068 MISSES:          0
L1I LOAD ACCESSES:  132830068 HITS:  132830068 MISSES:          0
L1I RFO ACCESSES:          0 HITS:          0 MISSES:          0
L1I PREFETCH ACCESSES:          0 HITS:          0 MISSES:          0
L1I WRITEBACK ACCESSES:          0 HITS:          0 MISSES:          0
L1I RQ ACCESS:  499999980
L1I RQ TO_CACHE:  132830068
L1I RQ MERGED:  367169912
L1I RQ FORWARD:          0
L1I WQ ACCESS:          0
L1I WQ TO_CACHE:          0
L1I WQ MERGED:          0
L1I WQ FORWARD:          0
L2C TOTAL     ACCESS:   39597530  HIT:   20628185  MISS:   18969345
L2C LOAD      ACCESS:   16947171  HIT:    8568006  MISS:    8379165
L2C RFO       ACCESS:    2311288  HIT:     630849  MISS:    1680439
L2C PREFETCH  ACCESS:   17116638  HIT:    8210648  MISS:    8905990
L2C WRITEBACK ACCESS:    3222433  HIT:    3218682  MISS:       3751
L2C PREFETCH  REQUESTED:    2879605  ISSUED:    2879605  USEFUL:    1307287  USELESS:    7598443
L2C TOTAL MSHR MERGED:     531562
L2C LOAD MSHR MERGED:      88915
L2C RFO MSHR MERGED:          0
L2C PREFETCH MSHR MERGED:     442647
L2C WRITEBACK MSHR MERGED:          0
L2C TOTAL ACCESSES:   40243657 HITS:   20628345 MISSES:   19615312
L2C LOAD ACCESSES:   16947231 HITS:    8568066 MISSES:    8379165
L2C RFO ACCESSES:    2311335 HITS:     630896 MISSES:    1680439
L2C PREFETCH ACCESSES:   17762658 HITS:    8210701 MISSES:    9551957
L2C WRITEBACK ACCESSES:    3222433 HITS:    3218682 MISSES:       3751
L2C RQ ACCESS:   19258566
L2C RQ TO_CACHE:   19258459
L2C RQ MERGED:          0
L2C RQ FORWARD:          0
L2C WQ ACCESS:    3222433
L2C WQ TO_CACHE:    3222433
L2C WQ MERGED:          0
L2C WQ FORWARD:        160
LLC TOTAL     ACCESS:   21198029  HIT:   14092807  MISS:    7105222
LLC LOAD      ACCESS:    8290223  HIT:    5780589  MISS:    2509634
LLC RFO       ACCESS:    1680357  HIT:    1667829  MISS:      12528
LLC PREFETCH  ACCESS:    9051805  HIT:    4470383  MISS:    4581422
LLC WRITEBACK ACCESS:    2175644  HIT:    2174006  MISS:       1638
LLC PREFETCH  REQUESTED:          0  ISSUED:          0  USEFUL:     202392  USELESS:    4381478
LLC TOTAL MSHR MERGED:      48510
LLC LOAD MSHR MERGED:      15134
LLC RFO MSHR MERGED:          0
LLC PREFETCH MSHR MERGED:      33376
LLC WRITEBACK MSHR MERGED:          0
LLC TOTAL ACCESSES:   21246680 HITS:   14092946 MISSES:    7153734
LLC LOAD ACCESSES:    8290250 HITS:    5780616 MISSES:    2509634
LLC RFO ACCESSES:    1680439 HITS:    1667911 MISSES:      12528
LLC PREFETCH ACCESSES:    9100347 HITS:    4470413 MISSES:    4629934
LLC WRITEBACK ACCESSES:    2175644 HITS:    2174006 MISSES:       1638
LLC 0 RQ ACCESS:    9970689
LLC 0 RQ TO_CACHE:    9970580
LLC 0 RQ MERGED:          0
LLC 0 RQ FORWARD:          0
LLC WQ ACCESS:    2175646
LLC WQ TO_CACHE:    2175646
LLC WQ MERGED:          0
LLC WQ FORWARD:        139
Major fault: 0 Minor fault: 56391
CPU 0 L1D next line prefetcher final stats
CPU 0 L2C PC-based stride prefetcher final stats
All Misses: 8346677
All Hits: 16228197
SD Algo Stats - Switches: 0 SRR-Repls: 2632365 BRR-Repls: 0

DRAM Statistics
 CHANNEL 0
 RQ ROW_BUFFER_HIT:    4570764  ROW_BUFFER_MISS:    2516219
 DBUS_CONGESTED:    3307644
 WQ ROW_BUFFER_HIT:        967  ROW_BUFFER_MISS:      29153  FULL:          0

 AVG_CONGESTED_CYCLE: 12
LOADS RETIRED: 173631671
INSTR RETIRED: 500000000
