
*** ChampSim Multicore Out-of-Order Simulator ***

Warmup Instructions: 100000000
Simulation Instructions: 500000000
Number of CPUs: 1
LLC sets: 2048
LLC ways: 16
Clean RRIP Policies: 1213210112132101 Dirty RRIP Policies: 2203110122031101 PSEL Width: 10 Track Set: 4294967295 PSEL Mask: 1 Demote Mask: 3010100030101000DS Algo: 0Window size: 0
Off-chip DRAM Size: 4096 MB Channels: 1 Width: 64-bit Data Rate: 1600 MT/s

CPU 0 runs /mnt/beegfs/iconst01/spec2017/Omnetpp.trace.gz
NOT SORTED
TRACE STRING: /mnt/beegfs/iconst01/spec2017/Omnetpp.trace.gz
SORTED
TRACE STRING: /mnt/beegfs/iconst01/spec2017/Omnetpp.trace.gz
INITIAL
TRACE STRING: /mnt/beegfs/iconst01/spec2017/Omnetpp.trace.gz

champsim_seed used: 739

CPU 0 L1D next line prefetcher
CPU 0 L2C IP-based stride prefetcher
Initialize DRRIP state
Assign rand_sets[0]: 454  LLC: 2048
rand_sets[0]: 454
Assign rand_sets[1]: 1662  LLC: 2048
rand_sets[1]: 1662
Assign rand_sets[2]: 1921  LLC: 2048
rand_sets[2]: 1921
Assign rand_sets[3]: 1131  LLC: 2048
rand_sets[3]: 1131
Assign rand_sets[4]: 331  LLC: 2048
rand_sets[4]: 331
Assign rand_sets[5]: 1531  LLC: 2048
rand_sets[5]: 1531
Assign rand_sets[6]: 482  LLC: 2048
rand_sets[6]: 482
Assign rand_sets[7]: 1275  LLC: 2048
rand_sets[7]: 1275
Assign rand_sets[8]: 1876  LLC: 2048
rand_sets[8]: 1876
Assign rand_sets[9]: 2038  LLC: 2048
rand_sets[9]: 2038
Assign rand_sets[10]: 701  LLC: 2048
rand_sets[10]: 701
Assign rand_sets[11]: 479  LLC: 2048
rand_sets[11]: 479
Assign rand_sets[12]: 892  LLC: 2048
rand_sets[12]: 892
Assign rand_sets[13]: 1820  LLC: 2048
rand_sets[13]: 1820
Assign rand_sets[14]: 1505  LLC: 2048
rand_sets[14]: 1505
Assign rand_sets[15]: 1159  LLC: 2048
rand_sets[15]: 1159
Assign rand_sets[16]: 513  LLC: 2048
rand_sets[16]: 513
Assign rand_sets[17]: 703  LLC: 2048
rand_sets[17]: 703
Assign rand_sets[18]: 561  LLC: 2048
rand_sets[18]: 561
Assign rand_sets[19]: 990  LLC: 2048
rand_sets[19]: 990
Assign rand_sets[20]: 342  LLC: 2048
rand_sets[20]: 342
Assign rand_sets[21]: 882  LLC: 2048
rand_sets[21]: 882
Assign rand_sets[22]: 15  LLC: 2048
rand_sets[22]: 15
Assign rand_sets[23]: 71  LLC: 2048
rand_sets[23]: 71
Assign rand_sets[24]: 1127  LLC: 2048
rand_sets[24]: 1127
Assign rand_sets[25]: 1382  LLC: 2048
rand_sets[25]: 1382
Assign rand_sets[26]: 647  LLC: 2048
rand_sets[26]: 647
Assign rand_sets[27]: 857  LLC: 2048
rand_sets[27]: 857
Assign rand_sets[28]: 1450  LLC: 2048
rand_sets[28]: 1450
Assign rand_sets[29]: 1160  LLC: 2048
rand_sets[29]: 1160
Assign rand_sets[30]: 1852  LLC: 2048
rand_sets[30]: 1852
Assign rand_sets[31]: 1881  LLC: 2048
rand_sets[31]: 1881
Assign rand_sets[32]: 1770  LLC: 2048
rand_sets[32]: 1770
Assign rand_sets[33]: 1622  LLC: 2048
rand_sets[33]: 1622
Assign rand_sets[34]: 275  LLC: 2048
rand_sets[34]: 275
Assign rand_sets[35]: 635  LLC: 2048
rand_sets[35]: 635
Assign rand_sets[36]: 466  LLC: 2048
rand_sets[36]: 466
Assign rand_sets[37]: 1413  LLC: 2048
rand_sets[37]: 1413
Assign rand_sets[38]: 417  LLC: 2048
rand_sets[38]: 417
Assign rand_sets[39]: 472  LLC: 2048
rand_sets[39]: 472
Assign rand_sets[40]: 1340  LLC: 2048
rand_sets[40]: 1340
Assign rand_sets[41]: 852  LLC: 2048
rand_sets[41]: 852
Assign rand_sets[42]: 1365  LLC: 2048
rand_sets[42]: 1365
Assign rand_sets[43]: 47  LLC: 2048
rand_sets[43]: 47
Assign rand_sets[44]: 823  LLC: 2048
rand_sets[44]: 823
Assign rand_sets[45]: 686  LLC: 2048
rand_sets[45]: 686
Assign rand_sets[46]: 1637  LLC: 2048
rand_sets[46]: 1637
Assign rand_sets[47]: 1115  LLC: 2048
rand_sets[47]: 1115
Assign rand_sets[48]: 986  LLC: 2048
rand_sets[48]: 986
Assign rand_sets[49]: 258  LLC: 2048
rand_sets[49]: 258
Assign rand_sets[50]: 633  LLC: 2048
rand_sets[50]: 633
Assign rand_sets[51]: 920  LLC: 2048
rand_sets[51]: 920
Assign rand_sets[52]: 204  LLC: 2048
rand_sets[52]: 204
Assign rand_sets[53]: 227  LLC: 2048
rand_sets[53]: 227
Assign rand_sets[54]: 1818  LLC: 2048
rand_sets[54]: 1818
Assign rand_sets[55]: 886  LLC: 2048
rand_sets[55]: 886
Assign rand_sets[56]: 1422  LLC: 2048
rand_sets[56]: 1422
Assign rand_sets[57]: 607  LLC: 2048
rand_sets[57]: 607
Assign rand_sets[58]: 217  LLC: 2048
rand_sets[58]: 217
Assign rand_sets[59]: 1945  LLC: 2048
rand_sets[59]: 1945
Assign rand_sets[60]: 143  LLC: 2048
rand_sets[60]: 143
Assign rand_sets[61]: 1311  LLC: 2048
rand_sets[61]: 1311
Assign rand_sets[62]: 319  LLC: 2048
rand_sets[62]: 319
Assign rand_sets[63]: 1846  LLC: 2048
rand_sets[63]: 1846
 CLEAN-RRIP-POLICY-1: 1-2-1-3-2-1-0-1- CLEAN-RRIP-POLICY-2: 1-2-1-3-2-1-0-1-
 DIRTY-RRIP-POLICY-1: 2-2-0-3-1-1-0-1- DIRTY-RRIP-POLICY-2: 2-2-0-3-1-1-0-1-
 PSEL width: 10
Heartbeat CPU 0 instructions: 10000000 cycles: 7319952 heartbeat IPC: 1.36613 cumulative IPC: 1.36613 (Simulation time: 0 hr 0 min 20 sec) 
Heartbeat CPU 0 instructions: 20000000 cycles: 14623692 heartbeat IPC: 1.36916 cumulative IPC: 1.36764 (Simulation time: 0 hr 0 min 40 sec) 
Heartbeat CPU 0 instructions: 30000003 cycles: 21925105 heartbeat IPC: 1.3696 cumulative IPC: 1.36829 (Simulation time: 0 hr 1 min 0 sec) 
Heartbeat CPU 0 instructions: 40000000 cycles: 29213319 heartbeat IPC: 1.37208 cumulative IPC: 1.36924 (Simulation time: 0 hr 1 min 20 sec) 
Heartbeat CPU 0 instructions: 50000000 cycles: 36489757 heartbeat IPC: 1.3743 cumulative IPC: 1.37025 (Simulation time: 0 hr 1 min 40 sec) 
Heartbeat CPU 0 instructions: 60000000 cycles: 43769717 heartbeat IPC: 1.37363 cumulative IPC: 1.37081 (Simulation time: 0 hr 2 min 0 sec) 
Heartbeat CPU 0 instructions: 70000001 cycles: 51054977 heartbeat IPC: 1.37263 cumulative IPC: 1.37107 (Simulation time: 0 hr 2 min 21 sec) 
Heartbeat CPU 0 instructions: 80000000 cycles: 58330047 heartbeat IPC: 1.37456 cumulative IPC: 1.37151 (Simulation time: 0 hr 2 min 42 sec) 
Heartbeat CPU 0 instructions: 90000000 cycles: 65636437 heartbeat IPC: 1.36866 cumulative IPC: 1.37119 (Simulation time: 0 hr 3 min 2 sec) 
Heartbeat CPU 0 instructions: 100000000 cycles: 72928605 heartbeat IPC: 1.37133 cumulative IPC: 1.3712 (Simulation time: 0 hr 3 min 23 sec) 

Warmup complete CPU 0 instructions: 100000002 cycles: 72928606 (Simulation time: 0 hr 3 min 23 sec) 

Heartbeat CPU 0 instructions: 110000002 cycles: 113362262 heartbeat IPC: 0.247319 cumulative IPC: 0.247319 (Simulation time: 0 hr 4 min 3 sec) 
Heartbeat CPU 0 instructions: 120000000 cycles: 153502447 heartbeat IPC: 0.249127 cumulative IPC: 0.248219 (Simulation time: 0 hr 4 min 45 sec) 
Heartbeat CPU 0 instructions: 130000002 cycles: 193855002 heartbeat IPC: 0.247816 cumulative IPC: 0.248085 (Simulation time: 0 hr 5 min 25 sec) 
Heartbeat CPU 0 instructions: 140000000 cycles: 234312153 heartbeat IPC: 0.247175 cumulative IPC: 0.247857 (Simulation time: 0 hr 6 min 7 sec) 
Heartbeat CPU 0 instructions: 150000002 cycles: 274351234 heartbeat IPC: 0.249756 cumulative IPC: 0.248234 (Simulation time: 0 hr 6 min 48 sec) 
Heartbeat CPU 0 instructions: 160000000 cycles: 314425417 heartbeat IPC: 0.249537 cumulative IPC: 0.24845 (Simulation time: 0 hr 7 min 28 sec) 
Heartbeat CPU 0 instructions: 170000001 cycles: 353767523 heartbeat IPC: 0.254181 cumulative IPC: 0.249253 (Simulation time: 0 hr 8 min 9 sec) 
Heartbeat CPU 0 instructions: 180000000 cycles: 393846074 heartbeat IPC: 0.24951 cumulative IPC: 0.249285 (Simulation time: 0 hr 8 min 50 sec) 
Heartbeat CPU 0 instructions: 190000002 cycles: 433910817 heartbeat IPC: 0.249596 cumulative IPC: 0.24932 (Simulation time: 0 hr 9 min 30 sec) 
Heartbeat CPU 0 instructions: 200000000 cycles: 475124756 heartbeat IPC: 0.242636 cumulative IPC: 0.248635 (Simulation time: 0 hr 10 min 12 sec) 
Heartbeat CPU 0 instructions: 210000003 cycles: 515192592 heartbeat IPC: 0.249577 cumulative IPC: 0.24872 (Simulation time: 0 hr 10 min 53 sec) 
Heartbeat CPU 0 instructions: 220000000 cycles: 555465896 heartbeat IPC: 0.248303 cumulative IPC: 0.248685 (Simulation time: 0 hr 11 min 34 sec) 
Heartbeat CPU 0 instructions: 230000000 cycles: 595748780 heartbeat IPC: 0.248244 cumulative IPC: 0.248651 (Simulation time: 0 hr 12 min 15 sec) 
Heartbeat CPU 0 instructions: 240000000 cycles: 635794753 heartbeat IPC: 0.249713 cumulative IPC: 0.248727 (Simulation time: 0 hr 12 min 55 sec) 
Heartbeat CPU 0 instructions: 250000000 cycles: 675859324 heartbeat IPC: 0.249597 cumulative IPC: 0.248785 (Simulation time: 0 hr 13 min 35 sec) 
Heartbeat CPU 0 instructions: 260000000 cycles: 716023938 heartbeat IPC: 0.248975 cumulative IPC: 0.248797 (Simulation time: 0 hr 14 min 15 sec) 
Heartbeat CPU 0 instructions: 270000000 cycles: 756229230 heartbeat IPC: 0.248723 cumulative IPC: 0.248792 (Simulation time: 0 hr 14 min 55 sec) 
Heartbeat CPU 0 instructions: 280000000 cycles: 796815008 heartbeat IPC: 0.246392 cumulative IPC: 0.248658 (Simulation time: 0 hr 15 min 36 sec) 
Heartbeat CPU 0 instructions: 290000001 cycles: 836606483 heartbeat IPC: 0.25131 cumulative IPC: 0.248796 (Simulation time: 0 hr 16 min 15 sec) 
Heartbeat CPU 0 instructions: 300000000 cycles: 877078965 heartbeat IPC: 0.247081 cumulative IPC: 0.24871 (Simulation time: 0 hr 16 min 55 sec) 
Heartbeat CPU 0 instructions: 310000000 cycles: 917466394 heartbeat IPC: 0.247602 cumulative IPC: 0.248657 (Simulation time: 0 hr 17 min 34 sec) 
Heartbeat CPU 0 instructions: 320000000 cycles: 957572730 heartbeat IPC: 0.249337 cumulative IPC: 0.248688 (Simulation time: 0 hr 18 min 13 sec) 
Heartbeat CPU 0 instructions: 330000000 cycles: 997672418 heartbeat IPC: 0.249379 cumulative IPC: 0.248718 (Simulation time: 0 hr 18 min 53 sec) 
Heartbeat CPU 0 instructions: 340000000 cycles: 1038368456 heartbeat IPC: 0.245724 cumulative IPC: 0.248591 (Simulation time: 0 hr 19 min 32 sec) 
Heartbeat CPU 0 instructions: 350000001 cycles: 1078554519 heartbeat IPC: 0.248843 cumulative IPC: 0.248601 (Simulation time: 0 hr 20 min 11 sec) 
Heartbeat CPU 0 instructions: 360000000 cycles: 1119033766 heartbeat IPC: 0.24704 cumulative IPC: 0.248541 (Simulation time: 0 hr 20 min 50 sec) 
Heartbeat CPU 0 instructions: 370000000 cycles: 1158615536 heartbeat IPC: 0.252642 cumulative IPC: 0.24869 (Simulation time: 0 hr 21 min 29 sec) 
Heartbeat CPU 0 instructions: 380000000 cycles: 1199065776 heartbeat IPC: 0.247217 cumulative IPC: 0.248638 (Simulation time: 0 hr 22 min 8 sec) 
Heartbeat CPU 0 instructions: 390000001 cycles: 1239051037 heartbeat IPC: 0.250092 cumulative IPC: 0.248687 (Simulation time: 0 hr 22 min 47 sec) 
Heartbeat CPU 0 instructions: 400000000 cycles: 1279169459 heartbeat IPC: 0.249262 cumulative IPC: 0.248707 (Simulation time: 0 hr 23 min 26 sec) 
Heartbeat CPU 0 instructions: 410000000 cycles: 1319117569 heartbeat IPC: 0.250325 cumulative IPC: 0.248758 (Simulation time: 0 hr 24 min 5 sec) 
Heartbeat CPU 0 instructions: 420000000 cycles: 1359108617 heartbeat IPC: 0.250056 cumulative IPC: 0.248799 (Simulation time: 0 hr 24 min 43 sec) 
Heartbeat CPU 0 instructions: 430000000 cycles: 1399138106 heartbeat IPC: 0.249816 cumulative IPC: 0.248829 (Simulation time: 0 hr 25 min 22 sec) 
Heartbeat CPU 0 instructions: 440000000 cycles: 1439238935 heartbeat IPC: 0.249371 cumulative IPC: 0.248845 (Simulation time: 0 hr 26 min 1 sec) 
Heartbeat CPU 0 instructions: 450000002 cycles: 1479198463 heartbeat IPC: 0.250253 cumulative IPC: 0.248885 (Simulation time: 0 hr 26 min 40 sec) 
Heartbeat CPU 0 instructions: 460000000 cycles: 1518598311 heartbeat IPC: 0.253808 cumulative IPC: 0.24902 (Simulation time: 0 hr 27 min 19 sec) 
Heartbeat CPU 0 instructions: 470000000 cycles: 1558847361 heartbeat IPC: 0.248453 cumulative IPC: 0.249004 (Simulation time: 0 hr 27 min 58 sec) 
Heartbeat CPU 0 instructions: 480000000 cycles: 1598713613 heartbeat IPC: 0.250839 cumulative IPC: 0.249052 (Simulation time: 0 hr 28 min 36 sec) 
Heartbeat CPU 0 instructions: 490000001 cycles: 1638757226 heartbeat IPC: 0.249728 cumulative IPC: 0.249069 (Simulation time: 0 hr 29 min 14 sec) 
Heartbeat CPU 0 instructions: 500000000 cycles: 1679021167 heartbeat IPC: 0.248361 cumulative IPC: 0.249052 (Simulation time: 0 hr 29 min 51 sec) 
Heartbeat CPU 0 instructions: 510000000 cycles: 1718715792 heartbeat IPC: 0.251923 cumulative IPC: 0.249121 (Simulation time: 0 hr 30 min 27 sec) 
Heartbeat CPU 0 instructions: 520000000 cycles: 1759144245 heartbeat IPC: 0.247351 cumulative IPC: 0.249078 (Simulation time: 0 hr 31 min 4 sec) 
Heartbeat CPU 0 instructions: 530000000 cycles: 1799060350 heartbeat IPC: 0.250525 cumulative IPC: 0.249112 (Simulation time: 0 hr 31 min 40 sec) 
Heartbeat CPU 0 instructions: 540000000 cycles: 1838735134 heartbeat IPC: 0.252049 cumulative IPC: 0.249178 (Simulation time: 0 hr 32 min 16 sec) 
Heartbeat CPU 0 instructions: 550000001 cycles: 1879107464 heartbeat IPC: 0.247694 cumulative IPC: 0.249145 (Simulation time: 0 hr 32 min 53 sec) 
Heartbeat CPU 0 instructions: 560000000 cycles: 1919587866 heartbeat IPC: 0.247033 cumulative IPC: 0.249098 (Simulation time: 0 hr 33 min 29 sec) 
Heartbeat CPU 0 instructions: 570000003 cycles: 1960034060 heartbeat IPC: 0.247242 cumulative IPC: 0.249059 (Simulation time: 0 hr 34 min 6 sec) 
Heartbeat CPU 0 instructions: 580000000 cycles: 2000321955 heartbeat IPC: 0.248213 cumulative IPC: 0.249041 (Simulation time: 0 hr 34 min 42 sec) 
Heartbeat CPU 0 instructions: 590000001 cycles: 2040977391 heartbeat IPC: 0.24597 cumulative IPC: 0.248978 (Simulation time: 0 hr 35 min 19 sec) 
Heartbeat CPU 0 instructions: 600000000 cycles: 2081424626 heartbeat IPC: 0.247236 cumulative IPC: 0.248942 (Simulation time: 0 hr 35 min 55 sec) 
Finished CPU 0 instructions: 500000000 cycles: 2008496028 cumulative IPC: 0.248942 (Simulation time: 0 hr 35 min 55 sec) 

CPU 0 Branch Prediction Accuracy: 96.2429% MPKI: 5.85335
Number of Branches: 77897976 Number of Mispredictions: 2926674
Number of LOAD Instructions: 193081861
Number of LOAD Instructions (ROI): 193081861
Number of STORE Instructions: 97310749
Number of STORE Instructions (ROI): 97310749
Total Destination Memory Operands: 106368027
Total Destination Memory Operands (ROI): 106368027
Total Source Memory Operands: 193081861
Total Source Memory Operands (ROI): 193081861
Number of DEPENDED LOADS: 6442557
Number of DEPENDED LOADS (ROI): 6442557
Number of SQ_ADDED: 106367982
Number of SQ_ADDED (ROI): 106367982
Number of LQ_ADDED: 426768944
Number of LQ_ADDED (ROI): 426768944
Number of Instructions read from trace: 600000256

ChampSim completed all CPUs

Region of Interest Statistics

CPU 0 cumulative IPC: 0.248942 instructions: 500000000 cycles: 2008496028
ITLB TOTAL     ACCESS:  151243962  HIT:  151228131  MISS:      15831
ITLB LOAD      ACCESS:  151243962  HIT:  151228131  MISS:      15831
ITLB RFO       ACCESS:          0  HIT:          0  MISS:          0
ITLB PREFETCH  ACCESS:          0  HIT:          0  MISS:          0
ITLB WRITEBACK ACCESS:          0  HIT:          0  MISS:          0
ITLB PREFETCH  REQUESTED:          0  ISSUED:          0  USEFUL:          0  USELESS:          0
ITLB TOTAL MSHR MERGED:      17758
ITLB LOAD MSHR MERGED:      17758
ITLB RFO MSHR MERGED:          0
ITLB PREFETCH MSHR MERGED:          0
ITLB WRITEBACK MSHR MERGED:          0
ITLB TOTAL ACCESSES:  151261720 HITS:  151228131 MISSES:      33589
ITLB LOAD ACCESSES:  151261720 HITS:  151228131 MISSES:      33589
ITLB RFO ACCESSES:          0 HITS:          0 MISSES:          0
ITLB PREFETCH ACCESSES:          0 HITS:          0 MISSES:          0
ITLB WRITEBACK ACCESSES:          0 HITS:          0 MISSES:          0
ITLB RQ ACCESS:  500000242
ITLB RQ TO_CACHE:  151261720
ITLB RQ MERGED:  348738522
ITLB RQ FORWARD:          0
ITLB WQ ACCESS:          0
ITLB WQ TO_CACHE:          0
ITLB WQ MERGED:          0
ITLB WQ FORWARD:          0
DTLB TOTAL     ACCESS:  199560969  HIT:  194181985  MISS:    5378984
DTLB LOAD      ACCESS:  123131819  HIT:  118113322  MISS:    5018497
DTLB RFO       ACCESS:   76429150  HIT:   76068663  MISS:     360487
DTLB PREFETCH  ACCESS:          0  HIT:          0  MISS:          0
DTLB WRITEBACK ACCESS:          0  HIT:          0  MISS:          0
DTLB PREFETCH  REQUESTED:          0  ISSUED:          0  USEFUL:          0  USELESS:          0
DTLB TOTAL MSHR MERGED:     916665
DTLB LOAD MSHR MERGED:     807035
DTLB RFO MSHR MERGED:     109630
DTLB PREFETCH MSHR MERGED:          0
DTLB WRITEBACK MSHR MERGED:          0
DTLB TOTAL ACCESSES:  200477634 HITS:  194181985 MISSES:    6295649
DTLB LOAD ACCESSES:  123938854 HITS:  118113322 MISSES:    5825532
DTLB RFO ACCESSES:   76538780 HITS:   76068663 MISSES:     470117
DTLB PREFETCH ACCESSES:          0 HITS:          0 MISSES:          0
DTLB WRITEBACK ACCESSES:          0 HITS:          0 MISSES:          0
DTLB RQ ACCESS:  243883018
DTLB RQ TO_CACHE:  200477634
DTLB RQ MERGED:   43405384
DTLB RQ FORWARD:          0
DTLB WQ ACCESS:          0
DTLB WQ TO_CACHE:          0
DTLB WQ MERGED:          0
DTLB WQ FORWARD:          0
L1D TOTAL     ACCESS:  335593680  HIT:  317497575  MISS:   18096105
L1D LOAD      ACCESS:  127694525  HIT:  118749678  MISS:    8944847
L1D RFO       ACCESS:   87083871  HIT:   86294965  MISS:     788906
L1D PREFETCH  ACCESS:  120815284  HIT:  112452932  MISS:    8362352
L1D WRITEBACK ACCESS:          0  HIT:          0  MISS:          0
L1D PREFETCH  REQUESTED:  128474277  ISSUED:  126876301  USEFUL:    1739998  USELESS:    6622366
L1D TOTAL MSHR MERGED:    3860978
L1D LOAD MSHR MERGED:     945754
L1D RFO MSHR MERGED:    1070166
L1D PREFETCH MSHR MERGED:    1845058
L1D WRITEBACK MSHR MERGED:          0
L1D TOTAL ACCESSES:  339539649 HITS:  317582566 MISSES:   21957083
L1D LOAD ACCESSES:  128474717 HITS:  118750118 MISSES:    9724599
L1D RFO ACCESSES:   88085894 HITS:   86294965 MISSES:    1790929
L1D PREFETCH ACCESSES:  122979038 HITS:  112537483 MISSES:   10441555
L1D WRITEBACK ACCESSES:          0 HITS:          0 MISSES:          0
L1D RQ ACCESS:  155251633
L1D RQ TO_CACHE:  128474277
L1D RQ MERGED:   26776916
L1D RQ FORWARD:          0
L1D WQ ACCESS:   88631385
L1D WQ TO_CACHE:   88085893
L1D WQ MERGED:     545492
L1D WQ FORWARD:      84991
L1I TOTAL     ACCESS:  175546548  HIT:  175280079  MISS:     266469
L1I LOAD      ACCESS:  175546548  HIT:  175280079  MISS:     266469
L1I RFO       ACCESS:          0  HIT:          0  MISS:          0
L1I PREFETCH  ACCESS:          0  HIT:          0  MISS:          0
L1I WRITEBACK ACCESS:          0  HIT:          0  MISS:          0
L1I PREFETCH  REQUESTED:          0  ISSUED:          0  USEFUL:          0  USELESS:          0
L1I TOTAL MSHR MERGED:     213225
L1I LOAD MSHR MERGED:     213225
L1I RFO MSHR MERGED:          0
L1I PREFETCH MSHR MERGED:          0
L1I WRITEBACK MSHR MERGED:          0
L1I TOTAL ACCESSES:  175759773 HITS:  175280079 MISSES:     479694
L1I LOAD ACCESSES:  175759773 HITS:  175280079 MISSES:     479694
L1I RFO ACCESSES:          0 HITS:          0 MISSES:          0
L1I PREFETCH ACCESSES:          0 HITS:          0 MISSES:          0
L1I WRITEBACK ACCESSES:          0 HITS:          0 MISSES:          0
L1I RQ ACCESS:  500000242
L1I RQ TO_CACHE:  175759773
L1I RQ MERGED:  324240469
L1I RQ FORWARD:          0
L1I WQ ACCESS:          0
L1I WQ TO_CACHE:          0
L1I WQ MERGED:          0
L1I WQ FORWARD:          0
L2C TOTAL     ACCESS:   23738671  HIT:   12112918  MISS:   11625753
L2C LOAD      ACCESS:    9044139  HIT:    3564752  MISS:    5479387
L2C RFO       ACCESS:     720707  HIT:     130404  MISS:     590303
L2C PREFETCH  ACCESS:    8613489  HIT:    3086130  MISS:    5527359
L2C WRITEBACK ACCESS:    5360336  HIT:    5331632  MISS:      28704
L2C PREFETCH  REQUESTED:      18038  ISSUED:      18038  USEFUL:     323048  USELESS:    5204486
L2C TOTAL MSHR MERGED:         23
L2C LOAD MSHR MERGED:          2
L2C RFO MSHR MERGED:          0
L2C PREFETCH MSHR MERGED:         21
L2C WRITEBACK MSHR MERGED:          0
L2C TOTAL ACCESSES:   23740488 HITS:   12114706 MISSES:   11625782
L2C LOAD ACCESSES:    9045314 HITS:    3565927 MISSES:    5479387
L2C RFO ACCESSES:     720763 HITS:     130460 MISSES:     590303
L2C PREFETCH ACCESSES:    8614075 HITS:    3086687 MISSES:    5527388
L2C WRITEBACK ACCESSES:    5360336 HITS:    5331632 MISSES:      28704
L2C RQ ACCESS:    9766077
L2C RQ TO_CACHE:    9764846
L2C RQ MERGED:          0
L2C RQ FORWARD:          0
L2C WQ ACCESS:    5360336
L2C WQ TO_CACHE:    5360336
L2C WQ MERGED:          0
L2C WQ FORWARD:       1788
LLC TOTAL     ACCESS:   15448702  HIT:    6712028  MISS:    8736674
LLC LOAD      ACCESS:    5479354  HIT:    2066463  MISS:    3412891
LLC RFO       ACCESS:     590301  HIT:     301075  MISS:     289226
LLC PREFETCH  ACCESS:    5527351  HIT:    1024918  MISS:    4502433
LLC WRITEBACK ACCESS:    3851696  HIT:    3319572  MISS:     532124
LLC PREFETCH  REQUESTED:          0  ISSUED:          0  USEFUL:      26529  USELESS:    4476437
LLC TOTAL MSHR MERGED:          0
LLC LOAD MSHR MERGED:          0
LLC RFO MSHR MERGED:          0
LLC PREFETCH MSHR MERGED:          0
LLC WRITEBACK MSHR MERGED:          0
LLC TOTAL ACCESSES:   15448751 HITS:    6712077 MISSES:    8736674
LLC LOAD ACCESSES:    5479385 HITS:    2066494 MISSES:    3412891
LLC RFO ACCESSES:     590303 HITS:     301077 MISSES:     289226
LLC PREFETCH ACCESSES:    5527367 HITS:    1024934 MISSES:    4502433
LLC WRITEBACK ACCESSES:    3851696 HITS:    3319572 MISSES:     532124
LLC 0 RQ ACCESS:    6069688
LLC 0 RQ TO_CACHE:    6069655
LLC 0 RQ MERGED:          0
LLC 0 RQ FORWARD:          0
LLC WQ ACCESS:    3851696
LLC WQ TO_CACHE:    3851696
LLC WQ MERGED:          0
LLC WQ FORWARD:         49
Major fault: 0 Minor fault: 44814
CPU 0 L1D next line prefetcher final stats
CPU 0 L2C PC-based stride prefetcher final stats
All Misses: 10567907
All Hits: 8053288
SD Algo Stats - Switches: 0 SRR-Repls: 3894887 BRR-Repls: 0

DRAM Statistics
 CHANNEL 0
 RQ ROW_BUFFER_HIT:    1437303  ROW_BUFFER_MISS:    6765755
 DBUS_CONGESTED:    5503903
 WQ ROW_BUFFER_HIT:     176811  ROW_BUFFER_MISS:    2093990  FULL:          0

 AVG_CONGESTED_CYCLE: 13
LOADS RETIRED: 160808997
INSTR RETIRED: 500000000
