
*** ChampSim Multicore Out-of-Order Simulator ***

Warmup Instructions: 100000000
Simulation Instructions: 500000000
Number of CPUs: 1
LLC sets: 2048
LLC ways: 16
Clean RRIP Policies: 1213210112132101 Dirty RRIP Policies: 2203110122031101 PSEL Width: 10 Track Set: 4294967295 PSEL Mask: 1 Demote Mask: 3010100030101000DS Algo: 0Window size: 0
Off-chip DRAM Size: 4096 MB Channels: 1 Width: 64-bit Data Rate: 1600 MT/s

CPU 0 runs /mnt/beegfs/iconst01/spec2017/Wrf.trace.gz
NOT SORTED
TRACE STRING: /mnt/beegfs/iconst01/spec2017/Wrf.trace.gz
SORTED
TRACE STRING: /mnt/beegfs/iconst01/spec2017/Wrf.trace.gz
INITIAL
TRACE STRING: /mnt/beegfs/iconst01/spec2017/Wrf.trace.gz

champsim_seed used: 303

CPU 0 L1D next line prefetcher
CPU 0 L2C IP-based stride prefetcher
Initialize DRRIP state
Assign rand_sets[0]: 454  LLC: 2048
rand_sets[0]: 454
Assign rand_sets[1]: 1662  LLC: 2048
rand_sets[1]: 1662
Assign rand_sets[2]: 1921  LLC: 2048
rand_sets[2]: 1921
Assign rand_sets[3]: 1131  LLC: 2048
rand_sets[3]: 1131
Assign rand_sets[4]: 331  LLC: 2048
rand_sets[4]: 331
Assign rand_sets[5]: 1531  LLC: 2048
rand_sets[5]: 1531
Assign rand_sets[6]: 482  LLC: 2048
rand_sets[6]: 482
Assign rand_sets[7]: 1275  LLC: 2048
rand_sets[7]: 1275
Assign rand_sets[8]: 1876  LLC: 2048
rand_sets[8]: 1876
Assign rand_sets[9]: 2038  LLC: 2048
rand_sets[9]: 2038
Assign rand_sets[10]: 701  LLC: 2048
rand_sets[10]: 701
Assign rand_sets[11]: 479  LLC: 2048
rand_sets[11]: 479
Assign rand_sets[12]: 892  LLC: 2048
rand_sets[12]: 892
Assign rand_sets[13]: 1820  LLC: 2048
rand_sets[13]: 1820
Assign rand_sets[14]: 1505  LLC: 2048
rand_sets[14]: 1505
Assign rand_sets[15]: 1159  LLC: 2048
rand_sets[15]: 1159
Assign rand_sets[16]: 513  LLC: 2048
rand_sets[16]: 513
Assign rand_sets[17]: 703  LLC: 2048
rand_sets[17]: 703
Assign rand_sets[18]: 561  LLC: 2048
rand_sets[18]: 561
Assign rand_sets[19]: 990  LLC: 2048
rand_sets[19]: 990
Assign rand_sets[20]: 342  LLC: 2048
rand_sets[20]: 342
Assign rand_sets[21]: 882  LLC: 2048
rand_sets[21]: 882
Assign rand_sets[22]: 15  LLC: 2048
rand_sets[22]: 15
Assign rand_sets[23]: 71  LLC: 2048
rand_sets[23]: 71
Assign rand_sets[24]: 1127  LLC: 2048
rand_sets[24]: 1127
Assign rand_sets[25]: 1382  LLC: 2048
rand_sets[25]: 1382
Assign rand_sets[26]: 647  LLC: 2048
rand_sets[26]: 647
Assign rand_sets[27]: 857  LLC: 2048
rand_sets[27]: 857
Assign rand_sets[28]: 1450  LLC: 2048
rand_sets[28]: 1450
Assign rand_sets[29]: 1160  LLC: 2048
rand_sets[29]: 1160
Assign rand_sets[30]: 1852  LLC: 2048
rand_sets[30]: 1852
Assign rand_sets[31]: 1881  LLC: 2048
rand_sets[31]: 1881
Assign rand_sets[32]: 1770  LLC: 2048
rand_sets[32]: 1770
Assign rand_sets[33]: 1622  LLC: 2048
rand_sets[33]: 1622
Assign rand_sets[34]: 275  LLC: 2048
rand_sets[34]: 275
Assign rand_sets[35]: 635  LLC: 2048
rand_sets[35]: 635
Assign rand_sets[36]: 466  LLC: 2048
rand_sets[36]: 466
Assign rand_sets[37]: 1413  LLC: 2048
rand_sets[37]: 1413
Assign rand_sets[38]: 417  LLC: 2048
rand_sets[38]: 417
Assign rand_sets[39]: 472  LLC: 2048
rand_sets[39]: 472
Assign rand_sets[40]: 1340  LLC: 2048
rand_sets[40]: 1340
Assign rand_sets[41]: 852  LLC: 2048
rand_sets[41]: 852
Assign rand_sets[42]: 1365  LLC: 2048
rand_sets[42]: 1365
Assign rand_sets[43]: 47  LLC: 2048
rand_sets[43]: 47
Assign rand_sets[44]: 823  LLC: 2048
rand_sets[44]: 823
Assign rand_sets[45]: 686  LLC: 2048
rand_sets[45]: 686
Assign rand_sets[46]: 1637  LLC: 2048
rand_sets[46]: 1637
Assign rand_sets[47]: 1115  LLC: 2048
rand_sets[47]: 1115
Assign rand_sets[48]: 986  LLC: 2048
rand_sets[48]: 986
Assign rand_sets[49]: 258  LLC: 2048
rand_sets[49]: 258
Assign rand_sets[50]: 633  LLC: 2048
rand_sets[50]: 633
Assign rand_sets[51]: 920  LLC: 2048
rand_sets[51]: 920
Assign rand_sets[52]: 204  LLC: 2048
rand_sets[52]: 204
Assign rand_sets[53]: 227  LLC: 2048
rand_sets[53]: 227
Assign rand_sets[54]: 1818  LLC: 2048
rand_sets[54]: 1818
Assign rand_sets[55]: 886  LLC: 2048
rand_sets[55]: 886
Assign rand_sets[56]: 1422  LLC: 2048
rand_sets[56]: 1422
Assign rand_sets[57]: 607  LLC: 2048
rand_sets[57]: 607
Assign rand_sets[58]: 217  LLC: 2048
rand_sets[58]: 217
Assign rand_sets[59]: 1945  LLC: 2048
rand_sets[59]: 1945
Assign rand_sets[60]: 143  LLC: 2048
rand_sets[60]: 143
Assign rand_sets[61]: 1311  LLC: 2048
rand_sets[61]: 1311
Assign rand_sets[62]: 319  LLC: 2048
rand_sets[62]: 319
Assign rand_sets[63]: 1846  LLC: 2048
rand_sets[63]: 1846
 CLEAN-RRIP-POLICY-1: 1-2-1-3-2-1-0-1- CLEAN-RRIP-POLICY-2: 1-2-1-3-2-1-0-1-
 DIRTY-RRIP-POLICY-1: 2-2-0-3-1-1-0-1- DIRTY-RRIP-POLICY-2: 2-2-0-3-1-1-0-1-
 PSEL width: 10
Heartbeat CPU 0 instructions: 10000002 cycles: 6559549 heartbeat IPC: 1.5245 cumulative IPC: 1.5245 (Simulation time: 0 hr 0 min 23 sec) 
Heartbeat CPU 0 instructions: 20000000 cycles: 12222117 heartbeat IPC: 1.76598 cumulative IPC: 1.63638 (Simulation time: 0 hr 0 min 43 sec) 
Heartbeat CPU 0 instructions: 30000003 cycles: 18203890 heartbeat IPC: 1.67175 cumulative IPC: 1.648 (Simulation time: 0 hr 1 min 4 sec) 
Heartbeat CPU 0 instructions: 40000000 cycles: 24059234 heartbeat IPC: 1.70784 cumulative IPC: 1.66256 (Simulation time: 0 hr 1 min 25 sec) 
Heartbeat CPU 0 instructions: 50000000 cycles: 29527598 heartbeat IPC: 1.8287 cumulative IPC: 1.69333 (Simulation time: 0 hr 1 min 46 sec) 
Heartbeat CPU 0 instructions: 60000000 cycles: 35640397 heartbeat IPC: 1.63591 cumulative IPC: 1.68348 (Simulation time: 0 hr 2 min 8 sec) 
Heartbeat CPU 0 instructions: 70000000 cycles: 41360128 heartbeat IPC: 1.74833 cumulative IPC: 1.69245 (Simulation time: 0 hr 2 min 29 sec) 
Heartbeat CPU 0 instructions: 80000000 cycles: 47231063 heartbeat IPC: 1.70331 cumulative IPC: 1.6938 (Simulation time: 0 hr 2 min 51 sec) 
Heartbeat CPU 0 instructions: 90000000 cycles: 52984567 heartbeat IPC: 1.73807 cumulative IPC: 1.69861 (Simulation time: 0 hr 3 min 12 sec) 
Heartbeat CPU 0 instructions: 100000000 cycles: 58537431 heartbeat IPC: 1.80087 cumulative IPC: 1.70831 (Simulation time: 0 hr 3 min 33 sec) 

Warmup complete CPU 0 instructions: 100000004 cycles: 58537433 (Simulation time: 0 hr 3 min 33 sec) 

Heartbeat CPU 0 instructions: 110000001 cycles: 72349154 heartbeat IPC: 0.724023 cumulative IPC: 0.724023 (Simulation time: 0 hr 4 min 0 sec) 
Heartbeat CPU 0 instructions: 120000000 cycles: 83430166 heartbeat IPC: 0.902445 cumulative IPC: 0.803447 (Simulation time: 0 hr 4 min 25 sec) 
Heartbeat CPU 0 instructions: 130000000 cycles: 93282087 heartbeat IPC: 1.01503 cumulative IPC: 0.863442 (Simulation time: 0 hr 4 min 49 sec) 
Heartbeat CPU 0 instructions: 140000000 cycles: 104058767 heartbeat IPC: 0.92793 cumulative IPC: 0.878709 (Simulation time: 0 hr 5 min 13 sec) 
Heartbeat CPU 0 instructions: 150000002 cycles: 115180624 heartbeat IPC: 0.899131 cumulative IPC: 0.882719 (Simulation time: 0 hr 5 min 38 sec) 
Heartbeat CPU 0 instructions: 160000000 cycles: 124109632 heartbeat IPC: 1.11995 cumulative IPC: 0.915022 (Simulation time: 0 hr 6 min 1 sec) 
Heartbeat CPU 0 instructions: 170000003 cycles: 134727407 heartbeat IPC: 0.941817 cumulative IPC: 0.918756 (Simulation time: 0 hr 6 min 25 sec) 
Heartbeat CPU 0 instructions: 180000000 cycles: 147516655 heartbeat IPC: 0.781907 cumulative IPC: 0.899086 (Simulation time: 0 hr 6 min 51 sec) 
Heartbeat CPU 0 instructions: 190000000 cycles: 162585131 heartbeat IPC: 0.663637 cumulative IPC: 0.864988 (Simulation time: 0 hr 7 min 16 sec) 
Heartbeat CPU 0 instructions: 200000000 cycles: 177625036 heartbeat IPC: 0.664898 cumulative IPC: 0.839718 (Simulation time: 0 hr 7 min 42 sec) 
Heartbeat CPU 0 instructions: 210000000 cycles: 192662817 heartbeat IPC: 0.664992 cumulative IPC: 0.820128 (Simulation time: 0 hr 8 min 7 sec) 
Heartbeat CPU 0 instructions: 220000000 cycles: 208705265 heartbeat IPC: 0.623346 cumulative IPC: 0.799106 (Simulation time: 0 hr 8 min 35 sec) 
Heartbeat CPU 0 instructions: 230000003 cycles: 227369578 heartbeat IPC: 0.535782 cumulative IPC: 0.769996 (Simulation time: 0 hr 9 min 5 sec) 
Heartbeat CPU 0 instructions: 240000000 cycles: 236576986 heartbeat IPC: 1.08608 cumulative IPC: 0.786342 (Simulation time: 0 hr 9 min 28 sec) 
Heartbeat CPU 0 instructions: 250000000 cycles: 245273248 heartbeat IPC: 1.14992 cumulative IPC: 0.803274 (Simulation time: 0 hr 9 min 50 sec) 
Heartbeat CPU 0 instructions: 260000000 cycles: 254313044 heartbeat IPC: 1.10622 cumulative IPC: 0.817262 (Simulation time: 0 hr 10 min 13 sec) 
Heartbeat CPU 0 instructions: 270000000 cycles: 263899102 heartbeat IPC: 1.04318 cumulative IPC: 0.827808 (Simulation time: 0 hr 10 min 37 sec) 
Heartbeat CPU 0 instructions: 280000000 cycles: 273701470 heartbeat IPC: 1.02016 cumulative IPC: 0.836571 (Simulation time: 0 hr 11 min 1 sec) 
Heartbeat CPU 0 instructions: 290000000 cycles: 283801008 heartbeat IPC: 0.990144 cumulative IPC: 0.843456 (Simulation time: 0 hr 11 min 27 sec) 
Heartbeat CPU 0 instructions: 300000000 cycles: 292634101 heartbeat IPC: 1.13211 cumulative IPC: 0.854348 (Simulation time: 0 hr 11 min 51 sec) 
Heartbeat CPU 0 instructions: 310000002 cycles: 307173279 heartbeat IPC: 0.687797 cumulative IPC: 0.844609 (Simulation time: 0 hr 12 min 19 sec) 
Heartbeat CPU 0 instructions: 320000000 cycles: 323490306 heartbeat IPC: 0.612857 cumulative IPC: 0.830336 (Simulation time: 0 hr 12 min 48 sec) 
Heartbeat CPU 0 instructions: 330000002 cycles: 334199948 heartbeat IPC: 0.933738 cumulative IPC: 0.834354 (Simulation time: 0 hr 13 min 13 sec) 
Heartbeat CPU 0 instructions: 340000000 cycles: 344612246 heartbeat IPC: 0.960403 cumulative IPC: 0.838941 (Simulation time: 0 hr 13 min 37 sec) 
Heartbeat CPU 0 instructions: 350000002 cycles: 357489664 heartbeat IPC: 0.776553 cumulative IPC: 0.836254 (Simulation time: 0 hr 14 min 4 sec) 
Heartbeat CPU 0 instructions: 360000000 cycles: 368508833 heartbeat IPC: 0.907509 cumulative IPC: 0.838787 (Simulation time: 0 hr 14 min 28 sec) 
Heartbeat CPU 0 instructions: 370000002 cycles: 379248569 heartbeat IPC: 0.931122 cumulative IPC: 0.841879 (Simulation time: 0 hr 14 min 53 sec) 
Heartbeat CPU 0 instructions: 380000000 cycles: 389742224 heartbeat IPC: 0.952957 cumulative IPC: 0.845398 (Simulation time: 0 hr 15 min 18 sec) 
Heartbeat CPU 0 instructions: 390000003 cycles: 407172079 heartbeat IPC: 0.573728 cumulative IPC: 0.831816 (Simulation time: 0 hr 15 min 47 sec) 
Heartbeat CPU 0 instructions: 400000000 cycles: 418040798 heartbeat IPC: 0.920071 cumulative IPC: 0.834485 (Simulation time: 0 hr 16 min 11 sec) 
Heartbeat CPU 0 instructions: 410000002 cycles: 428316140 heartbeat IPC: 0.973204 cumulative IPC: 0.838339 (Simulation time: 0 hr 16 min 33 sec) 
Heartbeat CPU 0 instructions: 420000000 cycles: 438484745 heartbeat IPC: 0.983419 cumulative IPC: 0.842222 (Simulation time: 0 hr 16 min 56 sec) 
Heartbeat CPU 0 instructions: 430000001 cycles: 448644655 heartbeat IPC: 0.984261 cumulative IPC: 0.845921 (Simulation time: 0 hr 17 min 18 sec) 
Heartbeat CPU 0 instructions: 440000000 cycles: 460301110 heartbeat IPC: 0.857894 cumulative IPC: 0.846269 (Simulation time: 0 hr 17 min 41 sec) 
Heartbeat CPU 0 instructions: 450000002 cycles: 475367729 heartbeat IPC: 0.663719 cumulative IPC: 0.83967 (Simulation time: 0 hr 18 min 5 sec) 
Heartbeat CPU 0 instructions: 460000000 cycles: 490403327 heartbeat IPC: 0.665088 cumulative IPC: 0.833592 (Simulation time: 0 hr 18 min 29 sec) 
Heartbeat CPU 0 instructions: 470000003 cycles: 505431081 heartbeat IPC: 0.665436 cumulative IPC: 0.827937 (Simulation time: 0 hr 18 min 53 sec) 
Heartbeat CPU 0 instructions: 480000000 cycles: 521499971 heartbeat IPC: 0.62232 cumulative IPC: 0.820801 (Simulation time: 0 hr 19 min 20 sec) 
Heartbeat CPU 0 instructions: 490000002 cycles: 540289654 heartbeat IPC: 0.532207 cumulative IPC: 0.809545 (Simulation time: 0 hr 19 min 49 sec) 
Heartbeat CPU 0 instructions: 500000000 cycles: 549429252 heartbeat IPC: 1.09414 cumulative IPC: 0.814843 (Simulation time: 0 hr 20 min 11 sec) 
Heartbeat CPU 0 instructions: 510000002 cycles: 558195232 heartbeat IPC: 1.14077 cumulative IPC: 0.820562 (Simulation time: 0 hr 20 min 32 sec) 
Heartbeat CPU 0 instructions: 520000000 cycles: 567222555 heartbeat IPC: 1.10775 cumulative IPC: 0.825658 (Simulation time: 0 hr 20 min 54 sec) 
Heartbeat CPU 0 instructions: 530000002 cycles: 576816911 heartbeat IPC: 1.04228 cumulative IPC: 0.829668 (Simulation time: 0 hr 21 min 17 sec) 
Heartbeat CPU 0 instructions: 540000000 cycles: 586563928 heartbeat IPC: 1.02595 cumulative IPC: 0.833292 (Simulation time: 0 hr 21 min 41 sec) 
Heartbeat CPU 0 instructions: 550000002 cycles: 596689902 heartbeat IPC: 0.987559 cumulative IPC: 0.836194 (Simulation time: 0 hr 22 min 5 sec) 
Heartbeat CPU 0 instructions: 560000000 cycles: 605526094 heartbeat IPC: 1.13171 cumulative IPC: 0.840968 (Simulation time: 0 hr 22 min 27 sec) 
Heartbeat CPU 0 instructions: 570000003 cycles: 619899920 heartbeat IPC: 0.695709 cumulative IPC: 0.837249 (Simulation time: 0 hr 22 min 54 sec) 
Heartbeat CPU 0 instructions: 580000000 cycles: 636359909 heartbeat IPC: 0.607534 cumulative IPC: 0.830705 (Simulation time: 0 hr 23 min 23 sec) 
Heartbeat CPU 0 instructions: 590000002 cycles: 646654929 heartbeat IPC: 0.971344 cumulative IPC: 0.833167 (Simulation time: 0 hr 23 min 47 sec) 
Heartbeat CPU 0 instructions: 600000000 cycles: 657478657 heartbeat IPC: 0.923896 cumulative IPC: 0.834806 (Simulation time: 0 hr 24 min 11 sec) 
Finished CPU 0 instructions: 500000000 cycles: 598941243 cumulative IPC: 0.834806 (Simulation time: 0 hr 24 min 11 sec) 

CPU 0 Branch Prediction Accuracy: 99.5219% MPKI: 0.251582
Number of Branches: 26312578 Number of Mispredictions: 125791
Number of LOAD Instructions: 235643083
Number of LOAD Instructions (ROI): 235643083
Number of STORE Instructions: 37593550
Number of STORE Instructions (ROI): 37593550
Total Destination Memory Operands: 40480968
Total Destination Memory Operands (ROI): 40480968
Total Source Memory Operands: 235643083
Total Source Memory Operands (ROI): 235643083
Number of DEPENDED LOADS: 6700605
Number of DEPENDED LOADS (ROI): 6700605
Number of SQ_ADDED: 40480950
Number of SQ_ADDED (ROI): 40480950
Number of LQ_ADDED: 389221674
Number of LQ_ADDED (ROI): 389221674
Number of Instructions read from trace: 600000259

ChampSim completed all CPUs

Region of Interest Statistics

CPU 0 cumulative IPC: 0.834806 instructions: 500000000 cycles: 598941243
ITLB TOTAL     ACCESS:  109344462  HIT:  109343949  MISS:        513
ITLB LOAD      ACCESS:  109344462  HIT:  109343949  MISS:        513
ITLB RFO       ACCESS:          0  HIT:          0  MISS:          0
ITLB PREFETCH  ACCESS:          0  HIT:          0  MISS:          0
ITLB WRITEBACK ACCESS:          0  HIT:          0  MISS:          0
ITLB PREFETCH  REQUESTED:          0  ISSUED:          0  USEFUL:          0  USELESS:          0
ITLB TOTAL MSHR MERGED:        972
ITLB LOAD MSHR MERGED:        972
ITLB RFO MSHR MERGED:          0
ITLB PREFETCH MSHR MERGED:          0
ITLB WRITEBACK MSHR MERGED:          0
ITLB TOTAL ACCESSES:  109345434 HITS:  109343949 MISSES:       1485
ITLB LOAD ACCESSES:  109345434 HITS:  109343949 MISSES:       1485
ITLB RFO ACCESSES:          0 HITS:          0 MISSES:          0
ITLB PREFETCH ACCESSES:          0 HITS:          0 MISSES:          0
ITLB WRITEBACK ACCESSES:          0 HITS:          0 MISSES:          0
ITLB RQ ACCESS:  500000003
ITLB RQ TO_CACHE:  109345434
ITLB RQ MERGED:  390654569
ITLB RQ FORWARD:          0
ITLB WQ ACCESS:          0
ITLB WQ TO_CACHE:          0
ITLB WQ MERGED:          0
ITLB WQ FORWARD:          0
DTLB TOTAL     ACCESS:  130441745  HIT:  130184060  MISS:     257685
DTLB LOAD      ACCESS:  109042571  HIT:  108821749  MISS:     220822
DTLB RFO       ACCESS:   21399174  HIT:   21362311  MISS:      36863
DTLB PREFETCH  ACCESS:          0  HIT:          0  MISS:          0
DTLB WRITEBACK ACCESS:          0  HIT:          0  MISS:          0
DTLB PREFETCH  REQUESTED:          0  ISSUED:          0  USEFUL:          0  USELESS:          0
DTLB TOTAL MSHR MERGED:     121945
DTLB LOAD MSHR MERGED:      84044
DTLB RFO MSHR MERGED:      37901
DTLB PREFETCH MSHR MERGED:          0
DTLB WRITEBACK MSHR MERGED:          0
DTLB TOTAL ACCESSES:  130563690 HITS:  130184060 MISSES:     379630
DTLB LOAD ACCESSES:  109126615 HITS:  108821749 MISSES:     304866
DTLB RFO ACCESSES:   21437075 HITS:   21362311 MISSES:      74764
DTLB PREFETCH ACCESSES:          0 HITS:          0 MISSES:          0
DTLB WRITEBACK ACCESSES:          0 HITS:          0 MISSES:          0
DTLB RQ ACCESS:  218633835
DTLB RQ TO_CACHE:  130563691
DTLB RQ MERGED:   88070144
DTLB RQ FORWARD:          0
DTLB WQ ACCESS:          0
DTLB WQ TO_CACHE:          0
DTLB WQ MERGED:          0
DTLB WQ FORWARD:          0
L1D TOTAL     ACCESS:  204665663  HIT:  193595003  MISS:   11070660
L1D LOAD      ACCESS:  106310787  HIT:  103147995  MISS:    3162792
L1D RFO       ACCESS:   26964001  HIT:   25213457  MISS:    1750544
L1D PREFETCH  ACCESS:   71390875  HIT:   65233551  MISS:    6157324
L1D WRITEBACK ACCESS:          0  HIT:          0  MISS:          0
L1D PREFETCH  REQUESTED:  108930448  ISSUED:  107266863  USEFUL:    5704322  USELESS:     452996
L1D TOTAL MSHR MERGED:   18294451
L1D LOAD MSHR MERGED:    4619149
L1D RFO MSHR MERGED:    6472744
L1D PREFETCH MSHR MERGED:    7202558
L1D WRITEBACK MSHR MERGED:          0
L1D TOTAL ACCESSES:  223021728 HITS:  193656617 MISSES:   29365111
L1D LOAD ACCESSES:  108956434 HITS:  103173981 MISSES:    5782453
L1D RFO ACCESSES:   33434450 HITS:   25213457 MISSES:    8220993
L1D PREFETCH ACCESSES:   80630844 HITS:   65269179 MISSES:   15361665
L1D WRITEBACK ACCESSES:          0 HITS:          0 MISSES:          0
L1D RQ ACCESS:  184990397
L1D RQ TO_CACHE:  108930448
L1D RQ MERGED:   76033963
L1D RQ FORWARD:          0
L1D WQ ACCESS:   33643426
L1D WQ TO_CACHE:   33434449
L1D WQ MERGED:     208977
L1D WQ FORWARD:      61614
L1I TOTAL     ACCESS:  134029925  HIT:  134005347  MISS:      24578
L1I LOAD      ACCESS:  134029925  HIT:  134005347  MISS:      24578
L1I RFO       ACCESS:          0  HIT:          0  MISS:          0
L1I PREFETCH  ACCESS:          0  HIT:          0  MISS:          0
L1I WRITEBACK ACCESS:          0  HIT:          0  MISS:          0
L1I PREFETCH  REQUESTED:          0  ISSUED:          0  USEFUL:          0  USELESS:          0
L1I TOTAL MSHR MERGED:      30504
L1I LOAD MSHR MERGED:      30504
L1I RFO MSHR MERGED:          0
L1I PREFETCH MSHR MERGED:          0
L1I WRITEBACK MSHR MERGED:          0
L1I TOTAL ACCESSES:  134060429 HITS:  134005347 MISSES:      55082
L1I LOAD ACCESSES:  134060429 HITS:  134005347 MISSES:      55082
L1I RFO ACCESSES:          0 HITS:          0 MISSES:          0
L1I PREFETCH ACCESSES:          0 HITS:          0 MISSES:          0
L1I WRITEBACK ACCESSES:          0 HITS:          0 MISSES:          0
L1I RQ ACCESS:  500000005
L1I RQ TO_CACHE:  134060429
L1I RQ MERGED:  365939576
L1I RQ FORWARD:          0
L1I WQ ACCESS:          0
L1I WQ TO_CACHE:          0
L1I WQ MERGED:          0
L1I WQ FORWARD:          0
L2C TOTAL     ACCESS:   14941240  HIT:    6945071  MISS:    7996169
L2C LOAD      ACCESS:    1187686  HIT:     299420  MISS:     888266
L2C RFO       ACCESS:    1748035  HIT:     369542  MISS:    1378493
L2C PREFETCH  ACCESS:    8323653  HIT:    2602936  MISS:    5720717
L2C WRITEBACK ACCESS:    3681866  HIT:    3673173  MISS:       8693
L2C PREFETCH  REQUESTED:     389765  ISSUED:     389763  USEFUL:     114919  USELESS:    5606633
L2C TOTAL MSHR MERGED:      41656
L2C LOAD MSHR MERGED:       2332
L2C RFO MSHR MERGED:       1395
L2C PREFETCH MSHR MERGED:      37929
L2C WRITEBACK MSHR MERGED:          0
L2C TOTAL ACCESSES:   15102464 HITS:    6945777 MISSES:    8156687
L2C LOAD ACCESSES:    1187882 HITS:     299616 MISSES:     888266
L2C RFO ACCESSES:    1748249 HITS:     369756 MISSES:    1378493
L2C PREFETCH ACCESSES:    8484467 HITS:    2603232 MISSES:    5881235
L2C WRITEBACK ACCESSES:    3681866 HITS:    3673173 MISSES:       8693
L2C RQ ACCESS:    2936131
L2C RQ TO_CACHE:    2935721
L2C RQ MERGED:          0
L2C RQ FORWARD:          0
L2C WQ ACCESS:    3681866
L2C WQ TO_CACHE:    3681866
L2C WQ MERGED:          0
L2C WQ FORWARD:        706
LLC TOTAL     ACCESS:   11181537  HIT:    3841654  MISS:    7339883
LLC LOAD      ACCESS:     885930  HIT:     305889  MISS:     580041
LLC RFO       ACCESS:    1377096  HIT:     221071  MISS:    1156025
LLC PREFETCH  ACCESS:    5814275  HIT:    1134733  MISS:    4679542
LLC WRITEBACK ACCESS:    3104236  HIT:    2179961  MISS:     924275
LLC PREFETCH  REQUESTED:          0  ISSUED:          0  USEFUL:      36349  USELESS:    4642615
LLC TOTAL MSHR MERGED:      22258
LLC LOAD MSHR MERGED:       6886
LLC RFO MSHR MERGED:        538
LLC PREFETCH MSHR MERGED:      14834
LLC WRITEBACK MSHR MERGED:          0
LLC TOTAL ACCESSES:   11203808 HITS:    3841667 MISSES:    7362141
LLC LOAD ACCESSES:     885934 HITS:     305893 MISSES:     580041
LLC RFO ACCESSES:    1377098 HITS:     221073 MISSES:    1156025
LLC PREFETCH ACCESSES:    5836540 HITS:    1134740 MISSES:    4701800
LLC WRITEBACK ACCESSES:    3104236 HITS:    2179961 MISSES:     924275
LLC 0 RQ ACCESS:    2263032
LLC 0 RQ TO_CACHE:    2263026
LLC 0 RQ MERGED:          0
LLC 0 RQ FORWARD:          0
LLC WQ ACCESS:    3104236
LLC WQ TO_CACHE:    3104236
LLC WQ MERGED:          0
LLC WQ FORWARD:         13
Major fault: 0 Minor fault: 11519
CPU 0 L1D next line prefetcher final stats
CPU 0 L2C PC-based stride prefetcher final stats
All Misses: 9237408
All Hits: 4555203
SD Algo Stats - Switches: 0 SRR-Repls: 652626 BRR-Repls: 0

DRAM Statistics
 CHANNEL 0
 RQ ROW_BUFFER_HIT:    3874326  ROW_BUFFER_MISS:    2540260
 DBUS_CONGESTED:    4377383
 WQ ROW_BUFFER_HIT:     330779  ROW_BUFFER_MISS:    1846623  FULL:        123

 AVG_CONGESTED_CYCLE: 13
LOADS RETIRED: 190375692
INSTR RETIRED: 500000000
