
*** ChampSim Multicore Out-of-Order Simulator ***

Warmup Instructions: 100000000
Simulation Instructions: 500000000
Number of CPUs: 1
LLC sets: 2048
LLC ways: 16
Clean RRIP Policies: 210120202101202 Dirty RRIP Policies: 1200020212000202 PSEL Width: 10 Track Set: 4294967295 PSEL Mask: 1 Demote Mask: 3221042132210421DS Algo: 0Window size: 0
Off-chip DRAM Size: 4096 MB Channels: 1 Width: 64-bit Data Rate: 1600 MT/s

CPU 0 runs /mnt/beegfs/iconst01/spec2017/Cam4.trace.gz
NOT SORTED
TRACE STRING: /mnt/beegfs/iconst01/spec2017/Cam4.trace.gz
SORTED
TRACE STRING: /mnt/beegfs/iconst01/spec2017/Cam4.trace.gz
INITIAL
TRACE STRING: /mnt/beegfs/iconst01/spec2017/Cam4.trace.gz

champsim_seed used: 325

CPU 0 L1D next line prefetcher
CPU 0 L2C IP-based stride prefetcher
Initialize DRRIP state
Assign rand_sets[0]: 454  LLC: 2048
rand_sets[0]: 454
Assign rand_sets[1]: 1662  LLC: 2048
rand_sets[1]: 1662
Assign rand_sets[2]: 1921  LLC: 2048
rand_sets[2]: 1921
Assign rand_sets[3]: 1131  LLC: 2048
rand_sets[3]: 1131
Assign rand_sets[4]: 331  LLC: 2048
rand_sets[4]: 331
Assign rand_sets[5]: 1531  LLC: 2048
rand_sets[5]: 1531
Assign rand_sets[6]: 482  LLC: 2048
rand_sets[6]: 482
Assign rand_sets[7]: 1275  LLC: 2048
rand_sets[7]: 1275
Assign rand_sets[8]: 1876  LLC: 2048
rand_sets[8]: 1876
Assign rand_sets[9]: 2038  LLC: 2048
rand_sets[9]: 2038
Assign rand_sets[10]: 701  LLC: 2048
rand_sets[10]: 701
Assign rand_sets[11]: 479  LLC: 2048
rand_sets[11]: 479
Assign rand_sets[12]: 892  LLC: 2048
rand_sets[12]: 892
Assign rand_sets[13]: 1820  LLC: 2048
rand_sets[13]: 1820
Assign rand_sets[14]: 1505  LLC: 2048
rand_sets[14]: 1505
Assign rand_sets[15]: 1159  LLC: 2048
rand_sets[15]: 1159
Assign rand_sets[16]: 513  LLC: 2048
rand_sets[16]: 513
Assign rand_sets[17]: 703  LLC: 2048
rand_sets[17]: 703
Assign rand_sets[18]: 561  LLC: 2048
rand_sets[18]: 561
Assign rand_sets[19]: 990  LLC: 2048
rand_sets[19]: 990
Assign rand_sets[20]: 342  LLC: 2048
rand_sets[20]: 342
Assign rand_sets[21]: 882  LLC: 2048
rand_sets[21]: 882
Assign rand_sets[22]: 15  LLC: 2048
rand_sets[22]: 15
Assign rand_sets[23]: 71  LLC: 2048
rand_sets[23]: 71
Assign rand_sets[24]: 1127  LLC: 2048
rand_sets[24]: 1127
Assign rand_sets[25]: 1382  LLC: 2048
rand_sets[25]: 1382
Assign rand_sets[26]: 647  LLC: 2048
rand_sets[26]: 647
Assign rand_sets[27]: 857  LLC: 2048
rand_sets[27]: 857
Assign rand_sets[28]: 1450  LLC: 2048
rand_sets[28]: 1450
Assign rand_sets[29]: 1160  LLC: 2048
rand_sets[29]: 1160
Assign rand_sets[30]: 1852  LLC: 2048
rand_sets[30]: 1852
Assign rand_sets[31]: 1881  LLC: 2048
rand_sets[31]: 1881
Assign rand_sets[32]: 1770  LLC: 2048
rand_sets[32]: 1770
Assign rand_sets[33]: 1622  LLC: 2048
rand_sets[33]: 1622
Assign rand_sets[34]: 275  LLC: 2048
rand_sets[34]: 275
Assign rand_sets[35]: 635  LLC: 2048
rand_sets[35]: 635
Assign rand_sets[36]: 466  LLC: 2048
rand_sets[36]: 466
Assign rand_sets[37]: 1413  LLC: 2048
rand_sets[37]: 1413
Assign rand_sets[38]: 417  LLC: 2048
rand_sets[38]: 417
Assign rand_sets[39]: 472  LLC: 2048
rand_sets[39]: 472
Assign rand_sets[40]: 1340  LLC: 2048
rand_sets[40]: 1340
Assign rand_sets[41]: 852  LLC: 2048
rand_sets[41]: 852
Assign rand_sets[42]: 1365  LLC: 2048
rand_sets[42]: 1365
Assign rand_sets[43]: 47  LLC: 2048
rand_sets[43]: 47
Assign rand_sets[44]: 823  LLC: 2048
rand_sets[44]: 823
Assign rand_sets[45]: 686  LLC: 2048
rand_sets[45]: 686
Assign rand_sets[46]: 1637  LLC: 2048
rand_sets[46]: 1637
Assign rand_sets[47]: 1115  LLC: 2048
rand_sets[47]: 1115
Assign rand_sets[48]: 986  LLC: 2048
rand_sets[48]: 986
Assign rand_sets[49]: 258  LLC: 2048
rand_sets[49]: 258
Assign rand_sets[50]: 633  LLC: 2048
rand_sets[50]: 633
Assign rand_sets[51]: 920  LLC: 2048
rand_sets[51]: 920
Assign rand_sets[52]: 204  LLC: 2048
rand_sets[52]: 204
Assign rand_sets[53]: 227  LLC: 2048
rand_sets[53]: 227
Assign rand_sets[54]: 1818  LLC: 2048
rand_sets[54]: 1818
Assign rand_sets[55]: 886  LLC: 2048
rand_sets[55]: 886
Assign rand_sets[56]: 1422  LLC: 2048
rand_sets[56]: 1422
Assign rand_sets[57]: 607  LLC: 2048
rand_sets[57]: 607
Assign rand_sets[58]: 217  LLC: 2048
rand_sets[58]: 217
Assign rand_sets[59]: 1945  LLC: 2048
rand_sets[59]: 1945
Assign rand_sets[60]: 143  LLC: 2048
rand_sets[60]: 143
Assign rand_sets[61]: 1311  LLC: 2048
rand_sets[61]: 1311
Assign rand_sets[62]: 319  LLC: 2048
rand_sets[62]: 319
Assign rand_sets[63]: 1846  LLC: 2048
rand_sets[63]: 1846
 CLEAN-RRIP-POLICY-1: 0-2-1-0-1-2-0-2- CLEAN-RRIP-POLICY-2: 0-2-1-0-1-2-0-2-
 DIRTY-RRIP-POLICY-1: 1-2-0-0-0-2-0-2- DIRTY-RRIP-POLICY-2: 1-2-0-0-0-2-0-2-
 PSEL width: 10
Heartbeat CPU 0 instructions: 10000000 cycles: 4859184 heartbeat IPC: 2.05796 cumulative IPC: 2.05796 (Simulation time: 0 hr 0 min 17 sec) 
Heartbeat CPU 0 instructions: 20000000 cycles: 9790761 heartbeat IPC: 2.02775 cumulative IPC: 2.04274 (Simulation time: 0 hr 0 min 34 sec) 
Heartbeat CPU 0 instructions: 30000001 cycles: 14563050 heartbeat IPC: 2.09543 cumulative IPC: 2.06001 (Simulation time: 0 hr 0 min 49 sec) 
Heartbeat CPU 0 instructions: 40000000 cycles: 19400085 heartbeat IPC: 2.06738 cumulative IPC: 2.06185 (Simulation time: 0 hr 1 min 6 sec) 
Heartbeat CPU 0 instructions: 50000000 cycles: 24256635 heartbeat IPC: 2.05907 cumulative IPC: 2.06129 (Simulation time: 0 hr 1 min 22 sec) 
Heartbeat CPU 0 instructions: 60000000 cycles: 29182182 heartbeat IPC: 2.03023 cumulative IPC: 2.05605 (Simulation time: 0 hr 1 min 39 sec) 
Heartbeat CPU 0 instructions: 70000001 cycles: 33957238 heartbeat IPC: 2.09422 cumulative IPC: 2.06142 (Simulation time: 0 hr 1 min 54 sec) 
Heartbeat CPU 0 instructions: 80000000 cycles: 38793513 heartbeat IPC: 2.06771 cumulative IPC: 2.0622 (Simulation time: 0 hr 2 min 11 sec) 
Heartbeat CPU 0 instructions: 90000002 cycles: 43647543 heartbeat IPC: 2.06014 cumulative IPC: 2.06197 (Simulation time: 0 hr 2 min 29 sec) 
Heartbeat CPU 0 instructions: 100000000 cycles: 48566421 heartbeat IPC: 2.03298 cumulative IPC: 2.05904 (Simulation time: 0 hr 2 min 46 sec) 

Warmup complete CPU 0 instructions: 100000001 cycles: 48566422 (Simulation time: 0 hr 2 min 46 sec) 

Heartbeat CPU 0 instructions: 110000000 cycles: 61813508 heartbeat IPC: 0.754883 cumulative IPC: 0.754883 (Simulation time: 0 hr 3 min 9 sec) 
Heartbeat CPU 0 instructions: 120000000 cycles: 75570772 heartbeat IPC: 0.726889 cumulative IPC: 0.740621 (Simulation time: 0 hr 3 min 34 sec) 
Heartbeat CPU 0 instructions: 130000000 cycles: 89323266 heartbeat IPC: 0.727141 cumulative IPC: 0.736073 (Simulation time: 0 hr 4 min 0 sec) 
Heartbeat CPU 0 instructions: 140000000 cycles: 103602663 heartbeat IPC: 0.70031 cumulative IPC: 0.726794 (Simulation time: 0 hr 4 min 25 sec) 
Heartbeat CPU 0 instructions: 150000003 cycles: 116895481 heartbeat IPC: 0.752286 cumulative IPC: 0.731753 (Simulation time: 0 hr 4 min 49 sec) 
Heartbeat CPU 0 instructions: 160000000 cycles: 130656264 heartbeat IPC: 0.726703 cumulative IPC: 0.730906 (Simulation time: 0 hr 5 min 14 sec) 
Heartbeat CPU 0 instructions: 170000001 cycles: 144441896 heartbeat IPC: 0.725393 cumulative IPC: 0.730114 (Simulation time: 0 hr 5 min 40 sec) 
Heartbeat CPU 0 instructions: 180000000 cycles: 158707800 heartbeat IPC: 0.700972 cumulative IPC: 0.726339 (Simulation time: 0 hr 6 min 5 sec) 
Heartbeat CPU 0 instructions: 190000003 cycles: 171975794 heartbeat IPC: 0.753694 cumulative IPC: 0.72928 (Simulation time: 0 hr 6 min 28 sec) 
Heartbeat CPU 0 instructions: 200000000 cycles: 185734394 heartbeat IPC: 0.726818 cumulative IPC: 0.729033 (Simulation time: 0 hr 6 min 54 sec) 
Heartbeat CPU 0 instructions: 210000002 cycles: 199526132 heartbeat IPC: 0.725072 cumulative IPC: 0.728671 (Simulation time: 0 hr 7 min 19 sec) 
Heartbeat CPU 0 instructions: 220000000 cycles: 213796448 heartbeat IPC: 0.700755 cumulative IPC: 0.72626 (Simulation time: 0 hr 7 min 45 sec) 
Heartbeat CPU 0 instructions: 230000001 cycles: 227006143 heartbeat IPC: 0.75702 cumulative IPC: 0.728537 (Simulation time: 0 hr 8 min 8 sec) 
Heartbeat CPU 0 instructions: 240000000 cycles: 240752912 heartbeat IPC: 0.727444 cumulative IPC: 0.728459 (Simulation time: 0 hr 8 min 34 sec) 
Heartbeat CPU 0 instructions: 250000001 cycles: 254501563 heartbeat IPC: 0.727344 cumulative IPC: 0.728385 (Simulation time: 0 hr 8 min 59 sec) 
Heartbeat CPU 0 instructions: 260000000 cycles: 268661661 heartbeat IPC: 0.70621 cumulative IPC: 0.726958 (Simulation time: 0 hr 9 min 25 sec) 
Heartbeat CPU 0 instructions: 270000003 cycles: 282013151 heartbeat IPC: 0.74898 cumulative IPC: 0.728218 (Simulation time: 0 hr 9 min 48 sec) 
Heartbeat CPU 0 instructions: 280000000 cycles: 295783341 heartbeat IPC: 0.726206 cumulative IPC: 0.728105 (Simulation time: 0 hr 10 min 13 sec) 
Heartbeat CPU 0 instructions: 290000001 cycles: 309574192 heartbeat IPC: 0.725118 cumulative IPC: 0.727948 (Simulation time: 0 hr 10 min 39 sec) 
Heartbeat CPU 0 instructions: 300000000 cycles: 323672075 heartbeat IPC: 0.709326 cumulative IPC: 0.726993 (Simulation time: 0 hr 11 min 4 sec) 
Heartbeat CPU 0 instructions: 310000000 cycles: 337040672 heartbeat IPC: 0.748022 cumulative IPC: 0.727968 (Simulation time: 0 hr 11 min 28 sec) 
Heartbeat CPU 0 instructions: 320000000 cycles: 350848440 heartbeat IPC: 0.72423 cumulative IPC: 0.727797 (Simulation time: 0 hr 11 min 53 sec) 
Heartbeat CPU 0 instructions: 330000000 cycles: 364655505 heartbeat IPC: 0.724267 cumulative IPC: 0.727643 (Simulation time: 0 hr 12 min 18 sec) 
Heartbeat CPU 0 instructions: 340000000 cycles: 378722609 heartbeat IPC: 0.710878 cumulative IPC: 0.726929 (Simulation time: 0 hr 12 min 44 sec) 
Heartbeat CPU 0 instructions: 350000000 cycles: 392158126 heartbeat IPC: 0.744296 cumulative IPC: 0.727608 (Simulation time: 0 hr 13 min 6 sec) 
Heartbeat CPU 0 instructions: 360000000 cycles: 406000291 heartbeat IPC: 0.72243 cumulative IPC: 0.727407 (Simulation time: 0 hr 13 min 31 sec) 
Heartbeat CPU 0 instructions: 370000003 cycles: 419807259 heartbeat IPC: 0.724272 cumulative IPC: 0.727291 (Simulation time: 0 hr 13 min 56 sec) 
Heartbeat CPU 0 instructions: 380000000 cycles: 433841113 heartbeat IPC: 0.712562 cumulative IPC: 0.726754 (Simulation time: 0 hr 14 min 22 sec) 
Heartbeat CPU 0 instructions: 390000003 cycles: 447287954 heartbeat IPC: 0.743669 cumulative IPC: 0.727325 (Simulation time: 0 hr 14 min 44 sec) 
Heartbeat CPU 0 instructions: 400000000 cycles: 461113556 heartbeat IPC: 0.723296 cumulative IPC: 0.72719 (Simulation time: 0 hr 15 min 9 sec) 
Heartbeat CPU 0 instructions: 410000000 cycles: 474885948 heartbeat IPC: 0.72609 cumulative IPC: 0.727154 (Simulation time: 0 hr 15 min 34 sec) 
Heartbeat CPU 0 instructions: 420000000 cycles: 488910663 heartbeat IPC: 0.713027 cumulative IPC: 0.726704 (Simulation time: 0 hr 15 min 59 sec) 
Heartbeat CPU 0 instructions: 430000003 cycles: 502388258 heartbeat IPC: 0.741972 cumulative IPC: 0.727158 (Simulation time: 0 hr 16 min 22 sec) 
Heartbeat CPU 0 instructions: 440000000 cycles: 516212181 heartbeat IPC: 0.723383 cumulative IPC: 0.727046 (Simulation time: 0 hr 16 min 47 sec) 
Heartbeat CPU 0 instructions: 450000000 cycles: 530005145 heartbeat IPC: 0.725007 cumulative IPC: 0.726988 (Simulation time: 0 hr 17 min 12 sec) 
Heartbeat CPU 0 instructions: 460000000 cycles: 544017518 heartbeat IPC: 0.713655 cumulative IPC: 0.726611 (Simulation time: 0 hr 17 min 37 sec) 
Heartbeat CPU 0 instructions: 470000001 cycles: 557488458 heartbeat IPC: 0.742339 cumulative IPC: 0.727027 (Simulation time: 0 hr 18 min 0 sec) 
Heartbeat CPU 0 instructions: 480000000 cycles: 571281537 heartbeat IPC: 0.725001 cumulative IPC: 0.726973 (Simulation time: 0 hr 18 min 24 sec) 
Heartbeat CPU 0 instructions: 490000002 cycles: 585042342 heartbeat IPC: 0.726702 cumulative IPC: 0.726966 (Simulation time: 0 hr 18 min 49 sec) 
Heartbeat CPU 0 instructions: 500000000 cycles: 599042187 heartbeat IPC: 0.714293 cumulative IPC: 0.726644 (Simulation time: 0 hr 19 min 14 sec) 
Heartbeat CPU 0 instructions: 510000002 cycles: 612504626 heartbeat IPC: 0.742808 cumulative IPC: 0.72703 (Simulation time: 0 hr 19 min 37 sec) 
Heartbeat CPU 0 instructions: 520000000 cycles: 626286997 heartbeat IPC: 0.725564 cumulative IPC: 0.726995 (Simulation time: 0 hr 20 min 2 sec) 
Heartbeat CPU 0 instructions: 530000003 cycles: 640035894 heartbeat IPC: 0.727331 cumulative IPC: 0.727003 (Simulation time: 0 hr 20 min 27 sec) 
Heartbeat CPU 0 instructions: 540000000 cycles: 654062270 heartbeat IPC: 0.712942 cumulative IPC: 0.726677 (Simulation time: 0 hr 20 min 52 sec) 
Heartbeat CPU 0 instructions: 550000003 cycles: 667536436 heartbeat IPC: 0.742161 cumulative IPC: 0.727014 (Simulation time: 0 hr 21 min 14 sec) 
Heartbeat CPU 0 instructions: 560000000 cycles: 681302287 heartbeat IPC: 0.726435 cumulative IPC: 0.727002 (Simulation time: 0 hr 21 min 39 sec) 
Heartbeat CPU 0 instructions: 570000001 cycles: 695084244 heartbeat IPC: 0.725586 cumulative IPC: 0.726971 (Simulation time: 0 hr 22 min 4 sec) 
Heartbeat CPU 0 instructions: 580000000 cycles: 709132394 heartbeat IPC: 0.711837 cumulative IPC: 0.72665 (Simulation time: 0 hr 22 min 29 sec) 
Heartbeat CPU 0 instructions: 590000000 cycles: 722545598 heartbeat IPC: 0.745534 cumulative IPC: 0.727025 (Simulation time: 0 hr 22 min 52 sec) 
Heartbeat CPU 0 instructions: 600000000 cycles: 736318206 heartbeat IPC: 0.726079 cumulative IPC: 0.727006 (Simulation time: 0 hr 23 min 16 sec) 
Finished CPU 0 instructions: 500000001 cycles: 687751792 cumulative IPC: 0.727006 (Simulation time: 0 hr 23 min 16 sec) 

CPU 0 Branch Prediction Accuracy: 97.5275% MPKI: 2.1997
Number of Branches: 44482865 Number of Mispredictions: 1099852
Number of LOAD Instructions: 144955155
Number of LOAD Instructions (ROI): 144955155
Number of STORE Instructions: 55921098
Number of STORE Instructions (ROI): 55921098
Total Destination Memory Operands: 57111147
Total Destination Memory Operands (ROI): 57111147
Total Source Memory Operands: 144955155
Total Source Memory Operands (ROI): 144955155
Number of DEPENDED LOADS: 13454440
Number of DEPENDED LOADS (ROI): 13454440
Number of SQ_ADDED: 57111126
Number of SQ_ADDED (ROI): 57111126
Number of LQ_ADDED: 174259592
Number of LQ_ADDED (ROI): 174259592
Number of Instructions read from trace: 600000256

ChampSim completed all CPUs

Region of Interest Statistics

CPU 0 cumulative IPC: 0.727006 instructions: 500000001 cycles: 687751792
ITLB TOTAL     ACCESS:  136061123  HIT:  136058570  MISS:       2553
ITLB LOAD      ACCESS:  136061123  HIT:  136058570  MISS:       2553
ITLB RFO       ACCESS:          0  HIT:          0  MISS:          0
ITLB PREFETCH  ACCESS:          0  HIT:          0  MISS:          0
ITLB WRITEBACK ACCESS:          0  HIT:          0  MISS:          0
ITLB PREFETCH  REQUESTED:          0  ISSUED:          0  USEFUL:          0  USELESS:          0
ITLB TOTAL MSHR MERGED:       4396
ITLB LOAD MSHR MERGED:       4396
ITLB RFO MSHR MERGED:          0
ITLB PREFETCH MSHR MERGED:          0
ITLB WRITEBACK MSHR MERGED:          0
ITLB TOTAL ACCESSES:  136065519 HITS:  136058570 MISSES:       6949
ITLB LOAD ACCESSES:  136065519 HITS:  136058570 MISSES:       6949
ITLB RFO ACCESSES:          0 HITS:          0 MISSES:          0
ITLB PREFETCH ACCESSES:          0 HITS:          0 MISSES:          0
ITLB WRITEBACK ACCESSES:          0 HITS:          0 MISSES:          0
ITLB RQ ACCESS:  500000202
ITLB RQ TO_CACHE:  136065519
ITLB RQ MERGED:  363934683
ITLB RQ FORWARD:          0
ITLB WQ ACCESS:          0
ITLB WQ TO_CACHE:          0
ITLB WQ MERGED:          0
ITLB WQ FORWARD:          0
DTLB TOTAL     ACCESS:  111548343  HIT:  111412148  MISS:     136195
DTLB LOAD      ACCESS:   78948226  HIT:   78822600  MISS:     125626
DTLB RFO       ACCESS:   32600117  HIT:   32589548  MISS:      10569
DTLB PREFETCH  ACCESS:          0  HIT:          0  MISS:          0
DTLB WRITEBACK ACCESS:          0  HIT:          0  MISS:          0
DTLB PREFETCH  REQUESTED:          0  ISSUED:          0  USEFUL:          0  USELESS:          0
DTLB TOTAL MSHR MERGED:      63654
DTLB LOAD MSHR MERGED:      50926
DTLB RFO MSHR MERGED:      12728
DTLB PREFETCH MSHR MERGED:          0
DTLB WRITEBACK MSHR MERGED:          0
DTLB TOTAL ACCESSES:  111611997 HITS:  111412148 MISSES:     199849
DTLB LOAD ACCESSES:   78999152 HITS:   78822600 MISSES:     176552
DTLB RFO ACCESSES:   32612845 HITS:   32589548 MISSES:      23297
DTLB PREFETCH ACCESSES:          0 HITS:          0 MISSES:          0
DTLB WRITEBACK ACCESSES:          0 HITS:          0 MISSES:          0
DTLB RQ ACCESS:  157180975
DTLB RQ TO_CACHE:  111611997
DTLB RQ MERGED:   45568978
DTLB RQ FORWARD:          0
DTLB WQ ACCESS:          0
DTLB WQ TO_CACHE:          0
DTLB WQ MERGED:          0
DTLB WQ FORWARD:          0
L1D TOTAL     ACCESS:  198232786  HIT:  188391741  MISS:    9841045
L1D LOAD      ACCESS:   79947588  HIT:   75687084  MISS:    4260504
L1D RFO       ACCESS:   44518782  HIT:   43618453  MISS:     900329
L1D PREFETCH  ACCESS:   73766416  HIT:   69086204  MISS:    4680212
L1D WRITEBACK ACCESS:          0  HIT:          0  MISS:          0
L1D PREFETCH  REQUESTED:   80344339  ISSUED:   79888854  USEFUL:    1821920  USELESS:    2858201
L1D TOTAL MSHR MERGED:    2497207
L1D LOAD MSHR MERGED:     518388
L1D RFO MSHR MERGED:    1433766
L1D PREFETCH MSHR MERGED:     545053
L1D WRITEBACK MSHR MERGED:          0
L1D TOTAL ACCESSES:  200751480 HITS:  188413228 MISSES:   12338252
L1D LOAD ACCESSES:   80357214 HITS:   75699959 MISSES:    4657255
L1D RFO ACCESSES:   45949574 HITS:   43618453 MISSES:    2331121
L1D PREFETCH ACCESSES:   74444692 HITS:   69094816 MISSES:    5349876
L1D WRITEBACK ACCESSES:          0 HITS:          0 MISSES:          0
L1D RQ ACCESS:  109539005
L1D RQ TO_CACHE:   80344339
L1D RQ MERGED:   29181791
L1D RQ FORWARD:          0
L1D WQ ACCESS:   47641970
L1D WQ TO_CACHE:   45949574
L1D WQ MERGED:    1692396
L1D WQ FORWARD:      21487
L1I TOTAL     ACCESS:  161531703  HIT:  161267735  MISS:     263968
L1I LOAD      ACCESS:  161531703  HIT:  161267735  MISS:     263968
L1I RFO       ACCESS:          0  HIT:          0  MISS:          0
L1I PREFETCH  ACCESS:          0  HIT:          0  MISS:          0
L1I WRITEBACK ACCESS:          0  HIT:          0  MISS:          0
L1I PREFETCH  REQUESTED:          0  ISSUED:          0  USEFUL:          0  USELESS:          0
L1I TOTAL MSHR MERGED:     261347
L1I LOAD MSHR MERGED:     261347
L1I RFO MSHR MERGED:          0
L1I PREFETCH MSHR MERGED:          0
L1I WRITEBACK MSHR MERGED:          0
L1I TOTAL ACCESSES:  161793050 HITS:  161267735 MISSES:     525315
L1I LOAD ACCESSES:  161793050 HITS:  161267735 MISSES:     525315
L1I RFO ACCESSES:          0 HITS:          0 MISSES:          0
L1I PREFETCH ACCESSES:          0 HITS:          0 MISSES:          0
L1I WRITEBACK ACCESSES:          0 HITS:          0 MISSES:          0
L1I RQ ACCESS:  500000202
L1I RQ TO_CACHE:  161793050
L1I RQ MERGED:  338207152
L1I RQ FORWARD:          0
L1I WQ ACCESS:          0
L1I WQ TO_CACHE:          0
L1I WQ MERGED:          0
L1I WQ FORWARD:          0
L2C TOTAL     ACCESS:   11771512  HIT:   10382237  MISS:    1389275
L2C LOAD      ACCESS:    4402769  HIT:    3906092  MISS:     496677
L2C RFO       ACCESS:     897288  HIT:     536267  MISS:     361021
L2C PREFETCH  ACCESS:    5283941  HIT:    4755315  MISS:     528626
L2C WRITEBACK ACCESS:    1187514  HIT:    1184563  MISS:       2951
L2C PREFETCH  REQUESTED:     504226  ISSUED:     504226  USEFUL:     114820  USELESS:     413999
L2C TOTAL MSHR MERGED:       1817
L2C LOAD MSHR MERGED:        361
L2C RFO MSHR MERGED:          0
L2C PREFETCH MSHR MERGED:       1456
L2C WRITEBACK MSHR MERGED:          0
L2C TOTAL ACCESSES:   11776204 HITS:   10382454 MISSES:    1393750
L2C LOAD ACCESSES:    4402835 HITS:    3906158 MISSES:     496677
L2C RFO ACCESSES:     897355 HITS:     536334 MISSES:     361021
L2C PREFETCH ACCESSES:    5288500 HITS:    4755399 MISSES:     533101
L2C WRITEBACK ACCESSES:    1187514 HITS:    1184563 MISSES:       2951
L2C RQ ACCESS:    5300190
L2C RQ TO_CACHE:    5300057
L2C RQ MERGED:          0
L2C RQ FORWARD:          0
L2C WQ ACCESS:    1187514
L2C WQ TO_CACHE:    1187514
L2C WQ MERGED:          0
L2C WQ FORWARD:        217
LLC TOTAL     ACCESS:    1849593  HIT:    1178434  MISS:     671159
LLC LOAD      ACCESS:     496312  HIT:     226518  MISS:     269794
LLC RFO       ACCESS:     361017  HIT:     206245  MISS:     154772
LLC PREFETCH  ACCESS:     531543  HIT:     341479  MISS:     190064
LLC WRITEBACK ACCESS:     460721  HIT:     404192  MISS:      56529
LLC PREFETCH  REQUESTED:          0  ISSUED:          0  USEFUL:      13304  USELESS:     176896
LLC TOTAL MSHR MERGED:         75
LLC LOAD MSHR MERGED:         32
LLC RFO MSHR MERGED:          0
LLC PREFETCH MSHR MERGED:         43
LLC WRITEBACK MSHR MERGED:          0
LLC TOTAL ACCESSES:    1849695 HITS:    1178461 MISSES:     671234
LLC LOAD ACCESSES:     496316 HITS:     226522 MISSES:     269794
LLC RFO ACCESSES:     361021 HITS:     206249 MISSES:     154772
LLC PREFETCH ACCESSES:     531637 HITS:     341498 MISSES:     190139
LLC WRITEBACK ACCESSES:     460721 HITS:     404192 MISSES:      56529
LLC 0 RQ ACCESS:     857337
LLC 0 RQ TO_CACHE:     857329
LLC 0 RQ MERGED:          0
LLC 0 RQ FORWARD:          0
LLC WQ ACCESS:     460721
LLC WQ TO_CACHE:     460721
LLC WQ MERGED:          0
LLC WQ FORWARD:         27
Major fault: 0 Minor fault: 3073
CPU 0 L1D next line prefetcher final stats
CPU 0 L2C PC-based stride prefetcher final stats
All Misses: 806723
All Hits: 1369561
SD Algo Stats - Switches: 0 SRR-Repls: 309988 BRR-Repls: 0

DRAM Statistics
 CHANNEL 0
 RQ ROW_BUFFER_HIT:     387270  ROW_BUFFER_MISS:     226911
 DBUS_CONGESTED:     454170
 WQ ROW_BUFFER_HIT:      17064  ROW_BUFFER_MISS:     151299  FULL:          0

 AVG_CONGESTED_CYCLE: 13
LOADS RETIRED: 120673965
INSTR RETIRED: 500000000
