
*** ChampSim Multicore Out-of-Order Simulator ***

Warmup Instructions: 100000000
Simulation Instructions: 500000000
Number of CPUs: 1
LLC sets: 2048
LLC ways: 16
Clean RRIP Policies: 2203222022032220 Dirty RRIP Policies: 1203022012030220 PSEL Width: 10 Track Set: 4294967295 PSEL Mask: 1 Demote Mask: 2102414021024140DS Algo: 0Window size: 0
Off-chip DRAM Size: 4096 MB Channels: 1 Width: 64-bit Data Rate: 1600 MT/s

CPU 0 runs /mnt/beegfs/iconst01/spec2017/cactuBSSN.trace.gz
NOT SORTED
TRACE STRING: /mnt/beegfs/iconst01/spec2017/cactuBSSN.trace.gz
SORTED
TRACE STRING: /mnt/beegfs/iconst01/spec2017/cactuBSSN.trace.gz
INITIAL
TRACE STRING: /mnt/beegfs/iconst01/spec2017/cactuBSSN.trace.gz

champsim_seed used: 838

CPU 0 L1D next line prefetcher
CPU 0 L2C IP-based stride prefetcher
Initialize DRRIP state
Assign rand_sets[0]: 454  LLC: 2048
rand_sets[0]: 454
Assign rand_sets[1]: 1662  LLC: 2048
rand_sets[1]: 1662
Assign rand_sets[2]: 1921  LLC: 2048
rand_sets[2]: 1921
Assign rand_sets[3]: 1131  LLC: 2048
rand_sets[3]: 1131
Assign rand_sets[4]: 331  LLC: 2048
rand_sets[4]: 331
Assign rand_sets[5]: 1531  LLC: 2048
rand_sets[5]: 1531
Assign rand_sets[6]: 482  LLC: 2048
rand_sets[6]: 482
Assign rand_sets[7]: 1275  LLC: 2048
rand_sets[7]: 1275
Assign rand_sets[8]: 1876  LLC: 2048
rand_sets[8]: 1876
Assign rand_sets[9]: 2038  LLC: 2048
rand_sets[9]: 2038
Assign rand_sets[10]: 701  LLC: 2048
rand_sets[10]: 701
Assign rand_sets[11]: 479  LLC: 2048
rand_sets[11]: 479
Assign rand_sets[12]: 892  LLC: 2048
rand_sets[12]: 892
Assign rand_sets[13]: 1820  LLC: 2048
rand_sets[13]: 1820
Assign rand_sets[14]: 1505  LLC: 2048
rand_sets[14]: 1505
Assign rand_sets[15]: 1159  LLC: 2048
rand_sets[15]: 1159
Assign rand_sets[16]: 513  LLC: 2048
rand_sets[16]: 513
Assign rand_sets[17]: 703  LLC: 2048
rand_sets[17]: 703
Assign rand_sets[18]: 561  LLC: 2048
rand_sets[18]: 561
Assign rand_sets[19]: 990  LLC: 2048
rand_sets[19]: 990
Assign rand_sets[20]: 342  LLC: 2048
rand_sets[20]: 342
Assign rand_sets[21]: 882  LLC: 2048
rand_sets[21]: 882
Assign rand_sets[22]: 15  LLC: 2048
rand_sets[22]: 15
Assign rand_sets[23]: 71  LLC: 2048
rand_sets[23]: 71
Assign rand_sets[24]: 1127  LLC: 2048
rand_sets[24]: 1127
Assign rand_sets[25]: 1382  LLC: 2048
rand_sets[25]: 1382
Assign rand_sets[26]: 647  LLC: 2048
rand_sets[26]: 647
Assign rand_sets[27]: 857  LLC: 2048
rand_sets[27]: 857
Assign rand_sets[28]: 1450  LLC: 2048
rand_sets[28]: 1450
Assign rand_sets[29]: 1160  LLC: 2048
rand_sets[29]: 1160
Assign rand_sets[30]: 1852  LLC: 2048
rand_sets[30]: 1852
Assign rand_sets[31]: 1881  LLC: 2048
rand_sets[31]: 1881
Assign rand_sets[32]: 1770  LLC: 2048
rand_sets[32]: 1770
Assign rand_sets[33]: 1622  LLC: 2048
rand_sets[33]: 1622
Assign rand_sets[34]: 275  LLC: 2048
rand_sets[34]: 275
Assign rand_sets[35]: 635  LLC: 2048
rand_sets[35]: 635
Assign rand_sets[36]: 466  LLC: 2048
rand_sets[36]: 466
Assign rand_sets[37]: 1413  LLC: 2048
rand_sets[37]: 1413
Assign rand_sets[38]: 417  LLC: 2048
rand_sets[38]: 417
Assign rand_sets[39]: 472  LLC: 2048
rand_sets[39]: 472
Assign rand_sets[40]: 1340  LLC: 2048
rand_sets[40]: 1340
Assign rand_sets[41]: 852  LLC: 2048
rand_sets[41]: 852
Assign rand_sets[42]: 1365  LLC: 2048
rand_sets[42]: 1365
Assign rand_sets[43]: 47  LLC: 2048
rand_sets[43]: 47
Assign rand_sets[44]: 823  LLC: 2048
rand_sets[44]: 823
Assign rand_sets[45]: 686  LLC: 2048
rand_sets[45]: 686
Assign rand_sets[46]: 1637  LLC: 2048
rand_sets[46]: 1637
Assign rand_sets[47]: 1115  LLC: 2048
rand_sets[47]: 1115
Assign rand_sets[48]: 986  LLC: 2048
rand_sets[48]: 986
Assign rand_sets[49]: 258  LLC: 2048
rand_sets[49]: 258
Assign rand_sets[50]: 633  LLC: 2048
rand_sets[50]: 633
Assign rand_sets[51]: 920  LLC: 2048
rand_sets[51]: 920
Assign rand_sets[52]: 204  LLC: 2048
rand_sets[52]: 204
Assign rand_sets[53]: 227  LLC: 2048
rand_sets[53]: 227
Assign rand_sets[54]: 1818  LLC: 2048
rand_sets[54]: 1818
Assign rand_sets[55]: 886  LLC: 2048
rand_sets[55]: 886
Assign rand_sets[56]: 1422  LLC: 2048
rand_sets[56]: 1422
Assign rand_sets[57]: 607  LLC: 2048
rand_sets[57]: 607
Assign rand_sets[58]: 217  LLC: 2048
rand_sets[58]: 217
Assign rand_sets[59]: 1945  LLC: 2048
rand_sets[59]: 1945
Assign rand_sets[60]: 143  LLC: 2048
rand_sets[60]: 143
Assign rand_sets[61]: 1311  LLC: 2048
rand_sets[61]: 1311
Assign rand_sets[62]: 319  LLC: 2048
rand_sets[62]: 319
Assign rand_sets[63]: 1846  LLC: 2048
rand_sets[63]: 1846
 CLEAN-RRIP-POLICY-1: 2-2-0-3-2-2-2-0- CLEAN-RRIP-POLICY-2: 2-2-0-3-2-2-2-0-
 DIRTY-RRIP-POLICY-1: 1-2-0-3-0-2-2-0- DIRTY-RRIP-POLICY-2: 1-2-0-3-0-2-2-0-
 PSEL width: 10
Heartbeat CPU 0 instructions: 10000000 cycles: 6588007 heartbeat IPC: 1.51791 cumulative IPC: 1.51791 (Simulation time: 0 hr 0 min 32 sec) 
Heartbeat CPU 0 instructions: 20000000 cycles: 13179647 heartbeat IPC: 1.51707 cumulative IPC: 1.51749 (Simulation time: 0 hr 0 min 56 sec) 
Heartbeat CPU 0 instructions: 30000003 cycles: 19773072 heartbeat IPC: 1.51666 cumulative IPC: 1.51722 (Simulation time: 0 hr 1 min 21 sec) 
Heartbeat CPU 0 instructions: 40000000 cycles: 26364867 heartbeat IPC: 1.51704 cumulative IPC: 1.51717 (Simulation time: 0 hr 1 min 55 sec) 
Heartbeat CPU 0 instructions: 50000001 cycles: 32957559 heartbeat IPC: 1.51683 cumulative IPC: 1.5171 (Simulation time: 0 hr 2 min 24 sec) 
Heartbeat CPU 0 instructions: 60000000 cycles: 39556384 heartbeat IPC: 1.51542 cumulative IPC: 1.51682 (Simulation time: 0 hr 2 min 57 sec) 
Heartbeat CPU 0 instructions: 70000003 cycles: 46154778 heartbeat IPC: 1.51552 cumulative IPC: 1.51664 (Simulation time: 0 hr 3 min 27 sec) 
Heartbeat CPU 0 instructions: 80000000 cycles: 52752875 heartbeat IPC: 1.51559 cumulative IPC: 1.51651 (Simulation time: 0 hr 3 min 57 sec) 
Heartbeat CPU 0 instructions: 90000002 cycles: 59348577 heartbeat IPC: 1.51614 cumulative IPC: 1.51646 (Simulation time: 0 hr 4 min 28 sec) 
Heartbeat CPU 0 instructions: 100000000 cycles: 65943671 heartbeat IPC: 1.51628 cumulative IPC: 1.51645 (Simulation time: 0 hr 4 min 52 sec) 

Warmup complete CPU 0 instructions: 100000002 cycles: 65943672 (Simulation time: 0 hr 4 min 52 sec) 

Heartbeat CPU 0 instructions: 110000000 cycles: 79211643 heartbeat IPC: 0.753695 cumulative IPC: 0.753695 (Simulation time: 0 hr 5 min 32 sec) 
Heartbeat CPU 0 instructions: 120000000 cycles: 92431701 heartbeat IPC: 0.756426 cumulative IPC: 0.755058 (Simulation time: 0 hr 6 min 11 sec) 
Heartbeat CPU 0 instructions: 130000001 cycles: 105739306 heartbeat IPC: 0.75145 cumulative IPC: 0.753852 (Simulation time: 0 hr 6 min 46 sec) 
Heartbeat CPU 0 instructions: 140000000 cycles: 118933528 heartbeat IPC: 0.757907 cumulative IPC: 0.754861 (Simulation time: 0 hr 7 min 25 sec) 
Heartbeat CPU 0 instructions: 150000001 cycles: 132138143 heartbeat IPC: 0.757311 cumulative IPC: 0.75535 (Simulation time: 0 hr 8 min 5 sec) 
Heartbeat CPU 0 instructions: 160000000 cycles: 145383640 heartbeat IPC: 0.754973 cumulative IPC: 0.755287 (Simulation time: 0 hr 8 min 49 sec) 
Heartbeat CPU 0 instructions: 170000000 cycles: 158611267 heartbeat IPC: 0.755993 cumulative IPC: 0.755388 (Simulation time: 0 hr 9 min 28 sec) 
Heartbeat CPU 0 instructions: 180000000 cycles: 171831971 heartbeat IPC: 0.756389 cumulative IPC: 0.755513 (Simulation time: 0 hr 10 min 8 sec) 
Heartbeat CPU 0 instructions: 190000000 cycles: 185012177 heartbeat IPC: 0.758713 cumulative IPC: 0.755867 (Simulation time: 0 hr 10 min 43 sec) 
Heartbeat CPU 0 instructions: 200000000 cycles: 198283602 heartbeat IPC: 0.753499 cumulative IPC: 0.75563 (Simulation time: 0 hr 11 min 22 sec) 
Heartbeat CPU 0 instructions: 210000002 cycles: 211515368 heartbeat IPC: 0.755757 cumulative IPC: 0.755641 (Simulation time: 0 hr 12 min 2 sec) 
Heartbeat CPU 0 instructions: 220000000 cycles: 224711985 heartbeat IPC: 0.75777 cumulative IPC: 0.755818 (Simulation time: 0 hr 12 min 46 sec) 
Heartbeat CPU 0 instructions: 230000003 cycles: 237967657 heartbeat IPC: 0.754394 cumulative IPC: 0.755709 (Simulation time: 0 hr 13 min 23 sec) 
Heartbeat CPU 0 instructions: 240000000 cycles: 251170390 heartbeat IPC: 0.757419 cumulative IPC: 0.75583 (Simulation time: 0 hr 13 min 57 sec) 
Heartbeat CPU 0 instructions: 250000001 cycles: 264416424 heartbeat IPC: 0.754943 cumulative IPC: 0.755771 (Simulation time: 0 hr 14 min 36 sec) 
Heartbeat CPU 0 instructions: 260000000 cycles: 277643674 heartbeat IPC: 0.756015 cumulative IPC: 0.755786 (Simulation time: 0 hr 15 min 16 sec) 
Heartbeat CPU 0 instructions: 270000003 cycles: 290899578 heartbeat IPC: 0.754381 cumulative IPC: 0.755704 (Simulation time: 0 hr 15 min 53 sec) 
Heartbeat CPU 0 instructions: 280000000 cycles: 304131542 heartbeat IPC: 0.755745 cumulative IPC: 0.755706 (Simulation time: 0 hr 16 min 38 sec) 
Heartbeat CPU 0 instructions: 290000000 cycles: 317323380 heartbeat IPC: 0.758044 cumulative IPC: 0.755829 (Simulation time: 0 hr 17 min 14 sec) 
Heartbeat CPU 0 instructions: 300000000 cycles: 330598199 heartbeat IPC: 0.753306 cumulative IPC: 0.755702 (Simulation time: 0 hr 17 min 50 sec) 
Heartbeat CPU 0 instructions: 310000001 cycles: 343780043 heartbeat IPC: 0.758619 cumulative IPC: 0.755841 (Simulation time: 0 hr 18 min 29 sec) 
Heartbeat CPU 0 instructions: 320000000 cycles: 356991230 heartbeat IPC: 0.756934 cumulative IPC: 0.75589 (Simulation time: 0 hr 19 min 7 sec) 
Heartbeat CPU 0 instructions: 330000002 cycles: 370208769 heartbeat IPC: 0.756571 cumulative IPC: 0.75592 (Simulation time: 0 hr 19 min 41 sec) 
Heartbeat CPU 0 instructions: 340000000 cycles: 383463482 heartbeat IPC: 0.754448 cumulative IPC: 0.755858 (Simulation time: 0 hr 20 min 15 sec) 
Heartbeat CPU 0 instructions: 350000000 cycles: 396733772 heartbeat IPC: 0.753563 cumulative IPC: 0.755766 (Simulation time: 0 hr 20 min 44 sec) 
Heartbeat CPU 0 instructions: 360000000 cycles: 409964787 heartbeat IPC: 0.7558 cumulative IPC: 0.755768 (Simulation time: 0 hr 21 min 13 sec) 
Heartbeat CPU 0 instructions: 370000002 cycles: 423239621 heartbeat IPC: 0.753305 cumulative IPC: 0.755676 (Simulation time: 0 hr 21 min 42 sec) 
Heartbeat CPU 0 instructions: 380000000 cycles: 436465381 heartbeat IPC: 0.7561 cumulative IPC: 0.755691 (Simulation time: 0 hr 22 min 11 sec) 
Heartbeat CPU 0 instructions: 390000000 cycles: 449659999 heartbeat IPC: 0.757885 cumulative IPC: 0.755767 (Simulation time: 0 hr 22 min 40 sec) 
Heartbeat CPU 0 instructions: 400000000 cycles: 462872395 heartbeat IPC: 0.756865 cumulative IPC: 0.755803 (Simulation time: 0 hr 23 min 9 sec) 
Heartbeat CPU 0 instructions: 410000001 cycles: 476127910 heartbeat IPC: 0.754403 cumulative IPC: 0.755758 (Simulation time: 0 hr 23 min 38 sec) 
Heartbeat CPU 0 instructions: 420000000 cycles: 489321605 heartbeat IPC: 0.757938 cumulative IPC: 0.755826 (Simulation time: 0 hr 24 min 7 sec) 
Heartbeat CPU 0 instructions: 430000001 cycles: 502525940 heartbeat IPC: 0.757327 cumulative IPC: 0.755871 (Simulation time: 0 hr 24 min 36 sec) 
Heartbeat CPU 0 instructions: 440000000 cycles: 515702399 heartbeat IPC: 0.758929 cumulative IPC: 0.755961 (Simulation time: 0 hr 25 min 5 sec) 
Heartbeat CPU 0 instructions: 450000002 cycles: 529030236 heartbeat IPC: 0.750309 cumulative IPC: 0.755798 (Simulation time: 0 hr 25 min 34 sec) 
Heartbeat CPU 0 instructions: 460000000 cycles: 542249715 heartbeat IPC: 0.756459 cumulative IPC: 0.755817 (Simulation time: 0 hr 26 min 3 sec) 
Heartbeat CPU 0 instructions: 470000003 cycles: 555459960 heartbeat IPC: 0.756988 cumulative IPC: 0.755848 (Simulation time: 0 hr 26 min 31 sec) 
Heartbeat CPU 0 instructions: 480000000 cycles: 568715311 heartbeat IPC: 0.754412 cumulative IPC: 0.75581 (Simulation time: 0 hr 27 min 0 sec) 
Heartbeat CPU 0 instructions: 490000000 cycles: 581943161 heartbeat IPC: 0.755981 cumulative IPC: 0.755815 (Simulation time: 0 hr 27 min 29 sec) 
Heartbeat CPU 0 instructions: 500000000 cycles: 595146970 heartbeat IPC: 0.757357 cumulative IPC: 0.755853 (Simulation time: 0 hr 27 min 58 sec) 
Heartbeat CPU 0 instructions: 510000001 cycles: 608348650 heartbeat IPC: 0.757479 cumulative IPC: 0.755893 (Simulation time: 0 hr 28 min 27 sec) 
Heartbeat CPU 0 instructions: 520000000 cycles: 621634724 heartbeat IPC: 0.752668 cumulative IPC: 0.755816 (Simulation time: 0 hr 28 min 56 sec) 
Heartbeat CPU 0 instructions: 530000000 cycles: 634889954 heartbeat IPC: 0.754419 cumulative IPC: 0.755783 (Simulation time: 0 hr 29 min 25 sec) 
Heartbeat CPU 0 instructions: 540000000 cycles: 648136584 heartbeat IPC: 0.754909 cumulative IPC: 0.755763 (Simulation time: 0 hr 29 min 54 sec) 
Heartbeat CPU 0 instructions: 550000002 cycles: 661405990 heartbeat IPC: 0.753613 cumulative IPC: 0.755715 (Simulation time: 0 hr 30 min 23 sec) 
Heartbeat CPU 0 instructions: 560000000 cycles: 674622158 heartbeat IPC: 0.756649 cumulative IPC: 0.755736 (Simulation time: 0 hr 30 min 52 sec) 
Heartbeat CPU 0 instructions: 570000001 cycles: 687843103 heartbeat IPC: 0.756376 cumulative IPC: 0.755749 (Simulation time: 0 hr 31 min 21 sec) 
Heartbeat CPU 0 instructions: 580000000 cycles: 701077681 heartbeat IPC: 0.755596 cumulative IPC: 0.755746 (Simulation time: 0 hr 31 min 50 sec) 
Heartbeat CPU 0 instructions: 590000003 cycles: 714317093 heartbeat IPC: 0.755321 cumulative IPC: 0.755737 (Simulation time: 0 hr 32 min 19 sec) 
Heartbeat CPU 0 instructions: 600000000 cycles: 727596521 heartbeat IPC: 0.753044 cumulative IPC: 0.755683 (Simulation time: 0 hr 32 min 48 sec) 
Finished CPU 0 instructions: 500000000 cycles: 661652859 cumulative IPC: 0.755683 (Simulation time: 0 hr 32 min 48 sec) 

CPU 0 Branch Prediction Accuracy: 99.968% MPKI: 0.002246
Number of Branches: 3513331 Number of Mispredictions: 1123
Number of LOAD Instructions: 287251172
Number of LOAD Instructions (ROI): 287251172
Number of STORE Instructions: 51060820
Number of STORE Instructions (ROI): 51060820
Total Destination Memory Operands: 51166221
Total Destination Memory Operands (ROI): 51166221
Total Source Memory Operands: 287251172
Total Source Memory Operands (ROI): 287251172
Number of DEPENDED LOADS: 9553424
Number of DEPENDED LOADS (ROI): 9553424
Number of SQ_ADDED: 51166208
Number of SQ_ADDED (ROI): 51166208
Number of LQ_ADDED: 290427588
Number of LQ_ADDED (ROI): 290427588
Number of Instructions read from trace: 600000257

ChampSim completed all CPUs

Region of Interest Statistics

CPU 0 cumulative IPC: 0.755683 instructions: 500000000 cycles: 661652859
ITLB TOTAL     ACCESS:  108981019  HIT:  108981019  MISS:          0
ITLB LOAD      ACCESS:  108981019  HIT:  108981019  MISS:          0
ITLB RFO       ACCESS:          0  HIT:          0  MISS:          0
ITLB PREFETCH  ACCESS:          0  HIT:          0  MISS:          0
ITLB WRITEBACK ACCESS:          0  HIT:          0  MISS:          0
ITLB PREFETCH  REQUESTED:          0  ISSUED:          0  USEFUL:          0  USELESS:          0
ITLB TOTAL MSHR MERGED:          0
ITLB LOAD MSHR MERGED:          0
ITLB RFO MSHR MERGED:          0
ITLB PREFETCH MSHR MERGED:          0
ITLB WRITEBACK MSHR MERGED:          0
ITLB TOTAL ACCESSES:  108981019 HITS:  108981019 MISSES:          0
ITLB LOAD ACCESSES:  108981019 HITS:  108981019 MISSES:          0
ITLB RFO ACCESSES:          0 HITS:          0 MISSES:          0
ITLB PREFETCH ACCESSES:          0 HITS:          0 MISSES:          0
ITLB WRITEBACK ACCESSES:          0 HITS:          0 MISSES:          0
ITLB RQ ACCESS:  500000001
ITLB RQ TO_CACHE:  108981019
ITLB RQ MERGED:  391018982
ITLB RQ FORWARD:          0
ITLB WQ ACCESS:          0
ITLB WQ TO_CACHE:          0
ITLB WQ MERGED:          0
ITLB WQ FORWARD:          0
DTLB TOTAL     ACCESS:  171133284  HIT:  161116997  MISS:   10016287
DTLB LOAD      ACCESS:  143472324  HIT:  135596287  MISS:    7876037
DTLB RFO       ACCESS:   27660960  HIT:   25520710  MISS:    2140250
DTLB PREFETCH  ACCESS:          0  HIT:          0  MISS:          0
DTLB WRITEBACK ACCESS:          0  HIT:          0  MISS:          0
DTLB PREFETCH  REQUESTED:          0  ISSUED:          0  USEFUL:          0  USELESS:          0
DTLB TOTAL MSHR MERGED:     360393
DTLB LOAD MSHR MERGED:     360393
DTLB RFO MSHR MERGED:          0
DTLB PREFETCH MSHR MERGED:          0
DTLB WRITEBACK MSHR MERGED:          0
DTLB TOTAL ACCESSES:  171493677 HITS:  161116997 MISSES:   10376680
DTLB LOAD ACCESSES:  143832717 HITS:  135596287 MISSES:    8236430
DTLB RFO ACCESSES:   27660960 HITS:   25520710 MISSES:    2140250
DTLB PREFETCH ACCESSES:          0 HITS:          0 MISSES:          0
DTLB WRITEBACK ACCESSES:          0 HITS:          0 MISSES:          0
DTLB RQ ACCESS:  274074402
DTLB RQ TO_CACHE:  171493677
DTLB RQ MERGED:  102580725
DTLB RQ FORWARD:          0
DTLB WQ ACCESS:          0
DTLB WQ TO_CACHE:          0
DTLB WQ MERGED:          0
DTLB WQ FORWARD:          0
L1D TOTAL     ACCESS:  350988741  HIT:  283785274  MISS:   67203467
L1D LOAD      ACCESS:  175623161  HIT:  142581830  MISS:   33041331
L1D RFO       ACCESS:   42020854  HIT:   39215587  MISS:    2805267
L1D PREFETCH  ACCESS:  133344726  HIT:  101987857  MISS:   31356869
L1D WRITEBACK ACCESS:          0  HIT:          0  MISS:          0
L1D PREFETCH  REQUESTED:  176228115  ISSUED:  175290028  USEFUL:    2180960  USELESS:   29175911
L1D TOTAL MSHR MERGED:    1483476
L1D LOAD MSHR MERGED:     704877
L1D RFO MSHR MERGED:     348318
L1D PREFETCH MSHR MERGED:     430281
L1D WRITEBACK MSHR MERGED:          0
L1D TOTAL ACCESSES:  352583136 HITS:  283896193 MISSES:   68686943
L1D LOAD ACCESSES:  176233359 HITS:  142587074 MISSES:   33646285
L1D RFO ACCESSES:   42368515 HITS:   39215587 MISSES:    3152928
L1D PREFETCH ACCESSES:  133981262 HITS:  102093532 MISSES:   31887730
L1D WRITEBACK ACCESSES:          0 HITS:          0 MISSES:          0
L1D RQ ACCESS:  231435929
L1D RQ TO_CACHE:  176228115
L1D RQ MERGED:   55202570
L1D RQ FORWARD:          0
L1D WQ ACCESS:   42638475
L1D WQ TO_CACHE:   42368515
L1D WQ MERGED:     269960
L1D WQ FORWARD:     110919
L1I TOTAL     ACCESS:  109366651  HIT:   77850947  MISS:   31515704
L1I LOAD      ACCESS:  109366651  HIT:   77850947  MISS:   31515704
L1I RFO       ACCESS:          0  HIT:          0  MISS:          0
L1I PREFETCH  ACCESS:          0  HIT:          0  MISS:          0
L1I WRITEBACK ACCESS:          0  HIT:          0  MISS:          0
L1I PREFETCH  REQUESTED:          0  ISSUED:          0  USEFUL:          0  USELESS:          0
L1I TOTAL MSHR MERGED:   30757023
L1I LOAD MSHR MERGED:   30757023
L1I RFO MSHR MERGED:          0
L1I PREFETCH MSHR MERGED:          0
L1I WRITEBACK MSHR MERGED:          0
L1I TOTAL ACCESSES:  140123676 HITS:   77850947 MISSES:   62272729
L1I LOAD ACCESSES:  140123676 HITS:   77850947 MISSES:   62272729
L1I RFO ACCESSES:          0 HITS:          0 MISSES:          0
L1I PREFETCH ACCESSES:          0 HITS:          0 MISSES:          0
L1I WRITEBACK ACCESSES:          0 HITS:          0 MISSES:          0
L1I RQ ACCESS:  500000003
L1I RQ TO_CACHE:  140123676
L1I RQ MERGED:  359876327
L1I RQ FORWARD:          0
L1I WQ ACCESS:          0
L1I WQ TO_CACHE:          0
L1I WQ MERGED:          0
L1I WQ FORWARD:          0
L2C TOTAL     ACCESS:  113714687  HIT:  110715854  MISS:    2998833
L2C LOAD      ACCESS:   64455239  HIT:   63897750  MISS:     557489
L2C RFO       ACCESS:    2802744  HIT:    2194366  MISS:     608378
L2C PREFETCH  ACCESS:   43295772  HIT:   41469087  MISS:    1826685
L2C WRITEBACK ACCESS:    3160932  HIT:    3154651  MISS:       6281
L2C PREFETCH  REQUESTED:   15134834  ISSUED:   14620683  USEFUL:    1701387  USELESS:     125303
L2C TOTAL MSHR MERGED:      12391
L2C LOAD MSHR MERGED:          0
L2C RFO MSHR MERGED:          0
L2C PREFETCH MSHR MERGED:      12391
L2C WRITEBACK MSHR MERGED:          0
L2C TOTAL ACCESSES:  113905011 HITS:  110721702 MISSES:    3183309
L2C LOAD ACCESSES:   64457113 HITS:   63899623 MISSES:     557490
L2C RFO ACCESSES:    2804610 HITS:    2196232 MISSES:     608378
L2C PREFETCH ACCESSES:   43482356 HITS:   41471196 MISSES:    2011160
L2C WRITEBACK ACCESSES:    3160932 HITS:    3154651 MISSES:       6281
L2C RQ ACCESS:   67261724
L2C RQ TO_CACHE:   67257985
L2C RQ MERGED:          0
L2C RQ FORWARD:          0
L2C WQ ACCESS:    3160932
L2C WQ TO_CACHE:    3160932
L2C WQ MERGED:          0
L2C WQ FORWARD:       5848
LLC TOTAL     ACCESS:    3695630  HIT:    1926607  MISS:    1769023
LLC LOAD      ACCESS:     557457  HIT:     472828  MISS:      84629
LLC RFO       ACCESS:     526475  HIT:     238053  MISS:     288422
LLC PREFETCH  ACCESS:    1994295  HIT:     714079  MISS:    1280216
LLC WRITEBACK ACCESS:     617403  HIT:     501647  MISS:     115756
LLC PREFETCH  REQUESTED:          0  ISSUED:          0  USEFUL:      44122  USELESS:    1224222
LLC TOTAL MSHR MERGED:       3817
LLC LOAD MSHR MERGED:          0
LLC RFO MSHR MERGED:          0
LLC PREFETCH MSHR MERGED:       3817
LLC WRITEBACK MSHR MERGED:          0
LLC TOTAL ACCESSES:    3781465 HITS:    2008625 MISSES:    1772840
LLC LOAD ACCESSES:     557489 HITS:     472860 MISSES:      84629
LLC RFO ACCESSES:     608378 HITS:     319956 MISSES:     288422
LLC PREFETCH ACCESSES:    1998195 HITS:     714162 MISSES:    1284033
LLC WRITEBACK ACCESSES:     617403 HITS:     501647 MISSES:     115756
LLC 0 RQ ACCESS:    1165868
LLC 0 RQ TO_CACHE:    1083933
LLC 0 RQ MERGED:          0
LLC 0 RQ FORWARD:          0
LLC WQ ACCESS:     617403
LLC WQ TO_CACHE:     617403
LLC WQ MERGED:          0
LLC WQ FORWARD:      82018
Major fault: 0 Minor fault: 12800
CPU 0 L1D next line prefetcher final stats
CPU 0 L2C PC-based stride prefetcher final stats
All Misses: 2146732
All Hits: 2399791
SD Algo Stats - Switches: 3 SRR-Repls: 63385 BRR-Repls: 41910

DRAM Statistics
 CHANNEL 0
 RQ ROW_BUFFER_HIT:     800857  ROW_BUFFER_MISS:     852081
 DBUS_CONGESTED:     875144
 WQ ROW_BUFFER_HIT:      46032  ROW_BUFFER_MISS:     265724  FULL:          0

 AVG_CONGESTED_CYCLE: 13
LOADS RETIRED: 239375970
INSTR RETIRED: 500000000
