
*** ChampSim Multicore Out-of-Order Simulator ***

Warmup Instructions: 100000000
Simulation Instructions: 500000000
Number of CPUs: 1
LLC sets: 2048
LLC ways: 16
Clean RRIP Policies: 2203222022032220 Dirty RRIP Policies: 1203022012030220 PSEL Width: 10 Track Set: 4294967295 PSEL Mask: 1 Demote Mask: 2102414021024140DS Algo: 0Window size: 0
Off-chip DRAM Size: 4096 MB Channels: 1 Width: 64-bit Data Rate: 1600 MT/s

CPU 0 runs /mnt/beegfs/iconst01/spec2017/Roms.trace.gz
NOT SORTED
TRACE STRING: /mnt/beegfs/iconst01/spec2017/Roms.trace.gz
SORTED
TRACE STRING: /mnt/beegfs/iconst01/spec2017/Roms.trace.gz
INITIAL
TRACE STRING: /mnt/beegfs/iconst01/spec2017/Roms.trace.gz

champsim_seed used: 417

CPU 0 L1D next line prefetcher
CPU 0 L2C IP-based stride prefetcher
Initialize DRRIP state
Assign rand_sets[0]: 454  LLC: 2048
rand_sets[0]: 454
Assign rand_sets[1]: 1662  LLC: 2048
rand_sets[1]: 1662
Assign rand_sets[2]: 1921  LLC: 2048
rand_sets[2]: 1921
Assign rand_sets[3]: 1131  LLC: 2048
rand_sets[3]: 1131
Assign rand_sets[4]: 331  LLC: 2048
rand_sets[4]: 331
Assign rand_sets[5]: 1531  LLC: 2048
rand_sets[5]: 1531
Assign rand_sets[6]: 482  LLC: 2048
rand_sets[6]: 482
Assign rand_sets[7]: 1275  LLC: 2048
rand_sets[7]: 1275
Assign rand_sets[8]: 1876  LLC: 2048
rand_sets[8]: 1876
Assign rand_sets[9]: 2038  LLC: 2048
rand_sets[9]: 2038
Assign rand_sets[10]: 701  LLC: 2048
rand_sets[10]: 701
Assign rand_sets[11]: 479  LLC: 2048
rand_sets[11]: 479
Assign rand_sets[12]: 892  LLC: 2048
rand_sets[12]: 892
Assign rand_sets[13]: 1820  LLC: 2048
rand_sets[13]: 1820
Assign rand_sets[14]: 1505  LLC: 2048
rand_sets[14]: 1505
Assign rand_sets[15]: 1159  LLC: 2048
rand_sets[15]: 1159
Assign rand_sets[16]: 513  LLC: 2048
rand_sets[16]: 513
Assign rand_sets[17]: 703  LLC: 2048
rand_sets[17]: 703
Assign rand_sets[18]: 561  LLC: 2048
rand_sets[18]: 561
Assign rand_sets[19]: 990  LLC: 2048
rand_sets[19]: 990
Assign rand_sets[20]: 342  LLC: 2048
rand_sets[20]: 342
Assign rand_sets[21]: 882  LLC: 2048
rand_sets[21]: 882
Assign rand_sets[22]: 15  LLC: 2048
rand_sets[22]: 15
Assign rand_sets[23]: 71  LLC: 2048
rand_sets[23]: 71
Assign rand_sets[24]: 1127  LLC: 2048
rand_sets[24]: 1127
Assign rand_sets[25]: 1382  LLC: 2048
rand_sets[25]: 1382
Assign rand_sets[26]: 647  LLC: 2048
rand_sets[26]: 647
Assign rand_sets[27]: 857  LLC: 2048
rand_sets[27]: 857
Assign rand_sets[28]: 1450  LLC: 2048
rand_sets[28]: 1450
Assign rand_sets[29]: 1160  LLC: 2048
rand_sets[29]: 1160
Assign rand_sets[30]: 1852  LLC: 2048
rand_sets[30]: 1852
Assign rand_sets[31]: 1881  LLC: 2048
rand_sets[31]: 1881
Assign rand_sets[32]: 1770  LLC: 2048
rand_sets[32]: 1770
Assign rand_sets[33]: 1622  LLC: 2048
rand_sets[33]: 1622
Assign rand_sets[34]: 275  LLC: 2048
rand_sets[34]: 275
Assign rand_sets[35]: 635  LLC: 2048
rand_sets[35]: 635
Assign rand_sets[36]: 466  LLC: 2048
rand_sets[36]: 466
Assign rand_sets[37]: 1413  LLC: 2048
rand_sets[37]: 1413
Assign rand_sets[38]: 417  LLC: 2048
rand_sets[38]: 417
Assign rand_sets[39]: 472  LLC: 2048
rand_sets[39]: 472
Assign rand_sets[40]: 1340  LLC: 2048
rand_sets[40]: 1340
Assign rand_sets[41]: 852  LLC: 2048
rand_sets[41]: 852
Assign rand_sets[42]: 1365  LLC: 2048
rand_sets[42]: 1365
Assign rand_sets[43]: 47  LLC: 2048
rand_sets[43]: 47
Assign rand_sets[44]: 823  LLC: 2048
rand_sets[44]: 823
Assign rand_sets[45]: 686  LLC: 2048
rand_sets[45]: 686
Assign rand_sets[46]: 1637  LLC: 2048
rand_sets[46]: 1637
Assign rand_sets[47]: 1115  LLC: 2048
rand_sets[47]: 1115
Assign rand_sets[48]: 986  LLC: 2048
rand_sets[48]: 986
Assign rand_sets[49]: 258  LLC: 2048
rand_sets[49]: 258
Assign rand_sets[50]: 633  LLC: 2048
rand_sets[50]: 633
Assign rand_sets[51]: 920  LLC: 2048
rand_sets[51]: 920
Assign rand_sets[52]: 204  LLC: 2048
rand_sets[52]: 204
Assign rand_sets[53]: 227  LLC: 2048
rand_sets[53]: 227
Assign rand_sets[54]: 1818  LLC: 2048
rand_sets[54]: 1818
Assign rand_sets[55]: 886  LLC: 2048
rand_sets[55]: 886
Assign rand_sets[56]: 1422  LLC: 2048
rand_sets[56]: 1422
Assign rand_sets[57]: 607  LLC: 2048
rand_sets[57]: 607
Assign rand_sets[58]: 217  LLC: 2048
rand_sets[58]: 217
Assign rand_sets[59]: 1945  LLC: 2048
rand_sets[59]: 1945
Assign rand_sets[60]: 143  LLC: 2048
rand_sets[60]: 143
Assign rand_sets[61]: 1311  LLC: 2048
rand_sets[61]: 1311
Assign rand_sets[62]: 319  LLC: 2048
rand_sets[62]: 319
Assign rand_sets[63]: 1846  LLC: 2048
rand_sets[63]: 1846
 CLEAN-RRIP-POLICY-1: 2-2-0-3-2-2-2-0- CLEAN-RRIP-POLICY-2: 2-2-0-3-2-2-2-0-
 DIRTY-RRIP-POLICY-1: 1-2-0-3-0-2-2-0- DIRTY-RRIP-POLICY-2: 1-2-0-3-0-2-2-0-
 PSEL width: 10
Heartbeat CPU 0 instructions: 10000000 cycles: 4688066 heartbeat IPC: 2.13308 cumulative IPC: 2.13308 (Simulation time: 0 hr 0 min 19 sec) 
Heartbeat CPU 0 instructions: 20000000 cycles: 9325333 heartbeat IPC: 2.15644 cumulative IPC: 2.1447 (Simulation time: 0 hr 0 min 36 sec) 
Heartbeat CPU 0 instructions: 30000003 cycles: 14019720 heartbeat IPC: 2.1302 cumulative IPC: 2.13984 (Simulation time: 0 hr 0 min 54 sec) 
Heartbeat CPU 0 instructions: 40000000 cycles: 18670145 heartbeat IPC: 2.15034 cumulative IPC: 2.14246 (Simulation time: 0 hr 1 min 11 sec) 
Heartbeat CPU 0 instructions: 50000003 cycles: 23323547 heartbeat IPC: 2.14897 cumulative IPC: 2.14376 (Simulation time: 0 hr 1 min 28 sec) 
Heartbeat CPU 0 instructions: 60000000 cycles: 27976203 heartbeat IPC: 2.14931 cumulative IPC: 2.14468 (Simulation time: 0 hr 1 min 45 sec) 
Heartbeat CPU 0 instructions: 70000002 cycles: 32367359 heartbeat IPC: 2.27731 cumulative IPC: 2.16267 (Simulation time: 0 hr 1 min 59 sec) 
Heartbeat CPU 0 instructions: 80000000 cycles: 36304138 heartbeat IPC: 2.54015 cumulative IPC: 2.20361 (Simulation time: 0 hr 2 min 11 sec) 
Heartbeat CPU 0 instructions: 90000000 cycles: 40249415 heartbeat IPC: 2.53468 cumulative IPC: 2.23606 (Simulation time: 0 hr 2 min 23 sec) 
Heartbeat CPU 0 instructions: 100000000 cycles: 44211729 heartbeat IPC: 2.52378 cumulative IPC: 2.26184 (Simulation time: 0 hr 2 min 35 sec) 

Warmup complete CPU 0 instructions: 100000002 cycles: 44211730 (Simulation time: 0 hr 2 min 35 sec) 

Heartbeat CPU 0 instructions: 110000000 cycles: 53156579 heartbeat IPC: 1.11796 cumulative IPC: 1.11796 (Simulation time: 0 hr 2 min 54 sec) 
Heartbeat CPU 0 instructions: 120000000 cycles: 62048652 heartbeat IPC: 1.1246 cumulative IPC: 1.12127 (Simulation time: 0 hr 3 min 13 sec) 
Heartbeat CPU 0 instructions: 130000002 cycles: 70989756 heartbeat IPC: 1.11843 cumulative IPC: 1.12032 (Simulation time: 0 hr 3 min 32 sec) 
Heartbeat CPU 0 instructions: 140000000 cycles: 79808042 heartbeat IPC: 1.13401 cumulative IPC: 1.12371 (Simulation time: 0 hr 3 min 51 sec) 
Heartbeat CPU 0 instructions: 150000003 cycles: 88783054 heartbeat IPC: 1.11421 cumulative IPC: 1.1218 (Simulation time: 0 hr 4 min 10 sec) 
Heartbeat CPU 0 instructions: 160000000 cycles: 99321520 heartbeat IPC: 0.948904 cumulative IPC: 1.08874 (Simulation time: 0 hr 4 min 31 sec) 
Heartbeat CPU 0 instructions: 170000000 cycles: 111799952 heartbeat IPC: 0.801383 cumulative IPC: 1.03568 (Simulation time: 0 hr 4 min 55 sec) 
Heartbeat CPU 0 instructions: 180000000 cycles: 124270665 heartbeat IPC: 0.801879 cumulative IPC: 0.999264 (Simulation time: 0 hr 5 min 18 sec) 
Heartbeat CPU 0 instructions: 190000000 cycles: 136994722 heartbeat IPC: 0.785913 cumulative IPC: 0.970005 (Simulation time: 0 hr 5 min 42 sec) 
Heartbeat CPU 0 instructions: 200000000 cycles: 150841406 heartbeat IPC: 0.722195 cumulative IPC: 0.937825 (Simulation time: 0 hr 6 min 5 sec) 
Heartbeat CPU 0 instructions: 210000001 cycles: 164742318 heartbeat IPC: 0.719377 cumulative IPC: 0.912631 (Simulation time: 0 hr 6 min 30 sec) 
Heartbeat CPU 0 instructions: 220000000 cycles: 178468569 heartbeat IPC: 0.728531 cumulative IPC: 0.893809 (Simulation time: 0 hr 6 min 54 sec) 
Heartbeat CPU 0 instructions: 230000000 cycles: 192035560 heartbeat IPC: 0.737083 cumulative IPC: 0.879425 (Simulation time: 0 hr 7 min 20 sec) 
Heartbeat CPU 0 instructions: 240000000 cycles: 205669032 heartbeat IPC: 0.733489 cumulative IPC: 0.867102 (Simulation time: 0 hr 7 min 45 sec) 
Heartbeat CPU 0 instructions: 250000003 cycles: 216786468 heartbeat IPC: 0.899488 cumulative IPC: 0.869189 (Simulation time: 0 hr 8 min 7 sec) 
Heartbeat CPU 0 instructions: 260000000 cycles: 224666735 heartbeat IPC: 1.26899 cumulative IPC: 0.886648 (Simulation time: 0 hr 8 min 27 sec) 
Heartbeat CPU 0 instructions: 270000003 cycles: 233125307 heartbeat IPC: 1.18223 cumulative IPC: 0.899882 (Simulation time: 0 hr 8 min 47 sec) 
Heartbeat CPU 0 instructions: 280000000 cycles: 242208167 heartbeat IPC: 1.10097 cumulative IPC: 0.909107 (Simulation time: 0 hr 9 min 8 sec) 
Heartbeat CPU 0 instructions: 290000000 cycles: 251171711 heartbeat IPC: 1.11563 cumulative IPC: 0.918052 (Simulation time: 0 hr 9 min 28 sec) 
Heartbeat CPU 0 instructions: 300000000 cycles: 260062953 heartbeat IPC: 1.1247 cumulative IPC: 0.926564 (Simulation time: 0 hr 9 min 49 sec) 
Heartbeat CPU 0 instructions: 310000000 cycles: 268982829 heartbeat IPC: 1.12109 cumulative IPC: 0.934284 (Simulation time: 0 hr 10 min 11 sec) 
Heartbeat CPU 0 instructions: 320000000 cycles: 277842156 heartbeat IPC: 1.12875 cumulative IPC: 0.941658 (Simulation time: 0 hr 10 min 32 sec) 
Heartbeat CPU 0 instructions: 330000002 cycles: 286639647 heartbeat IPC: 1.13669 cumulative IPC: 0.948736 (Simulation time: 0 hr 10 min 54 sec) 
Heartbeat CPU 0 instructions: 340000000 cycles: 297139800 heartbeat IPC: 0.952367 cumulative IPC: 0.948886 (Simulation time: 0 hr 11 min 17 sec) 
Heartbeat CPU 0 instructions: 350000001 cycles: 306243714 heartbeat IPC: 1.09843 cumulative IPC: 0.954082 (Simulation time: 0 hr 11 min 38 sec) 
Heartbeat CPU 0 instructions: 360000000 cycles: 315329123 heartbeat IPC: 1.10067 cumulative IPC: 0.958994 (Simulation time: 0 hr 11 min 59 sec) 
Heartbeat CPU 0 instructions: 370000001 cycles: 324376703 heartbeat IPC: 1.10527 cumulative IPC: 0.963718 (Simulation time: 0 hr 12 min 21 sec) 
Heartbeat CPU 0 instructions: 380000000 cycles: 333339019 heartbeat IPC: 1.11578 cumulative IPC: 0.968432 (Simulation time: 0 hr 12 min 43 sec) 
Heartbeat CPU 0 instructions: 390000001 cycles: 342086360 heartbeat IPC: 1.1432 cumulative IPC: 0.973564 (Simulation time: 0 hr 13 min 5 sec) 
Heartbeat CPU 0 instructions: 400000000 cycles: 350919405 heartbeat IPC: 1.13211 cumulative IPC: 0.97813 (Simulation time: 0 hr 13 min 27 sec) 
Heartbeat CPU 0 instructions: 410000003 cycles: 359632634 heartbeat IPC: 1.14768 cumulative IPC: 0.982814 (Simulation time: 0 hr 13 min 49 sec) 
Heartbeat CPU 0 instructions: 420000000 cycles: 368423031 heartbeat IPC: 1.1376 cumulative IPC: 0.987011 (Simulation time: 0 hr 14 min 10 sec) 
Heartbeat CPU 0 instructions: 430000001 cycles: 377092092 heartbeat IPC: 1.15353 cumulative IPC: 0.991347 (Simulation time: 0 hr 14 min 36 sec) 
Heartbeat CPU 0 instructions: 440000000 cycles: 385701733 heartbeat IPC: 1.16149 cumulative IPC: 0.995637 (Simulation time: 0 hr 14 min 58 sec) 
Heartbeat CPU 0 instructions: 450000001 cycles: 395769672 heartbeat IPC: 0.993252 cumulative IPC: 0.995568 (Simulation time: 0 hr 15 min 24 sec) 
Heartbeat CPU 0 instructions: 460000000 cycles: 404377938 heartbeat IPC: 1.16167 cumulative IPC: 0.999539 (Simulation time: 0 hr 15 min 45 sec) 
Heartbeat CPU 0 instructions: 470000003 cycles: 412819467 heartbeat IPC: 1.18462 cumulative IPC: 1.00378 (Simulation time: 0 hr 16 min 6 sec) 
Heartbeat CPU 0 instructions: 480000000 cycles: 421258063 heartbeat IPC: 1.18503 cumulative IPC: 1.00783 (Simulation time: 0 hr 16 min 37 sec) 
Heartbeat CPU 0 instructions: 490000000 cycles: 429663002 heartbeat IPC: 1.18978 cumulative IPC: 1.0118 (Simulation time: 0 hr 16 min 57 sec) 
Heartbeat CPU 0 instructions: 500000000 cycles: 438053651 heartbeat IPC: 1.1918 cumulative IPC: 1.01564 (Simulation time: 0 hr 17 min 17 sec) 
Heartbeat CPU 0 instructions: 510000001 cycles: 446410045 heartbeat IPC: 1.19669 cumulative IPC: 1.0194 (Simulation time: 0 hr 17 min 37 sec) 
Heartbeat CPU 0 instructions: 520000000 cycles: 454771380 heartbeat IPC: 1.19598 cumulative IPC: 1.02299 (Simulation time: 0 hr 17 min 58 sec) 
Heartbeat CPU 0 instructions: 530000001 cycles: 463144166 heartbeat IPC: 1.19435 cumulative IPC: 1.02642 (Simulation time: 0 hr 18 min 18 sec) 
Heartbeat CPU 0 instructions: 540000000 cycles: 471683138 heartbeat IPC: 1.1711 cumulative IPC: 1.02931 (Simulation time: 0 hr 18 min 38 sec) 
Heartbeat CPU 0 instructions: 550000000 cycles: 480293996 heartbeat IPC: 1.16132 cumulative IPC: 1.03192 (Simulation time: 0 hr 18 min 58 sec) 
Heartbeat CPU 0 instructions: 560000000 cycles: 488642194 heartbeat IPC: 1.19786 cumulative IPC: 1.03503 (Simulation time: 0 hr 19 min 18 sec) 
Heartbeat CPU 0 instructions: 570000001 cycles: 500667109 heartbeat IPC: 0.831607 cumulative IPC: 1.02967 (Simulation time: 0 hr 19 min 41 sec) 
Heartbeat CPU 0 instructions: 580000000 cycles: 512579322 heartbeat IPC: 0.839474 cumulative IPC: 1.02484 (Simulation time: 0 hr 20 min 3 sec) 
Heartbeat CPU 0 instructions: 590000001 cycles: 524780793 heartbeat IPC: 0.819573 cumulative IPC: 1.01962 (Simulation time: 0 hr 20 min 26 sec) 
Heartbeat CPU 0 instructions: 600000000 cycles: 536706861 heartbeat IPC: 0.838499 cumulative IPC: 1.01524 (Simulation time: 0 hr 20 min 48 sec) 
Finished CPU 0 instructions: 500000001 cycles: 492495144 cumulative IPC: 1.01524 (Simulation time: 0 hr 20 min 48 sec) 

CPU 0 Branch Prediction Accuracy: 99.7422% MPKI: 0.173296
Number of Branches: 33608403 Number of Mispredictions: 86648
Number of LOAD Instructions: 180215231
Number of LOAD Instructions (ROI): 180215231
Number of STORE Instructions: 36067263
Number of STORE Instructions (ROI): 36067263
Total Destination Memory Operands: 38428915
Total Destination Memory Operands (ROI): 38428915
Total Source Memory Operands: 180215231
Total Source Memory Operands (ROI): 180215231
Number of DEPENDED LOADS: 3042062
Number of DEPENDED LOADS (ROI): 3042062
Number of SQ_ADDED: 38428892
Number of SQ_ADDED (ROI): 38428892
Number of LQ_ADDED: 207933084
Number of LQ_ADDED (ROI): 207933084
Number of Instructions read from trace: 600000257

ChampSim completed all CPUs

Region of Interest Statistics

CPU 0 cumulative IPC: 1.01524 instructions: 500000001 cycles: 492495144
ITLB TOTAL     ACCESS:   91988568  HIT:   91988549  MISS:         19
ITLB LOAD      ACCESS:   91988568  HIT:   91988549  MISS:         19
ITLB RFO       ACCESS:          0  HIT:          0  MISS:          0
ITLB PREFETCH  ACCESS:          0  HIT:          0  MISS:          0
ITLB WRITEBACK ACCESS:          0  HIT:          0  MISS:          0
ITLB PREFETCH  REQUESTED:          0  ISSUED:          0  USEFUL:          0  USELESS:          0
ITLB TOTAL MSHR MERGED:         40
ITLB LOAD MSHR MERGED:         40
ITLB RFO MSHR MERGED:          0
ITLB PREFETCH MSHR MERGED:          0
ITLB WRITEBACK MSHR MERGED:          0
ITLB TOTAL ACCESSES:   91988608 HITS:   91988549 MISSES:         59
ITLB LOAD ACCESSES:   91988608 HITS:   91988549 MISSES:         59
ITLB RFO ACCESSES:          0 HITS:          0 MISSES:          0
ITLB PREFETCH ACCESSES:          0 HITS:          0 MISSES:          0
ITLB WRITEBACK ACCESSES:          0 HITS:          0 MISSES:          0
ITLB RQ ACCESS:  500000003
ITLB RQ TO_CACHE:   91988608
ITLB RQ MERGED:  408011395
ITLB RQ FORWARD:          0
ITLB WQ ACCESS:          0
ITLB WQ TO_CACHE:          0
ITLB WQ MERGED:          0
ITLB WQ FORWARD:          0
DTLB TOTAL     ACCESS:  141990192  HIT:  141623730  MISS:     366462
DTLB LOAD      ACCESS:  119367583  HIT:  119053997  MISS:     313586
DTLB RFO       ACCESS:   22622609  HIT:   22569733  MISS:      52876
DTLB PREFETCH  ACCESS:          0  HIT:          0  MISS:          0
DTLB WRITEBACK ACCESS:          0  HIT:          0  MISS:          0
DTLB PREFETCH  REQUESTED:          0  ISSUED:          0  USEFUL:          0  USELESS:          0
DTLB TOTAL MSHR MERGED:     287835
DTLB LOAD MSHR MERGED:     239191
DTLB RFO MSHR MERGED:      48644
DTLB PREFETCH MSHR MERGED:          0
DTLB WRITEBACK MSHR MERGED:          0
DTLB TOTAL ACCESSES:  142278027 HITS:  141623730 MISSES:     654297
DTLB LOAD ACCESSES:  119606774 HITS:  119053997 MISSES:     552777
DTLB RFO ACCESSES:   22671253 HITS:   22569733 MISSES:     101520
DTLB PREFETCH ACCESSES:          0 HITS:          0 MISSES:          0
DTLB WRITEBACK ACCESSES:          0 HITS:          0 MISSES:          0
DTLB RQ ACCESS:  184790917
DTLB RQ TO_CACHE:  142278027
DTLB RQ MERGED:   42512890
DTLB RQ FORWARD:          0
DTLB WQ ACCESS:          0
DTLB WQ TO_CACHE:          0
DTLB WQ MERGED:          0
DTLB WQ FORWARD:          0
L1D TOTAL     ACCESS:  187370611  HIT:  173926259  MISS:   13444352
L1D LOAD      ACCESS:  111696493  HIT:  108272179  MISS:    3424314
L1D RFO       ACCESS:   17706408  HIT:   14924640  MISS:    2781768
L1D PREFETCH  ACCESS:   57967710  HIT:   50729440  MISS:    7238270
L1D WRITEBACK ACCESS:          0  HIT:          0  MISS:          0
L1D PREFETCH  REQUESTED:  116489735  ISSUED:  115128983  USEFUL:    7028811  USELESS:     209460
L1D TOTAL MSHR MERGED:   34618806
L1D LOAD MSHR MERGED:    7661911
L1D RFO MSHR MERGED:   10546239
L1D PREFETCH MSHR MERGED:   16410656
L1D WRITEBACK MSHR MERGED:          0
L1D TOTAL ACCESSES:  221990029 HITS:  173926869 MISSES:   48063160
L1D LOAD ACCESSES:  116489994 HITS:  108272438 MISSES:    8217556
L1D RFO ACCESSES:   28252571 HITS:   14924640 MISSES:   13327931
L1D PREFETCH ACCESSES:   77247464 HITS:   50729791 MISSES:   26517673
L1D WRITEBACK ACCESSES:          0 HITS:          0 MISSES:          0
L1D RQ ACCESS:  156534851
L1D RQ TO_CACHE:  116489738
L1D RQ MERGED:   40044854
L1D RQ FORWARD:          0
L1D WQ ACCESS:   28256066
L1D WQ TO_CACHE:   28252571
L1D WQ MERGED:       3495
L1D WQ FORWARD:        610
L1I TOTAL     ACCESS:  115973238  HIT:  115972290  MISS:        948
L1I LOAD      ACCESS:  115973238  HIT:  115972290  MISS:        948
L1I RFO       ACCESS:          0  HIT:          0  MISS:          0
L1I PREFETCH  ACCESS:          0  HIT:          0  MISS:          0
L1I WRITEBACK ACCESS:          0  HIT:          0  MISS:          0
L1I PREFETCH  REQUESTED:          0  ISSUED:          0  USEFUL:          0  USELESS:          0
L1I TOTAL MSHR MERGED:       1575
L1I LOAD MSHR MERGED:       1575
L1I RFO MSHR MERGED:          0
L1I PREFETCH MSHR MERGED:          0
L1I WRITEBACK MSHR MERGED:          0
L1I TOTAL ACCESSES:  115974813 HITS:  115972290 MISSES:       2523
L1I LOAD ACCESSES:  115974813 HITS:  115972290 MISSES:       2523
L1I RFO ACCESSES:          0 HITS:          0 MISSES:          0
L1I PREFETCH ACCESSES:          0 HITS:          0 MISSES:          0
L1I WRITEBACK ACCESSES:          0 HITS:          0 MISSES:          0
L1I RQ ACCESS:  500000007
L1I RQ TO_CACHE:  115974813
L1I RQ MERGED:  384025194
L1I RQ FORWARD:          0
L1I WQ ACCESS:          0
L1I WQ TO_CACHE:          0
L1I WQ MERGED:          0
L1I WQ FORWARD:          0
L2C TOTAL     ACCESS:   16689649  HIT:    4845360  MISS:   11844289
L2C LOAD      ACCESS:     556561  HIT:      95129  MISS:     461432
L2C RFO       ACCESS:    2781692  HIT:     266736  MISS:    2514956
L2C PREFETCH  ACCESS:   10130780  HIT:    1265161  MISS:    8865619
L2C WRITEBACK ACCESS:    3220616  HIT:    3218334  MISS:       2282
L2C PREFETCH  REQUESTED:      25872  ISSUED:      25872  USEFUL:      92705  USELESS:    8770978
L2C TOTAL MSHR MERGED:        527
L2C LOAD MSHR MERGED:          5
L2C RFO MSHR MERGED:          0
L2C PREFETCH MSHR MERGED:        522
L2C WRITEBACK MSHR MERGED:          0
L2C TOTAL ACCESSES:   16690362 HITS:    4845413 MISSES:   11844949
L2C LOAD ACCESSES:     556593 HITS:      95161 MISSES:     461432
L2C RFO ACCESSES:    2781692 HITS:     266736 MISSES:    2514956
L2C PREFETCH ACCESSES:   10131461 HITS:    1265182 MISSES:    8866279
L2C WRITEBACK ACCESSES:    3220616 HITS:    3218334 MISSES:       2282
L2C RQ ACCESS:    3338285
L2C RQ TO_CACHE:    3338253
L2C RQ MERGED:          0
L2C RQ FORWARD:          0
L2C WQ ACCESS:    3220616
L2C WQ TO_CACHE:    3220616
L2C WQ MERGED:          0
L2C WQ FORWARD:         53
LLC TOTAL     ACCESS:   14742453  HIT:    6573292  MISS:    8169161
LLC LOAD      ACCESS:     461424  HIT:     239356  MISS:     222068
LLC RFO       ACCESS:    2514933  HIT:    1475412  MISS:    1039521
LLC PREFETCH  ACCESS:    8865692  HIT:    2664997  MISS:    6200695
LLC WRITEBACK ACCESS:    2900404  HIT:    2193527  MISS:     706877
LLC PREFETCH  REQUESTED:          0  ISSUED:          0  USEFUL:       4616  USELESS:    6202589
LLC TOTAL MSHR MERGED:          3
LLC LOAD MSHR MERGED:          0
LLC RFO MSHR MERGED:          0
LLC PREFETCH MSHR MERGED:          3
LLC WRITEBACK MSHR MERGED:          0
LLC TOTAL ACCESSES:   14742526 HITS:    6573360 MISSES:    8169166
LLC LOAD ACCESSES:     461427 HITS:     239359 MISSES:     222068
LLC RFO ACCESSES:    2514956 HITS:    1475435 MISSES:    1039521
LLC PREFETCH ACCESSES:    8865739 HITS:    2665039 MISSES:    6200700
LLC WRITEBACK ACCESSES:    2900404 HITS:    2193527 MISSES:     706877
LLC 0 RQ ACCESS:    2976383
LLC 0 RQ TO_CACHE:    2976357
LLC 0 RQ MERGED:          0
LLC 0 RQ FORWARD:          0
LLC WQ ACCESS:    2900404
LLC WQ TO_CACHE:    2900404
LLC WQ MERGED:          0
LLC WQ FORWARD:         68
Major fault: 0 Minor fault: 57518
CPU 0 L1D next line prefetcher final stats
CPU 0 L2C PC-based stride prefetcher final stats
All Misses: 8732244
All Hits: 7506383
SD Algo Stats - Switches: 0 SRR-Repls: 230107 BRR-Repls: 0

DRAM Statistics
 CHANNEL 0
 RQ ROW_BUFFER_HIT:    3828010  ROW_BUFFER_MISS:    3629940
 DBUS_CONGESTED:    3716267
 WQ ROW_BUFFER_HIT:     181182  ROW_BUFFER_MISS:    1143609  FULL:          0

 AVG_CONGESTED_CYCLE: 12
LOADS RETIRED: 157818985
INSTR RETIRED: 500000000
