
*** ChampSim Multicore Out-of-Order Simulator ***

Warmup Instructions: 100000000
Simulation Instructions: 500000000
Number of CPUs: 1
LLC sets: 2048
LLC ways: 16
Clean RRIP Policies: 1213230112132301 Dirty RRIP Policies: 2203130122031301 PSEL Width: 10 Track Set: 4294967295 PSEL Mask: 1 Demote Mask: 3011100030111000DS Algo: 0Window size: 0
Off-chip DRAM Size: 4096 MB Channels: 1 Width: 64-bit Data Rate: 1600 MT/s

CPU 0 runs /mnt/beegfs/iconst01/spec2017/Xalancbmk.trace.gz
NOT SORTED
TRACE STRING: /mnt/beegfs/iconst01/spec2017/Xalancbmk.trace.gz
SORTED
TRACE STRING: /mnt/beegfs/iconst01/spec2017/Xalancbmk.trace.gz
INITIAL
TRACE STRING: /mnt/beegfs/iconst01/spec2017/Xalancbmk.trace.gz

champsim_seed used: 913

CPU 0 L1D next line prefetcher
CPU 0 L2C IP-based stride prefetcher
Initialize DRRIP state
Assign rand_sets[0]: 454  LLC: 2048
rand_sets[0]: 454
Assign rand_sets[1]: 1662  LLC: 2048
rand_sets[1]: 1662
Assign rand_sets[2]: 1921  LLC: 2048
rand_sets[2]: 1921
Assign rand_sets[3]: 1131  LLC: 2048
rand_sets[3]: 1131
Assign rand_sets[4]: 331  LLC: 2048
rand_sets[4]: 331
Assign rand_sets[5]: 1531  LLC: 2048
rand_sets[5]: 1531
Assign rand_sets[6]: 482  LLC: 2048
rand_sets[6]: 482
Assign rand_sets[7]: 1275  LLC: 2048
rand_sets[7]: 1275
Assign rand_sets[8]: 1876  LLC: 2048
rand_sets[8]: 1876
Assign rand_sets[9]: 2038  LLC: 2048
rand_sets[9]: 2038
Assign rand_sets[10]: 701  LLC: 2048
rand_sets[10]: 701
Assign rand_sets[11]: 479  LLC: 2048
rand_sets[11]: 479
Assign rand_sets[12]: 892  LLC: 2048
rand_sets[12]: 892
Assign rand_sets[13]: 1820  LLC: 2048
rand_sets[13]: 1820
Assign rand_sets[14]: 1505  LLC: 2048
rand_sets[14]: 1505
Assign rand_sets[15]: 1159  LLC: 2048
rand_sets[15]: 1159
Assign rand_sets[16]: 513  LLC: 2048
rand_sets[16]: 513
Assign rand_sets[17]: 703  LLC: 2048
rand_sets[17]: 703
Assign rand_sets[18]: 561  LLC: 2048
rand_sets[18]: 561
Assign rand_sets[19]: 990  LLC: 2048
rand_sets[19]: 990
Assign rand_sets[20]: 342  LLC: 2048
rand_sets[20]: 342
Assign rand_sets[21]: 882  LLC: 2048
rand_sets[21]: 882
Assign rand_sets[22]: 15  LLC: 2048
rand_sets[22]: 15
Assign rand_sets[23]: 71  LLC: 2048
rand_sets[23]: 71
Assign rand_sets[24]: 1127  LLC: 2048
rand_sets[24]: 1127
Assign rand_sets[25]: 1382  LLC: 2048
rand_sets[25]: 1382
Assign rand_sets[26]: 647  LLC: 2048
rand_sets[26]: 647
Assign rand_sets[27]: 857  LLC: 2048
rand_sets[27]: 857
Assign rand_sets[28]: 1450  LLC: 2048
rand_sets[28]: 1450
Assign rand_sets[29]: 1160  LLC: 2048
rand_sets[29]: 1160
Assign rand_sets[30]: 1852  LLC: 2048
rand_sets[30]: 1852
Assign rand_sets[31]: 1881  LLC: 2048
rand_sets[31]: 1881
Assign rand_sets[32]: 1770  LLC: 2048
rand_sets[32]: 1770
Assign rand_sets[33]: 1622  LLC: 2048
rand_sets[33]: 1622
Assign rand_sets[34]: 275  LLC: 2048
rand_sets[34]: 275
Assign rand_sets[35]: 635  LLC: 2048
rand_sets[35]: 635
Assign rand_sets[36]: 466  LLC: 2048
rand_sets[36]: 466
Assign rand_sets[37]: 1413  LLC: 2048
rand_sets[37]: 1413
Assign rand_sets[38]: 417  LLC: 2048
rand_sets[38]: 417
Assign rand_sets[39]: 472  LLC: 2048
rand_sets[39]: 472
Assign rand_sets[40]: 1340  LLC: 2048
rand_sets[40]: 1340
Assign rand_sets[41]: 852  LLC: 2048
rand_sets[41]: 852
Assign rand_sets[42]: 1365  LLC: 2048
rand_sets[42]: 1365
Assign rand_sets[43]: 47  LLC: 2048
rand_sets[43]: 47
Assign rand_sets[44]: 823  LLC: 2048
rand_sets[44]: 823
Assign rand_sets[45]: 686  LLC: 2048
rand_sets[45]: 686
Assign rand_sets[46]: 1637  LLC: 2048
rand_sets[46]: 1637
Assign rand_sets[47]: 1115  LLC: 2048
rand_sets[47]: 1115
Assign rand_sets[48]: 986  LLC: 2048
rand_sets[48]: 986
Assign rand_sets[49]: 258  LLC: 2048
rand_sets[49]: 258
Assign rand_sets[50]: 633  LLC: 2048
rand_sets[50]: 633
Assign rand_sets[51]: 920  LLC: 2048
rand_sets[51]: 920
Assign rand_sets[52]: 204  LLC: 2048
rand_sets[52]: 204
Assign rand_sets[53]: 227  LLC: 2048
rand_sets[53]: 227
Assign rand_sets[54]: 1818  LLC: 2048
rand_sets[54]: 1818
Assign rand_sets[55]: 886  LLC: 2048
rand_sets[55]: 886
Assign rand_sets[56]: 1422  LLC: 2048
rand_sets[56]: 1422
Assign rand_sets[57]: 607  LLC: 2048
rand_sets[57]: 607
Assign rand_sets[58]: 217  LLC: 2048
rand_sets[58]: 217
Assign rand_sets[59]: 1945  LLC: 2048
rand_sets[59]: 1945
Assign rand_sets[60]: 143  LLC: 2048
rand_sets[60]: 143
Assign rand_sets[61]: 1311  LLC: 2048
rand_sets[61]: 1311
Assign rand_sets[62]: 319  LLC: 2048
rand_sets[62]: 319
Assign rand_sets[63]: 1846  LLC: 2048
rand_sets[63]: 1846
 CLEAN-RRIP-POLICY-1: 1-2-1-3-2-3-0-1- CLEAN-RRIP-POLICY-2: 1-2-1-3-2-3-0-1-
 DIRTY-RRIP-POLICY-1: 2-2-0-3-1-3-0-1- DIRTY-RRIP-POLICY-2: 2-2-0-3-1-3-0-1-
 PSEL width: 10
Heartbeat CPU 0 instructions: 10000003 cycles: 4586240 heartbeat IPC: 2.18044 cumulative IPC: 2.18044 (Simulation time: 0 hr 0 min 15 sec) 
Heartbeat CPU 0 instructions: 20000000 cycles: 8977076 heartbeat IPC: 2.27747 cumulative IPC: 2.2279 (Simulation time: 0 hr 0 min 29 sec) 
Heartbeat CPU 0 instructions: 30000000 cycles: 13386285 heartbeat IPC: 2.26798 cumulative IPC: 2.2411 (Simulation time: 0 hr 0 min 44 sec) 
Heartbeat CPU 0 instructions: 40000000 cycles: 18011582 heartbeat IPC: 2.16202 cumulative IPC: 2.22079 (Simulation time: 0 hr 1 min 0 sec) 
Heartbeat CPU 0 instructions: 50000002 cycles: 22423414 heartbeat IPC: 2.26663 cumulative IPC: 2.22981 (Simulation time: 0 hr 1 min 14 sec) 
Heartbeat CPU 0 instructions: 60000000 cycles: 27075129 heartbeat IPC: 2.14974 cumulative IPC: 2.21606 (Simulation time: 0 hr 1 min 30 sec) 
Heartbeat CPU 0 instructions: 70000003 cycles: 31477965 heartbeat IPC: 2.27126 cumulative IPC: 2.22378 (Simulation time: 0 hr 1 min 45 sec) 
Heartbeat CPU 0 instructions: 80000000 cycles: 35902135 heartbeat IPC: 2.26031 cumulative IPC: 2.22828 (Simulation time: 0 hr 1 min 59 sec) 
Heartbeat CPU 0 instructions: 90000002 cycles: 40358890 heartbeat IPC: 2.24379 cumulative IPC: 2.22999 (Simulation time: 0 hr 2 min 14 sec) 
Heartbeat CPU 0 instructions: 100000000 cycles: 44833256 heartbeat IPC: 2.23495 cumulative IPC: 2.23049 (Simulation time: 0 hr 2 min 29 sec) 

Warmup complete CPU 0 instructions: 100000003 cycles: 44833257 (Simulation time: 0 hr 2 min 29 sec) 

Heartbeat CPU 0 instructions: 110000000 cycles: 71340268 heartbeat IPC: 0.377259 cumulative IPC: 0.377259 (Simulation time: 0 hr 3 min 1 sec) 
Heartbeat CPU 0 instructions: 120000000 cycles: 99549953 heartbeat IPC: 0.354488 cumulative IPC: 0.365519 (Simulation time: 0 hr 3 min 34 sec) 
Heartbeat CPU 0 instructions: 130000000 cycles: 123093367 heartbeat IPC: 0.424747 cumulative IPC: 0.383337 (Simulation time: 0 hr 4 min 4 sec) 
Heartbeat CPU 0 instructions: 140000000 cycles: 145631548 heartbeat IPC: 0.443692 cumulative IPC: 0.396832 (Simulation time: 0 hr 4 min 33 sec) 
Heartbeat CPU 0 instructions: 150000000 cycles: 170030100 heartbeat IPC: 0.40986 cumulative IPC: 0.399371 (Simulation time: 0 hr 5 min 3 sec) 
Heartbeat CPU 0 instructions: 160000000 cycles: 194804950 heartbeat IPC: 0.403635 cumulative IPC: 0.400075 (Simulation time: 0 hr 5 min 34 sec) 
Heartbeat CPU 0 instructions: 170000002 cycles: 216061177 heartbeat IPC: 0.47045 cumulative IPC: 0.408812 (Simulation time: 0 hr 6 min 2 sec) 
Heartbeat CPU 0 instructions: 180000000 cycles: 239023773 heartbeat IPC: 0.435491 cumulative IPC: 0.411967 (Simulation time: 0 hr 6 min 32 sec) 
Heartbeat CPU 0 instructions: 190000000 cycles: 258086497 heartbeat IPC: 0.524584 cumulative IPC: 0.422033 (Simulation time: 0 hr 6 min 58 sec) 
Heartbeat CPU 0 instructions: 200000000 cycles: 279356121 heartbeat IPC: 0.470154 cumulative IPC: 0.426398 (Simulation time: 0 hr 7 min 26 sec) 
Heartbeat CPU 0 instructions: 210000001 cycles: 305646424 heartbeat IPC: 0.380368 cumulative IPC: 0.421758 (Simulation time: 0 hr 7 min 58 sec) 
Heartbeat CPU 0 instructions: 220000000 cycles: 331447798 heartbeat IPC: 0.387576 cumulative IPC: 0.418681 (Simulation time: 0 hr 8 min 30 sec) 
Heartbeat CPU 0 instructions: 230000000 cycles: 353663778 heartbeat IPC: 0.450126 cumulative IPC: 0.420943 (Simulation time: 0 hr 8 min 58 sec) 
Heartbeat CPU 0 instructions: 240000000 cycles: 379247505 heartbeat IPC: 0.390873 cumulative IPC: 0.418642 (Simulation time: 0 hr 9 min 30 sec) 
Heartbeat CPU 0 instructions: 250000001 cycles: 404106225 heartbeat IPC: 0.402273 cumulative IPC: 0.41751 (Simulation time: 0 hr 10 min 1 sec) 
Heartbeat CPU 0 instructions: 260000000 cycles: 425127715 heartbeat IPC: 0.475704 cumulative IPC: 0.420727 (Simulation time: 0 hr 10 min 29 sec) 
Heartbeat CPU 0 instructions: 270000000 cycles: 447113951 heartbeat IPC: 0.45483 cumulative IPC: 0.42259 (Simulation time: 0 hr 10 min 57 sec) 
Heartbeat CPU 0 instructions: 280000000 cycles: 474594136 heartbeat IPC: 0.363899 cumulative IPC: 0.418838 (Simulation time: 0 hr 11 min 30 sec) 
Heartbeat CPU 0 instructions: 290000000 cycles: 495827324 heartbeat IPC: 0.470961 cumulative IPC: 0.421292 (Simulation time: 0 hr 11 min 58 sec) 
Heartbeat CPU 0 instructions: 300000000 cycles: 516482172 heartbeat IPC: 0.484148 cumulative IPC: 0.424044 (Simulation time: 0 hr 12 min 26 sec) 
Heartbeat CPU 0 instructions: 310000000 cycles: 535776308 heartbeat IPC: 0.518292 cumulative IPC: 0.427748 (Simulation time: 0 hr 12 min 52 sec) 
Heartbeat CPU 0 instructions: 320000000 cycles: 564956678 heartbeat IPC: 0.342696 cumulative IPC: 0.422977 (Simulation time: 0 hr 13 min 25 sec) 
Heartbeat CPU 0 instructions: 330000001 cycles: 584333915 heartbeat IPC: 0.516069 cumulative IPC: 0.42632 (Simulation time: 0 hr 13 min 52 sec) 
Heartbeat CPU 0 instructions: 340000000 cycles: 603706086 heartbeat IPC: 0.516204 cumulative IPC: 0.429436 (Simulation time: 0 hr 14 min 18 sec) 
Heartbeat CPU 0 instructions: 350000002 cycles: 628529751 heartbeat IPC: 0.402841 cumulative IPC: 0.428305 (Simulation time: 0 hr 14 min 48 sec) 
Heartbeat CPU 0 instructions: 360000000 cycles: 650811911 heartbeat IPC: 0.448789 cumulative IPC: 0.429058 (Simulation time: 0 hr 15 min 17 sec) 
Heartbeat CPU 0 instructions: 370000001 cycles: 675908625 heartbeat IPC: 0.398459 cumulative IPC: 0.427841 (Simulation time: 0 hr 15 min 47 sec) 
Heartbeat CPU 0 instructions: 380000000 cycles: 698885200 heartbeat IPC: 0.435226 cumulative IPC: 0.428101 (Simulation time: 0 hr 16 min 16 sec) 
Heartbeat CPU 0 instructions: 390000000 cycles: 717652685 heartbeat IPC: 0.532836 cumulative IPC: 0.431022 (Simulation time: 0 hr 16 min 41 sec) 
Heartbeat CPU 0 instructions: 400000000 cycles: 737526689 heartbeat IPC: 0.50317 cumulative IPC: 0.433092 (Simulation time: 0 hr 17 min 7 sec) 
Heartbeat CPU 0 instructions: 410000001 cycles: 763400148 heartbeat IPC: 0.386496 cumulative IPC: 0.431414 (Simulation time: 0 hr 17 min 38 sec) 
Heartbeat CPU 0 instructions: 420000000 cycles: 787980148 heartbeat IPC: 0.406835 cumulative IPC: 0.430601 (Simulation time: 0 hr 18 min 7 sec) 
Heartbeat CPU 0 instructions: 430000002 cycles: 809346571 heartbeat IPC: 0.468024 cumulative IPC: 0.431647 (Simulation time: 0 hr 18 min 34 sec) 
Heartbeat CPU 0 instructions: 440000000 cycles: 829767488 heartbeat IPC: 0.489694 cumulative IPC: 0.433157 (Simulation time: 0 hr 19 min 0 sec) 
Heartbeat CPU 0 instructions: 450000002 cycles: 856256310 heartbeat IPC: 0.377518 cumulative IPC: 0.431341 (Simulation time: 0 hr 19 min 31 sec) 
Heartbeat CPU 0 instructions: 460000000 cycles: 882135061 heartbeat IPC: 0.386417 cumulative IPC: 0.429953 (Simulation time: 0 hr 20 min 1 sec) 
Heartbeat CPU 0 instructions: 470000002 cycles: 908010099 heartbeat IPC: 0.386473 cumulative IPC: 0.428649 (Simulation time: 0 hr 20 min 31 sec) 
Heartbeat CPU 0 instructions: 480000000 cycles: 932678119 heartbeat IPC: 0.405383 cumulative IPC: 0.428003 (Simulation time: 0 hr 21 min 0 sec) 
Heartbeat CPU 0 instructions: 490000000 cycles: 953545076 heartbeat IPC: 0.479227 cumulative IPC: 0.429179 (Simulation time: 0 hr 21 min 27 sec) 
Heartbeat CPU 0 instructions: 500000000 cycles: 978293708 heartbeat IPC: 0.404063 cumulative IPC: 0.428513 (Simulation time: 0 hr 21 min 56 sec) 
Heartbeat CPU 0 instructions: 510000000 cycles: 1003328703 heartbeat IPC: 0.399441 cumulative IPC: 0.427754 (Simulation time: 0 hr 22 min 26 sec) 
Heartbeat CPU 0 instructions: 520000000 cycles: 1024468931 heartbeat IPC: 0.473032 cumulative IPC: 0.428731 (Simulation time: 0 hr 22 min 53 sec) 
Heartbeat CPU 0 instructions: 530000003 cycles: 1050006873 heartbeat IPC: 0.391574 cumulative IPC: 0.427787 (Simulation time: 0 hr 23 min 23 sec) 
Heartbeat CPU 0 instructions: 540000000 cycles: 1072855774 heartbeat IPC: 0.437658 cumulative IPC: 0.428006 (Simulation time: 0 hr 23 min 51 sec) 
Heartbeat CPU 0 instructions: 550000000 cycles: 1098122781 heartbeat IPC: 0.395773 cumulative IPC: 0.427233 (Simulation time: 0 hr 24 min 20 sec) 
Heartbeat CPU 0 instructions: 560000000 cycles: 1121788807 heartbeat IPC: 0.422547 cumulative IPC: 0.42713 (Simulation time: 0 hr 24 min 49 sec) 
Heartbeat CPU 0 instructions: 570000002 cycles: 1145214786 heartbeat IPC: 0.426877 cumulative IPC: 0.427125 (Simulation time: 0 hr 25 min 17 sec) 
Heartbeat CPU 0 instructions: 580000000 cycles: 1166372491 heartbeat IPC: 0.472641 cumulative IPC: 0.427983 (Simulation time: 0 hr 25 min 44 sec) 
Heartbeat CPU 0 instructions: 590000001 cycles: 1190250536 heartbeat IPC: 0.418795 cumulative IPC: 0.427792 (Simulation time: 0 hr 26 min 13 sec) 
Heartbeat CPU 0 instructions: 600000000 cycles: 1209466528 heartbeat IPC: 0.5204 cumulative IPC: 0.42932 (Simulation time: 0 hr 26 min 38 sec) 
Finished CPU 0 instructions: 500000000 cycles: 1164633292 cumulative IPC: 0.42932 (Simulation time: 0 hr 26 min 38 sec) 

CPU 0 Branch Prediction Accuracy: 99.5434% MPKI: 1.33026
Number of Branches: 145676990 Number of Mispredictions: 665128
Number of LOAD Instructions: 188863207
Number of LOAD Instructions (ROI): 188863207
Number of STORE Instructions: 7332002
Number of STORE Instructions (ROI): 7332002
Total Destination Memory Operands: 10029285
Total Destination Memory Operands (ROI): 10029285
Total Source Memory Operands: 188863207
Total Source Memory Operands (ROI): 188863207
Number of DEPENDED LOADS: 291087
Number of DEPENDED LOADS (ROI): 291087
Number of SQ_ADDED: 10029285
Number of SQ_ADDED (ROI): 10029285
Number of LQ_ADDED: 200648543
Number of LQ_ADDED (ROI): 200648543
Number of Instructions read from trace: 600000010

ChampSim completed all CPUs

Region of Interest Statistics

CPU 0 cumulative IPC: 0.42932 instructions: 500000000 cycles: 1164633292
ITLB TOTAL     ACCESS:  145807911  HIT:  145768384  MISS:      39527
ITLB LOAD      ACCESS:  145807911  HIT:  145768384  MISS:      39527
ITLB RFO       ACCESS:          0  HIT:          0  MISS:          0
ITLB PREFETCH  ACCESS:          0  HIT:          0  MISS:          0
ITLB WRITEBACK ACCESS:          0  HIT:          0  MISS:          0
ITLB PREFETCH  REQUESTED:          0  ISSUED:          0  USEFUL:          0  USELESS:          0
ITLB TOTAL MSHR MERGED:      57378
ITLB LOAD MSHR MERGED:      57378
ITLB RFO MSHR MERGED:          0
ITLB PREFETCH MSHR MERGED:          0
ITLB WRITEBACK MSHR MERGED:          0
ITLB TOTAL ACCESSES:  145865289 HITS:  145768384 MISSES:      96905
ITLB LOAD ACCESSES:  145865289 HITS:  145768384 MISSES:      96905
ITLB RFO ACCESSES:          0 HITS:          0 MISSES:          0
ITLB PREFETCH ACCESSES:          0 HITS:          0 MISSES:          0
ITLB WRITEBACK ACCESSES:          0 HITS:          0 MISSES:          0
ITLB RQ ACCESS:  499999754
ITLB RQ TO_CACHE:  145865289
ITLB RQ MERGED:  354134465
ITLB RQ FORWARD:          0
ITLB WQ ACCESS:          0
ITLB WQ TO_CACHE:          0
ITLB WQ MERGED:          0
ITLB WQ FORWARD:          0
DTLB TOTAL     ACCESS:  135190116  HIT:  134021756  MISS:    1168360
DTLB LOAD      ACCESS:  127149102  HIT:  125989849  MISS:    1159253
DTLB RFO       ACCESS:    8041014  HIT:    8031907  MISS:       9107
DTLB PREFETCH  ACCESS:          0  HIT:          0  MISS:          0
DTLB WRITEBACK ACCESS:          0  HIT:          0  MISS:          0
DTLB PREFETCH  REQUESTED:          0  ISSUED:          0  USEFUL:          0  USELESS:          0
DTLB TOTAL MSHR MERGED:     581481
DTLB LOAD MSHR MERGED:     577103
DTLB RFO MSHR MERGED:       4378
DTLB PREFETCH MSHR MERGED:          0
DTLB WRITEBACK MSHR MERGED:          0
DTLB TOTAL ACCESSES:  135771597 HITS:  134021756 MISSES:    1749841
DTLB LOAD ACCESSES:  127726205 HITS:  125989849 MISSES:    1736356
DTLB RFO ACCESSES:    8045392 HITS:    8031907 MISSES:      13485
DTLB PREFETCH ACCESSES:          0 HITS:          0 MISSES:          0
DTLB WRITEBACK ACCESSES:          0 HITS:          0 MISSES:          0
DTLB RQ ACCESS:  165763250
DTLB RQ TO_CACHE:  135771597
DTLB RQ MERGED:   29991653
DTLB RQ FORWARD:          0
DTLB WQ ACCESS:          0
DTLB WQ TO_CACHE:          0
DTLB WQ MERGED:          0
DTLB WQ FORWARD:          0
L1D TOTAL     ACCESS:  156954991  HIT:  139639311  MISS:   17315680
L1D LOAD      ACCESS:   89978398  HIT:   78834846  MISS:   11143552
L1D RFO       ACCESS:    8498652  HIT:    8411455  MISS:      87197
L1D PREFETCH  ACCESS:   58477941  HIT:   52393010  MISS:    6084931
L1D WRITEBACK ACCESS:          0  HIT:          0  MISS:          0
L1D PREFETCH  REQUESTED:   93718635  ISSUED:   92851120  USEFUL:    2003517  USELESS:    4081488
L1D TOTAL MSHR MERGED:   15106287
L1D LOAD MSHR MERGED:    7139871
L1D RFO MSHR MERGED:     125956
L1D PREFETCH MSHR MERGED:    7840460
L1D WRITEBACK MSHR MERGED:          0
L1D TOTAL ACCESSES:  172061442 HITS:  139639474 MISSES:   32421968
L1D LOAD ACCESSES:   93718638 HITS:   78834849 MISSES:   14883789
L1D RFO ACCESSES:    8622721 HITS:    8411455 MISSES:     211266
L1D PREFETCH ACCESSES:   69720083 HITS:   52393170 MISSES:   17326913
L1D WRITEBACK ACCESSES:          0 HITS:          0 MISSES:          0
L1D RQ ACCESS:  157124044
L1D RQ TO_CACHE:   93718635
L1D RQ MERGED:   63405406
L1D RQ FORWARD:          0
L1D WQ ACCESS:    8639208
L1D WQ TO_CACHE:    8622721
L1D WQ MERGED:      16487
L1D WQ FORWARD:        163
L1I TOTAL     ACCESS:  178795902  HIT:  178132259  MISS:     663643
L1I LOAD      ACCESS:  178795902  HIT:  178132259  MISS:     663643
L1I RFO       ACCESS:          0  HIT:          0  MISS:          0
L1I PREFETCH  ACCESS:          0  HIT:          0  MISS:          0
L1I WRITEBACK ACCESS:          0  HIT:          0  MISS:          0
L1I PREFETCH  REQUESTED:          0  ISSUED:          0  USEFUL:          0  USELESS:          0
L1I TOTAL MSHR MERGED:     597837
L1I LOAD MSHR MERGED:     597837
L1I RFO MSHR MERGED:          0
L1I PREFETCH MSHR MERGED:          0
L1I WRITEBACK MSHR MERGED:          0
L1I TOTAL ACCESSES:  179393739 HITS:  178132259 MISSES:    1261480
L1I LOAD ACCESSES:  179393739 HITS:  178132259 MISSES:    1261480
L1I RFO ACCESSES:          0 HITS:          0 MISSES:          0
L1I PREFETCH ACCESSES:          0 HITS:          0 MISSES:          0
L1I WRITEBACK ACCESSES:          0 HITS:          0 MISSES:          0
L1I RQ ACCESS:  499999757
L1I RQ TO_CACHE:  179393739
L1I RQ MERGED:  320606018
L1I RQ FORWARD:          0
L1I WQ ACCESS:          0
L1I WQ TO_CACHE:          0
L1I WQ MERGED:          0
L1I WQ FORWARD:          0
L2C TOTAL     ACCESS:   19276751  HIT:    2057280  MISS:   17219471
L2C LOAD      ACCESS:    8407455  HIT:     951112  MISS:    7456343
L2C RFO       ACCESS:      85287  HIT:      53726  MISS:      31561
L2C PREFETCH  ACCESS:   10499003  HIT:     770246  MISS:    9728757
L2C WRITEBACK ACCESS:     285006  HIT:     282196  MISS:       2810
L2C PREFETCH  REQUESTED:    1016896  ISSUED:    1016896  USEFUL:     274771  USELESS:    9453081
L2C TOTAL MSHR MERGED:       1068
L2C LOAD MSHR MERGED:        225
L2C RFO MSHR MERGED:          1
L2C PREFETCH MSHR MERGED:        842
L2C WRITEBACK MSHR MERGED:          0
L2C TOTAL ACCESSES:   19279967 HITS:    2057475 MISSES:   17222492
L2C LOAD ACCESSES:    8407561 HITS:     951218 MISSES:    7456343
L2C RFO ACCESSES:      85310 HITS:      53749 MISSES:      31561
L2C PREFETCH ACCESSES:   10502090 HITS:     770312 MISSES:    9731778
L2C WRITEBACK ACCESSES:     285006 HITS:     282196 MISSES:       2810
L2C RQ ACCESS:    8492871
L2C RQ TO_CACHE:    8492742
L2C RQ MERGED:          0
L2C RQ FORWARD:          0
L2C WQ ACCESS:     285006
L2C WQ TO_CACHE:     285006
L2C WQ MERGED:          0
L2C WQ FORWARD:        195
LLC TOTAL     ACCESS:   17324668  HIT:    4863280  MISS:   12461388
LLC LOAD      ACCESS:    7456118  HIT:    3994365  MISS:    3461753
LLC RFO       ACCESS:      31560  HIT:      16220  MISS:      15340
LLC PREFETCH  ACCESS:    9730933  HIT:     769762  MISS:    8961171
LLC WRITEBACK ACCESS:     106057  HIT:      82933  MISS:      23124
LLC PREFETCH  REQUESTED:          0  ISSUED:          0  USEFUL:       2183  USELESS:    8958283
LLC TOTAL MSHR MERGED:          2
LLC LOAD MSHR MERGED:          1
LLC RFO MSHR MERGED:          0
LLC PREFETCH MSHR MERGED:          1
LLC WRITEBACK MSHR MERGED:          0
LLC TOTAL ACCESSES:   17324671 HITS:    4863280 MISSES:   12461391
LLC LOAD ACCESSES:    7456118 HITS:    3994365 MISSES:    3461753
LLC RFO ACCESSES:      31560 HITS:      16220 MISSES:      15340
LLC PREFETCH ACCESSES:    9730936 HITS:     769762 MISSES:    8961174
LLC WRITEBACK ACCESSES:     106057 HITS:      82933 MISSES:      23124
LLC 0 RQ ACCESS:    7487678
LLC 0 RQ TO_CACHE:    7487678
LLC 0 RQ MERGED:          0
LLC 0 RQ FORWARD:          0
LLC WQ ACCESS:     106057
LLC WQ TO_CACHE:     106057
LLC WQ MERGED:          0
LLC WQ FORWARD:          0
Major fault: 0 Minor fault: 6432
CPU 0 L1D next line prefetcher final stats
CPU 0 L2C PC-based stride prefetcher final stats
All Misses: 14694534
All Hits: 5849804
SD Algo Stats - Switches: 0 SRR-Repls: 3689992 BRR-Repls: 0

DRAM Statistics
 CHANNEL 0
 RQ ROW_BUFFER_HIT:    9403240  ROW_BUFFER_MISS:    3029610
 DBUS_CONGESTED:    5790330
 WQ ROW_BUFFER_HIT:       1386  ROW_BUFFER_MISS:      41576  FULL:          0

 AVG_CONGESTED_CYCLE: 12
LOADS RETIRED: 157382665
INSTR RETIRED: 500000000
