
*** ChampSim Multicore Out-of-Order Simulator ***

Warmup Instructions: 100000000
Simulation Instructions: 500000000
Number of CPUs: 1
LLC sets: 2048
LLC ways: 16
Clean RRIP Policies: 2213220222132202 Dirty RRIP Policies: 2203120222031202 PSEL Width: 10 Track Set: 4294967295 PSEL Mask: 1 Demote Mask: 3310100033101000DS Algo: 0Window size: 0
Off-chip DRAM Size: 4096 MB Channels: 1 Width: 64-bit Data Rate: 1600 MT/s

CPU 0 runs /mnt/beegfs/iconst01/spec2017/Omnetpp.trace.gz
NOT SORTED
TRACE STRING: /mnt/beegfs/iconst01/spec2017/Omnetpp.trace.gz
SORTED
TRACE STRING: /mnt/beegfs/iconst01/spec2017/Omnetpp.trace.gz
INITIAL
TRACE STRING: /mnt/beegfs/iconst01/spec2017/Omnetpp.trace.gz

champsim_seed used: 739

CPU 0 L1D next line prefetcher
CPU 0 L2C IP-based stride prefetcher
Initialize DRRIP state
Assign rand_sets[0]: 454  LLC: 2048
rand_sets[0]: 454
Assign rand_sets[1]: 1662  LLC: 2048
rand_sets[1]: 1662
Assign rand_sets[2]: 1921  LLC: 2048
rand_sets[2]: 1921
Assign rand_sets[3]: 1131  LLC: 2048
rand_sets[3]: 1131
Assign rand_sets[4]: 331  LLC: 2048
rand_sets[4]: 331
Assign rand_sets[5]: 1531  LLC: 2048
rand_sets[5]: 1531
Assign rand_sets[6]: 482  LLC: 2048
rand_sets[6]: 482
Assign rand_sets[7]: 1275  LLC: 2048
rand_sets[7]: 1275
Assign rand_sets[8]: 1876  LLC: 2048
rand_sets[8]: 1876
Assign rand_sets[9]: 2038  LLC: 2048
rand_sets[9]: 2038
Assign rand_sets[10]: 701  LLC: 2048
rand_sets[10]: 701
Assign rand_sets[11]: 479  LLC: 2048
rand_sets[11]: 479
Assign rand_sets[12]: 892  LLC: 2048
rand_sets[12]: 892
Assign rand_sets[13]: 1820  LLC: 2048
rand_sets[13]: 1820
Assign rand_sets[14]: 1505  LLC: 2048
rand_sets[14]: 1505
Assign rand_sets[15]: 1159  LLC: 2048
rand_sets[15]: 1159
Assign rand_sets[16]: 513  LLC: 2048
rand_sets[16]: 513
Assign rand_sets[17]: 703  LLC: 2048
rand_sets[17]: 703
Assign rand_sets[18]: 561  LLC: 2048
rand_sets[18]: 561
Assign rand_sets[19]: 990  LLC: 2048
rand_sets[19]: 990
Assign rand_sets[20]: 342  LLC: 2048
rand_sets[20]: 342
Assign rand_sets[21]: 882  LLC: 2048
rand_sets[21]: 882
Assign rand_sets[22]: 15  LLC: 2048
rand_sets[22]: 15
Assign rand_sets[23]: 71  LLC: 2048
rand_sets[23]: 71
Assign rand_sets[24]: 1127  LLC: 2048
rand_sets[24]: 1127
Assign rand_sets[25]: 1382  LLC: 2048
rand_sets[25]: 1382
Assign rand_sets[26]: 647  LLC: 2048
rand_sets[26]: 647
Assign rand_sets[27]: 857  LLC: 2048
rand_sets[27]: 857
Assign rand_sets[28]: 1450  LLC: 2048
rand_sets[28]: 1450
Assign rand_sets[29]: 1160  LLC: 2048
rand_sets[29]: 1160
Assign rand_sets[30]: 1852  LLC: 2048
rand_sets[30]: 1852
Assign rand_sets[31]: 1881  LLC: 2048
rand_sets[31]: 1881
Assign rand_sets[32]: 1770  LLC: 2048
rand_sets[32]: 1770
Assign rand_sets[33]: 1622  LLC: 2048
rand_sets[33]: 1622
Assign rand_sets[34]: 275  LLC: 2048
rand_sets[34]: 275
Assign rand_sets[35]: 635  LLC: 2048
rand_sets[35]: 635
Assign rand_sets[36]: 466  LLC: 2048
rand_sets[36]: 466
Assign rand_sets[37]: 1413  LLC: 2048
rand_sets[37]: 1413
Assign rand_sets[38]: 417  LLC: 2048
rand_sets[38]: 417
Assign rand_sets[39]: 472  LLC: 2048
rand_sets[39]: 472
Assign rand_sets[40]: 1340  LLC: 2048
rand_sets[40]: 1340
Assign rand_sets[41]: 852  LLC: 2048
rand_sets[41]: 852
Assign rand_sets[42]: 1365  LLC: 2048
rand_sets[42]: 1365
Assign rand_sets[43]: 47  LLC: 2048
rand_sets[43]: 47
Assign rand_sets[44]: 823  LLC: 2048
rand_sets[44]: 823
Assign rand_sets[45]: 686  LLC: 2048
rand_sets[45]: 686
Assign rand_sets[46]: 1637  LLC: 2048
rand_sets[46]: 1637
Assign rand_sets[47]: 1115  LLC: 2048
rand_sets[47]: 1115
Assign rand_sets[48]: 986  LLC: 2048
rand_sets[48]: 986
Assign rand_sets[49]: 258  LLC: 2048
rand_sets[49]: 258
Assign rand_sets[50]: 633  LLC: 2048
rand_sets[50]: 633
Assign rand_sets[51]: 920  LLC: 2048
rand_sets[51]: 920
Assign rand_sets[52]: 204  LLC: 2048
rand_sets[52]: 204
Assign rand_sets[53]: 227  LLC: 2048
rand_sets[53]: 227
Assign rand_sets[54]: 1818  LLC: 2048
rand_sets[54]: 1818
Assign rand_sets[55]: 886  LLC: 2048
rand_sets[55]: 886
Assign rand_sets[56]: 1422  LLC: 2048
rand_sets[56]: 1422
Assign rand_sets[57]: 607  LLC: 2048
rand_sets[57]: 607
Assign rand_sets[58]: 217  LLC: 2048
rand_sets[58]: 217
Assign rand_sets[59]: 1945  LLC: 2048
rand_sets[59]: 1945
Assign rand_sets[60]: 143  LLC: 2048
rand_sets[60]: 143
Assign rand_sets[61]: 1311  LLC: 2048
rand_sets[61]: 1311
Assign rand_sets[62]: 319  LLC: 2048
rand_sets[62]: 319
Assign rand_sets[63]: 1846  LLC: 2048
rand_sets[63]: 1846
 CLEAN-RRIP-POLICY-1: 2-2-1-3-2-2-0-2- CLEAN-RRIP-POLICY-2: 2-2-1-3-2-2-0-2-
 DIRTY-RRIP-POLICY-1: 2-2-0-3-1-2-0-2- DIRTY-RRIP-POLICY-2: 2-2-0-3-1-2-0-2-
 PSEL width: 10
Heartbeat CPU 0 instructions: 10000000 cycles: 7320068 heartbeat IPC: 1.36611 cumulative IPC: 1.36611 (Simulation time: 0 hr 0 min 20 sec) 
Heartbeat CPU 0 instructions: 20000000 cycles: 14623818 heartbeat IPC: 1.36916 cumulative IPC: 1.36763 (Simulation time: 0 hr 0 min 40 sec) 
Heartbeat CPU 0 instructions: 30000003 cycles: 21925299 heartbeat IPC: 1.36959 cumulative IPC: 1.36828 (Simulation time: 0 hr 1 min 1 sec) 
Heartbeat CPU 0 instructions: 40000000 cycles: 29213668 heartbeat IPC: 1.37205 cumulative IPC: 1.36922 (Simulation time: 0 hr 1 min 21 sec) 
Heartbeat CPU 0 instructions: 50000000 cycles: 36490107 heartbeat IPC: 1.3743 cumulative IPC: 1.37023 (Simulation time: 0 hr 1 min 41 sec) 
Heartbeat CPU 0 instructions: 60000000 cycles: 43770076 heartbeat IPC: 1.37363 cumulative IPC: 1.3708 (Simulation time: 0 hr 2 min 1 sec) 
Heartbeat CPU 0 instructions: 70000001 cycles: 51055349 heartbeat IPC: 1.37263 cumulative IPC: 1.37106 (Simulation time: 0 hr 2 min 21 sec) 
Heartbeat CPU 0 instructions: 80000000 cycles: 58330432 heartbeat IPC: 1.37455 cumulative IPC: 1.3715 (Simulation time: 0 hr 2 min 42 sec) 
Heartbeat CPU 0 instructions: 90000000 cycles: 65636792 heartbeat IPC: 1.36867 cumulative IPC: 1.37118 (Simulation time: 0 hr 3 min 2 sec) 
Heartbeat CPU 0 instructions: 100000000 cycles: 72928838 heartbeat IPC: 1.37136 cumulative IPC: 1.3712 (Simulation time: 0 hr 3 min 22 sec) 

Warmup complete CPU 0 instructions: 100000002 cycles: 72928839 (Simulation time: 0 hr 3 min 22 sec) 

Heartbeat CPU 0 instructions: 110000002 cycles: 113444727 heartbeat IPC: 0.246817 cumulative IPC: 0.246817 (Simulation time: 0 hr 4 min 2 sec) 
Heartbeat CPU 0 instructions: 120000000 cycles: 153672525 heartbeat IPC: 0.248584 cumulative IPC: 0.247697 (Simulation time: 0 hr 4 min 42 sec) 
Heartbeat CPU 0 instructions: 130000002 cycles: 194083006 heartbeat IPC: 0.247461 cumulative IPC: 0.247618 (Simulation time: 0 hr 5 min 22 sec) 
Heartbeat CPU 0 instructions: 140000000 cycles: 234644035 heartbeat IPC: 0.246542 cumulative IPC: 0.247348 (Simulation time: 0 hr 6 min 3 sec) 
Heartbeat CPU 0 instructions: 150000002 cycles: 274743756 heartbeat IPC: 0.249378 cumulative IPC: 0.247752 (Simulation time: 0 hr 6 min 43 sec) 
Heartbeat CPU 0 instructions: 160000000 cycles: 314899254 heartbeat IPC: 0.249032 cumulative IPC: 0.247964 (Simulation time: 0 hr 7 min 23 sec) 
Heartbeat CPU 0 instructions: 170000001 cycles: 354311516 heartbeat IPC: 0.253728 cumulative IPC: 0.248772 (Simulation time: 0 hr 8 min 3 sec) 
Heartbeat CPU 0 instructions: 180000000 cycles: 394437429 heartbeat IPC: 0.249215 cumulative IPC: 0.248827 (Simulation time: 0 hr 8 min 43 sec) 
Heartbeat CPU 0 instructions: 190000002 cycles: 434563195 heartbeat IPC: 0.249216 cumulative IPC: 0.24887 (Simulation time: 0 hr 9 min 22 sec) 
Heartbeat CPU 0 instructions: 200000000 cycles: 475914078 heartbeat IPC: 0.241833 cumulative IPC: 0.248148 (Simulation time: 0 hr 10 min 1 sec) 
Heartbeat CPU 0 instructions: 210000003 cycles: 516071175 heartbeat IPC: 0.249022 cumulative IPC: 0.248227 (Simulation time: 0 hr 10 min 40 sec) 
Heartbeat CPU 0 instructions: 220000000 cycles: 556460975 heartbeat IPC: 0.247587 cumulative IPC: 0.248174 (Simulation time: 0 hr 11 min 19 sec) 
Heartbeat CPU 0 instructions: 230000000 cycles: 596823492 heartbeat IPC: 0.247755 cumulative IPC: 0.248141 (Simulation time: 0 hr 11 min 58 sec) 
Heartbeat CPU 0 instructions: 240000000 cycles: 636901593 heartbeat IPC: 0.249513 cumulative IPC: 0.248239 (Simulation time: 0 hr 12 min 36 sec) 
Heartbeat CPU 0 instructions: 250000000 cycles: 677016880 heartbeat IPC: 0.249282 cumulative IPC: 0.248308 (Simulation time: 0 hr 13 min 15 sec) 
Heartbeat CPU 0 instructions: 260000000 cycles: 717271283 heartbeat IPC: 0.24842 cumulative IPC: 0.248315 (Simulation time: 0 hr 13 min 54 sec) 
Heartbeat CPU 0 instructions: 270000000 cycles: 757580433 heartbeat IPC: 0.248083 cumulative IPC: 0.248301 (Simulation time: 0 hr 14 min 33 sec) 
Heartbeat CPU 0 instructions: 280000000 cycles: 798242580 heartbeat IPC: 0.245929 cumulative IPC: 0.248168 (Simulation time: 0 hr 15 min 12 sec) 
Heartbeat CPU 0 instructions: 290000001 cycles: 838137655 heartbeat IPC: 0.250658 cumulative IPC: 0.248298 (Simulation time: 0 hr 15 min 52 sec) 
Heartbeat CPU 0 instructions: 300000000 cycles: 878666245 heartbeat IPC: 0.246739 cumulative IPC: 0.24822 (Simulation time: 0 hr 16 min 31 sec) 
Heartbeat CPU 0 instructions: 310000000 cycles: 919154888 heartbeat IPC: 0.246983 cumulative IPC: 0.248161 (Simulation time: 0 hr 17 min 10 sec) 
Heartbeat CPU 0 instructions: 320000000 cycles: 959356441 heartbeat IPC: 0.248747 cumulative IPC: 0.248187 (Simulation time: 0 hr 17 min 49 sec) 
Heartbeat CPU 0 instructions: 330000000 cycles: 999585150 heartbeat IPC: 0.248579 cumulative IPC: 0.248204 (Simulation time: 0 hr 18 min 29 sec) 
Heartbeat CPU 0 instructions: 340000000 cycles: 1040404822 heartbeat IPC: 0.24498 cumulative IPC: 0.248068 (Simulation time: 0 hr 19 min 8 sec) 
Heartbeat CPU 0 instructions: 350000001 cycles: 1080683277 heartbeat IPC: 0.248272 cumulative IPC: 0.248076 (Simulation time: 0 hr 19 min 47 sec) 
Heartbeat CPU 0 instructions: 360000000 cycles: 1121269354 heartbeat IPC: 0.24639 cumulative IPC: 0.248011 (Simulation time: 0 hr 20 min 26 sec) 
Heartbeat CPU 0 instructions: 370000000 cycles: 1160932602 heartbeat IPC: 0.252123 cumulative IPC: 0.248161 (Simulation time: 0 hr 21 min 5 sec) 
Heartbeat CPU 0 instructions: 380000000 cycles: 1201495542 heartbeat IPC: 0.24653 cumulative IPC: 0.248102 (Simulation time: 0 hr 21 min 44 sec) 
Heartbeat CPU 0 instructions: 390000001 cycles: 1241551023 heartbeat IPC: 0.249654 cumulative IPC: 0.248155 (Simulation time: 0 hr 22 min 22 sec) 
Heartbeat CPU 0 instructions: 400000000 cycles: 1281750552 heartbeat IPC: 0.248759 cumulative IPC: 0.248176 (Simulation time: 0 hr 23 min 1 sec) 
Heartbeat CPU 0 instructions: 410000000 cycles: 1321759110 heartbeat IPC: 0.249947 cumulative IPC: 0.248232 (Simulation time: 0 hr 23 min 40 sec) 
Heartbeat CPU 0 instructions: 420000000 cycles: 1361837658 heartbeat IPC: 0.24951 cumulative IPC: 0.248272 (Simulation time: 0 hr 24 min 19 sec) 
Heartbeat CPU 0 instructions: 430000000 cycles: 1401976823 heartbeat IPC: 0.249133 cumulative IPC: 0.248298 (Simulation time: 0 hr 24 min 58 sec) 
Heartbeat CPU 0 instructions: 440000000 cycles: 1442148166 heartbeat IPC: 0.248934 cumulative IPC: 0.248317 (Simulation time: 0 hr 25 min 36 sec) 
Heartbeat CPU 0 instructions: 450000002 cycles: 1482186624 heartbeat IPC: 0.24976 cumulative IPC: 0.248358 (Simulation time: 0 hr 26 min 15 sec) 
Heartbeat CPU 0 instructions: 460000000 cycles: 1521651278 heartbeat IPC: 0.253391 cumulative IPC: 0.248495 (Simulation time: 0 hr 26 min 54 sec) 
Heartbeat CPU 0 instructions: 470000000 cycles: 1561967982 heartbeat IPC: 0.248036 cumulative IPC: 0.248482 (Simulation time: 0 hr 27 min 33 sec) 
Heartbeat CPU 0 instructions: 480000000 cycles: 1601942239 heartbeat IPC: 0.250161 cumulative IPC: 0.248526 (Simulation time: 0 hr 28 min 12 sec) 
Heartbeat CPU 0 instructions: 490000001 cycles: 1642060531 heartbeat IPC: 0.249263 cumulative IPC: 0.248545 (Simulation time: 0 hr 28 min 51 sec) 
Heartbeat CPU 0 instructions: 500000000 cycles: 1682390412 heartbeat IPC: 0.247955 cumulative IPC: 0.24853 (Simulation time: 0 hr 29 min 30 sec) 
Heartbeat CPU 0 instructions: 510000000 cycles: 1722169085 heartbeat IPC: 0.251391 cumulative IPC: 0.248599 (Simulation time: 0 hr 30 min 7 sec) 
Heartbeat CPU 0 instructions: 520000000 cycles: 1762699371 heartbeat IPC: 0.246729 cumulative IPC: 0.248554 (Simulation time: 0 hr 30 min 45 sec) 
Heartbeat CPU 0 instructions: 530000000 cycles: 1802706977 heartbeat IPC: 0.249952 cumulative IPC: 0.248587 (Simulation time: 0 hr 31 min 22 sec) 
Heartbeat CPU 0 instructions: 540000000 cycles: 1842458102 heartbeat IPC: 0.251565 cumulative IPC: 0.248654 (Simulation time: 0 hr 31 min 59 sec) 
Heartbeat CPU 0 instructions: 550000001 cycles: 1882946325 heartbeat IPC: 0.246985 cumulative IPC: 0.248616 (Simulation time: 0 hr 32 min 38 sec) 
Heartbeat CPU 0 instructions: 560000000 cycles: 1923513573 heartbeat IPC: 0.246504 cumulative IPC: 0.24857 (Simulation time: 0 hr 33 min 17 sec) 
Heartbeat CPU 0 instructions: 570000003 cycles: 1964058624 heartbeat IPC: 0.246639 cumulative IPC: 0.248529 (Simulation time: 0 hr 33 min 56 sec) 
Heartbeat CPU 0 instructions: 580000000 cycles: 2004437057 heartbeat IPC: 0.247657 cumulative IPC: 0.24851 (Simulation time: 0 hr 34 min 35 sec) 
Heartbeat CPU 0 instructions: 590000001 cycles: 2045235801 heartbeat IPC: 0.245106 cumulative IPC: 0.24844 (Simulation time: 0 hr 35 min 15 sec) 
Heartbeat CPU 0 instructions: 600000000 cycles: 2085774795 heartbeat IPC: 0.246676 cumulative IPC: 0.248405 (Simulation time: 0 hr 35 min 54 sec) 
Finished CPU 0 instructions: 500000000 cycles: 2012845964 cumulative IPC: 0.248405 (Simulation time: 0 hr 35 min 54 sec) 

CPU 0 Branch Prediction Accuracy: 96.2429% MPKI: 5.85335
Number of Branches: 77897976 Number of Mispredictions: 2926674
Number of LOAD Instructions: 193081861
Number of LOAD Instructions (ROI): 193081861
Number of STORE Instructions: 97310749
Number of STORE Instructions (ROI): 97310749
Total Destination Memory Operands: 106368027
Total Destination Memory Operands (ROI): 106368027
Total Source Memory Operands: 193081861
Total Source Memory Operands (ROI): 193081861
Number of DEPENDED LOADS: 6435280
Number of DEPENDED LOADS (ROI): 6435280
Number of SQ_ADDED: 106367982
Number of SQ_ADDED (ROI): 106367982
Number of LQ_ADDED: 428397912
Number of LQ_ADDED (ROI): 428397912
Number of Instructions read from trace: 600000256

ChampSim completed all CPUs

Region of Interest Statistics

CPU 0 cumulative IPC: 0.248405 instructions: 500000000 cycles: 2012845964
ITLB TOTAL     ACCESS:  151295780  HIT:  151279949  MISS:      15831
ITLB LOAD      ACCESS:  151295780  HIT:  151279949  MISS:      15831
ITLB RFO       ACCESS:          0  HIT:          0  MISS:          0
ITLB PREFETCH  ACCESS:          0  HIT:          0  MISS:          0
ITLB WRITEBACK ACCESS:          0  HIT:          0  MISS:          0
ITLB PREFETCH  REQUESTED:          0  ISSUED:          0  USEFUL:          0  USELESS:          0
ITLB TOTAL MSHR MERGED:      17483
ITLB LOAD MSHR MERGED:      17483
ITLB RFO MSHR MERGED:          0
ITLB PREFETCH MSHR MERGED:          0
ITLB WRITEBACK MSHR MERGED:          0
ITLB TOTAL ACCESSES:  151313263 HITS:  151279949 MISSES:      33314
ITLB LOAD ACCESSES:  151313263 HITS:  151279949 MISSES:      33314
ITLB RFO ACCESSES:          0 HITS:          0 MISSES:          0
ITLB PREFETCH ACCESSES:          0 HITS:          0 MISSES:          0
ITLB WRITEBACK ACCESSES:          0 HITS:          0 MISSES:          0
ITLB RQ ACCESS:  500000242
ITLB RQ TO_CACHE:  151313263
ITLB RQ MERGED:  348686979
ITLB RQ FORWARD:          0
ITLB WQ ACCESS:          0
ITLB WQ TO_CACHE:          0
ITLB WQ MERGED:          0
ITLB WQ FORWARD:          0
DTLB TOTAL     ACCESS:  199568704  HIT:  194189652  MISS:    5379052
DTLB LOAD      ACCESS:  123142435  HIT:  118123871  MISS:    5018564
DTLB RFO       ACCESS:   76426269  HIT:   76065781  MISS:     360488
DTLB PREFETCH  ACCESS:          0  HIT:          0  MISS:          0
DTLB WRITEBACK ACCESS:          0  HIT:          0  MISS:          0
DTLB PREFETCH  REQUESTED:          0  ISSUED:          0  USEFUL:          0  USELESS:          0
DTLB TOTAL MSHR MERGED:     917481
DTLB LOAD MSHR MERGED:     807525
DTLB RFO MSHR MERGED:     109956
DTLB PREFETCH MSHR MERGED:          0
DTLB WRITEBACK MSHR MERGED:          0
DTLB TOTAL ACCESSES:  200486185 HITS:  194189652 MISSES:    6296533
DTLB LOAD ACCESSES:  123949960 HITS:  118123871 MISSES:    5826089
DTLB RFO ACCESSES:   76536225 HITS:   76065781 MISSES:     470444
DTLB PREFETCH ACCESSES:          0 HITS:          0 MISSES:          0
DTLB WRITEBACK ACCESSES:          0 HITS:          0 MISSES:          0
DTLB RQ ACCESS:  243890536
DTLB RQ TO_CACHE:  200486185
DTLB RQ MERGED:   43404351
DTLB RQ FORWARD:          0
DTLB WQ ACCESS:          0
DTLB WQ TO_CACHE:          0
DTLB WQ MERGED:          0
DTLB WQ FORWARD:          0
L1D TOTAL     ACCESS:  335637022  HIT:  317540935  MISS:   18096087
L1D LOAD      ACCESS:  127705070  HIT:  118761795  MISS:    8943275
L1D RFO       ACCESS:   87085065  HIT:   86304907  MISS:     780158
L1D PREFETCH  ACCESS:  120846887  HIT:  112474233  MISS:    8372654
L1D WRITEBACK ACCESS:          0  HIT:          0  MISS:          0
L1D PREFETCH  REQUESTED:  128483496  ISSUED:  126885501  USEFUL:    1742568  USELESS:    6630098
L1D TOTAL MSHR MERGED:    3831563
L1D LOAD MSHR MERGED:     942424
L1D RFO MSHR MERGED:    1058969
L1D PREFETCH MSHR MERGED:    1830170
L1D WRITEBACK MSHR MERGED:          0
L1D TOTAL ACCESSES:  339555474 HITS:  317627824 MISSES:   21927650
L1D LOAD ACCESSES:  128483923 HITS:  118762222 MISSES:    9721701
L1D RFO ACCESSES:   88084171 HITS:   86304907 MISSES:    1779264
L1D PREFETCH ACCESSES:  122987380 HITS:  112560695 MISSES:   10426685
L1D WRITEBACK ACCESSES:          0 HITS:          0 MISSES:          0
L1D RQ ACCESS:  155259151
L1D RQ TO_CACHE:  128483496
L1D RQ MERGED:   26775228
L1D RQ FORWARD:          0
L1D WQ ACCESS:   88631385
L1D WQ TO_CACHE:   88084170
L1D WQ MERGED:     547215
L1D WQ FORWARD:      86889
L1I TOTAL     ACCESS:  175596355  HIT:  175329896  MISS:     266459
L1I LOAD      ACCESS:  175596355  HIT:  175329896  MISS:     266459
L1I RFO       ACCESS:          0  HIT:          0  MISS:          0
L1I PREFETCH  ACCESS:          0  HIT:          0  MISS:          0
L1I WRITEBACK ACCESS:          0  HIT:          0  MISS:          0
L1I PREFETCH  REQUESTED:          0  ISSUED:          0  USEFUL:          0  USELESS:          0
L1I TOTAL MSHR MERGED:     213425
L1I LOAD MSHR MERGED:     213425
L1I RFO MSHR MERGED:          0
L1I PREFETCH MSHR MERGED:          0
L1I WRITEBACK MSHR MERGED:          0
L1I TOTAL ACCESSES:  175809780 HITS:  175329896 MISSES:     479884
L1I LOAD ACCESSES:  175809780 HITS:  175329896 MISSES:     479884
L1I RFO ACCESSES:          0 HITS:          0 MISSES:          0
L1I PREFETCH ACCESSES:          0 HITS:          0 MISSES:          0
L1I WRITEBACK ACCESSES:          0 HITS:          0 MISSES:          0
L1I RQ ACCESS:  500000242
L1I RQ TO_CACHE:  175809780
L1I RQ MERGED:  324190462
L1I RQ FORWARD:          0
L1I WQ ACCESS:          0
L1I WQ TO_CACHE:          0
L1I WQ MERGED:          0
L1I WQ FORWARD:          0
L2C TOTAL     ACCESS:   23738610  HIT:   12112825  MISS:   11625785
L2C LOAD      ACCESS:    9044558  HIT:    3564978  MISS:    5479580
L2C RFO       ACCESS:     720237  HIT:     130081  MISS:     590156
L2C PREFETCH  ACCESS:    8613520  HIT:    3086176  MISS:    5527344
L2C WRITEBACK ACCESS:    5360295  HIT:    5331590  MISS:      28705
L2C PREFETCH  REQUESTED:      18041  ISSUED:      18041  USEFUL:     322954  USELESS:    5204566
L2C TOTAL MSHR MERGED:         20
L2C LOAD MSHR MERGED:          2
L2C RFO MSHR MERGED:          0
L2C PREFETCH MSHR MERGED:         18
L2C WRITEBACK MSHR MERGED:          0
L2C TOTAL ACCESSES:   23740421 HITS:   12114610 MISSES:   11625811
L2C LOAD ACCESSES:    9045736 HITS:    3566156 MISSES:    5479580
L2C RFO ACCESSES:     720295 HITS:     130139 MISSES:     590156
L2C PREFETCH ACCESSES:    8614095 HITS:    3086725 MISSES:    5527370
L2C WRITEBACK ACCESSES:    5360295 HITS:    5331590 MISSES:      28705
L2C RQ ACCESS:    9766031
L2C RQ TO_CACHE:    9764795
L2C RQ MERGED:          0
L2C RQ FORWARD:          0
L2C WQ ACCESS:    5360295
L2C WQ TO_CACHE:    5360295
L2C WQ MERGED:          0
L2C WQ FORWARD:       1785
LLC TOTAL     ACCESS:   15448710  HIT:    6706913  MISS:    8741797
LLC LOAD      ACCESS:    5479550  HIT:    2029518  MISS:    3450032
LLC RFO       ACCESS:     590154  HIT:     286689  MISS:     303465
LLC PREFETCH  ACCESS:    5527335  HIT:    1072481  MISS:    4454854
LLC WRITEBACK ACCESS:    3851671  HIT:    3318225  MISS:     533446
LLC PREFETCH  REQUESTED:          0  ISSUED:          0  USEFUL:      24577  USELESS:    4430862
LLC TOTAL MSHR MERGED:          0
LLC LOAD MSHR MERGED:          0
LLC RFO MSHR MERGED:          0
LLC PREFETCH MSHR MERGED:          0
LLC WRITEBACK MSHR MERGED:          0
LLC TOTAL ACCESSES:   15448757 HITS:    6706960 MISSES:    8741797
LLC LOAD ACCESSES:    5479578 HITS:    2029546 MISSES:    3450032
LLC RFO ACCESSES:     590156 HITS:     286691 MISSES:     303465
LLC PREFETCH ACCESSES:    5527352 HITS:    1072498 MISSES:    4454854
LLC WRITEBACK ACCESSES:    3851671 HITS:    3318225 MISSES:     533446
LLC 0 RQ ACCESS:    6069734
LLC 0 RQ TO_CACHE:    6069704
LLC 0 RQ MERGED:          0
LLC 0 RQ FORWARD:          0
LLC WQ ACCESS:    3851671
LLC WQ TO_CACHE:    3851671
LLC WQ MERGED:          0
LLC WQ FORWARD:         47
Major fault: 0 Minor fault: 44814
CPU 0 L1D next line prefetcher final stats
CPU 0 L2C PC-based stride prefetcher final stats
All Misses: 10585741
All Hits: 8035473
SD Algo Stats - Switches: 0 SRR-Repls: 3940077 BRR-Repls: 0

DRAM Statistics
 CHANNEL 0
 RQ ROW_BUFFER_HIT:    1454129  ROW_BUFFER_MISS:    6752973
 DBUS_CONGESTED:    5455027
 WQ ROW_BUFFER_HIT:     165868  ROW_BUFFER_MISS:    2051609  FULL:          0

 AVG_CONGESTED_CYCLE: 13
LOADS RETIRED: 160808997
INSTR RETIRED: 500000000
