
*** ChampSim Multicore Out-of-Order Simulator ***

Warmup Instructions: 100000000
Simulation Instructions: 500000000
Number of CPUs: 1
LLC sets: 2048
LLC ways: 16
Clean RRIP Policies: 2213220222132202 Dirty RRIP Policies: 2203120222031202 PSEL Width: 10 Track Set: 4294967295 PSEL Mask: 1 Demote Mask: 3310100033101000DS Algo: 0Window size: 0
Off-chip DRAM Size: 4096 MB Channels: 1 Width: 64-bit Data Rate: 1600 MT/s

CPU 0 runs /mnt/beegfs/iconst01/spec2017/Xalancbmk.trace.gz
NOT SORTED
TRACE STRING: /mnt/beegfs/iconst01/spec2017/Xalancbmk.trace.gz
SORTED
TRACE STRING: /mnt/beegfs/iconst01/spec2017/Xalancbmk.trace.gz
INITIAL
TRACE STRING: /mnt/beegfs/iconst01/spec2017/Xalancbmk.trace.gz

champsim_seed used: 913

CPU 0 L1D next line prefetcher
CPU 0 L2C IP-based stride prefetcher
Initialize DRRIP state
Assign rand_sets[0]: 454  LLC: 2048
rand_sets[0]: 454
Assign rand_sets[1]: 1662  LLC: 2048
rand_sets[1]: 1662
Assign rand_sets[2]: 1921  LLC: 2048
rand_sets[2]: 1921
Assign rand_sets[3]: 1131  LLC: 2048
rand_sets[3]: 1131
Assign rand_sets[4]: 331  LLC: 2048
rand_sets[4]: 331
Assign rand_sets[5]: 1531  LLC: 2048
rand_sets[5]: 1531
Assign rand_sets[6]: 482  LLC: 2048
rand_sets[6]: 482
Assign rand_sets[7]: 1275  LLC: 2048
rand_sets[7]: 1275
Assign rand_sets[8]: 1876  LLC: 2048
rand_sets[8]: 1876
Assign rand_sets[9]: 2038  LLC: 2048
rand_sets[9]: 2038
Assign rand_sets[10]: 701  LLC: 2048
rand_sets[10]: 701
Assign rand_sets[11]: 479  LLC: 2048
rand_sets[11]: 479
Assign rand_sets[12]: 892  LLC: 2048
rand_sets[12]: 892
Assign rand_sets[13]: 1820  LLC: 2048
rand_sets[13]: 1820
Assign rand_sets[14]: 1505  LLC: 2048
rand_sets[14]: 1505
Assign rand_sets[15]: 1159  LLC: 2048
rand_sets[15]: 1159
Assign rand_sets[16]: 513  LLC: 2048
rand_sets[16]: 513
Assign rand_sets[17]: 703  LLC: 2048
rand_sets[17]: 703
Assign rand_sets[18]: 561  LLC: 2048
rand_sets[18]: 561
Assign rand_sets[19]: 990  LLC: 2048
rand_sets[19]: 990
Assign rand_sets[20]: 342  LLC: 2048
rand_sets[20]: 342
Assign rand_sets[21]: 882  LLC: 2048
rand_sets[21]: 882
Assign rand_sets[22]: 15  LLC: 2048
rand_sets[22]: 15
Assign rand_sets[23]: 71  LLC: 2048
rand_sets[23]: 71
Assign rand_sets[24]: 1127  LLC: 2048
rand_sets[24]: 1127
Assign rand_sets[25]: 1382  LLC: 2048
rand_sets[25]: 1382
Assign rand_sets[26]: 647  LLC: 2048
rand_sets[26]: 647
Assign rand_sets[27]: 857  LLC: 2048
rand_sets[27]: 857
Assign rand_sets[28]: 1450  LLC: 2048
rand_sets[28]: 1450
Assign rand_sets[29]: 1160  LLC: 2048
rand_sets[29]: 1160
Assign rand_sets[30]: 1852  LLC: 2048
rand_sets[30]: 1852
Assign rand_sets[31]: 1881  LLC: 2048
rand_sets[31]: 1881
Assign rand_sets[32]: 1770  LLC: 2048
rand_sets[32]: 1770
Assign rand_sets[33]: 1622  LLC: 2048
rand_sets[33]: 1622
Assign rand_sets[34]: 275  LLC: 2048
rand_sets[34]: 275
Assign rand_sets[35]: 635  LLC: 2048
rand_sets[35]: 635
Assign rand_sets[36]: 466  LLC: 2048
rand_sets[36]: 466
Assign rand_sets[37]: 1413  LLC: 2048
rand_sets[37]: 1413
Assign rand_sets[38]: 417  LLC: 2048
rand_sets[38]: 417
Assign rand_sets[39]: 472  LLC: 2048
rand_sets[39]: 472
Assign rand_sets[40]: 1340  LLC: 2048
rand_sets[40]: 1340
Assign rand_sets[41]: 852  LLC: 2048
rand_sets[41]: 852
Assign rand_sets[42]: 1365  LLC: 2048
rand_sets[42]: 1365
Assign rand_sets[43]: 47  LLC: 2048
rand_sets[43]: 47
Assign rand_sets[44]: 823  LLC: 2048
rand_sets[44]: 823
Assign rand_sets[45]: 686  LLC: 2048
rand_sets[45]: 686
Assign rand_sets[46]: 1637  LLC: 2048
rand_sets[46]: 1637
Assign rand_sets[47]: 1115  LLC: 2048
rand_sets[47]: 1115
Assign rand_sets[48]: 986  LLC: 2048
rand_sets[48]: 986
Assign rand_sets[49]: 258  LLC: 2048
rand_sets[49]: 258
Assign rand_sets[50]: 633  LLC: 2048
rand_sets[50]: 633
Assign rand_sets[51]: 920  LLC: 2048
rand_sets[51]: 920
Assign rand_sets[52]: 204  LLC: 2048
rand_sets[52]: 204
Assign rand_sets[53]: 227  LLC: 2048
rand_sets[53]: 227
Assign rand_sets[54]: 1818  LLC: 2048
rand_sets[54]: 1818
Assign rand_sets[55]: 886  LLC: 2048
rand_sets[55]: 886
Assign rand_sets[56]: 1422  LLC: 2048
rand_sets[56]: 1422
Assign rand_sets[57]: 607  LLC: 2048
rand_sets[57]: 607
Assign rand_sets[58]: 217  LLC: 2048
rand_sets[58]: 217
Assign rand_sets[59]: 1945  LLC: 2048
rand_sets[59]: 1945
Assign rand_sets[60]: 143  LLC: 2048
rand_sets[60]: 143
Assign rand_sets[61]: 1311  LLC: 2048
rand_sets[61]: 1311
Assign rand_sets[62]: 319  LLC: 2048
rand_sets[62]: 319
Assign rand_sets[63]: 1846  LLC: 2048
rand_sets[63]: 1846
 CLEAN-RRIP-POLICY-1: 2-2-1-3-2-2-0-2- CLEAN-RRIP-POLICY-2: 2-2-1-3-2-2-0-2-
 DIRTY-RRIP-POLICY-1: 2-2-0-3-1-2-0-2- DIRTY-RRIP-POLICY-2: 2-2-0-3-1-2-0-2-
 PSEL width: 10
Heartbeat CPU 0 instructions: 10000003 cycles: 4592598 heartbeat IPC: 2.17742 cumulative IPC: 2.17742 (Simulation time: 0 hr 0 min 15 sec) 
Heartbeat CPU 0 instructions: 20000000 cycles: 8984921 heartbeat IPC: 2.2767 cumulative IPC: 2.22595 (Simulation time: 0 hr 0 min 29 sec) 
Heartbeat CPU 0 instructions: 30000000 cycles: 13393832 heartbeat IPC: 2.26813 cumulative IPC: 2.23984 (Simulation time: 0 hr 0 min 44 sec) 
Heartbeat CPU 0 instructions: 40000000 cycles: 18022232 heartbeat IPC: 2.16057 cumulative IPC: 2.21948 (Simulation time: 0 hr 0 min 59 sec) 
Heartbeat CPU 0 instructions: 50000002 cycles: 22438472 heartbeat IPC: 2.26437 cumulative IPC: 2.22832 (Simulation time: 0 hr 1 min 14 sec) 
Heartbeat CPU 0 instructions: 60000000 cycles: 27093971 heartbeat IPC: 2.148 cumulative IPC: 2.21451 (Simulation time: 0 hr 1 min 30 sec) 
Heartbeat CPU 0 instructions: 70000003 cycles: 31498834 heartbeat IPC: 2.27022 cumulative IPC: 2.2223 (Simulation time: 0 hr 1 min 44 sec) 
Heartbeat CPU 0 instructions: 80000000 cycles: 35919330 heartbeat IPC: 2.26219 cumulative IPC: 2.22721 (Simulation time: 0 hr 1 min 59 sec) 
Heartbeat CPU 0 instructions: 90000002 cycles: 40374520 heartbeat IPC: 2.24457 cumulative IPC: 2.22913 (Simulation time: 0 hr 2 min 14 sec) 
Heartbeat CPU 0 instructions: 100000000 cycles: 44845962 heartbeat IPC: 2.23641 cumulative IPC: 2.22986 (Simulation time: 0 hr 2 min 28 sec) 

Warmup complete CPU 0 instructions: 100000003 cycles: 44845963 (Simulation time: 0 hr 2 min 28 sec) 

Heartbeat CPU 0 instructions: 110000000 cycles: 71852063 heartbeat IPC: 0.370287 cumulative IPC: 0.370287 (Simulation time: 0 hr 3 min 0 sec) 
Heartbeat CPU 0 instructions: 120000000 cycles: 100406010 heartbeat IPC: 0.350214 cumulative IPC: 0.359971 (Simulation time: 0 hr 3 min 34 sec) 
Heartbeat CPU 0 instructions: 130000000 cycles: 123817926 heartbeat IPC: 0.427133 cumulative IPC: 0.379882 (Simulation time: 0 hr 4 min 4 sec) 
Heartbeat CPU 0 instructions: 140000000 cycles: 146444162 heartbeat IPC: 0.441965 cumulative IPC: 0.393708 (Simulation time: 0 hr 4 min 33 sec) 
Heartbeat CPU 0 instructions: 150000000 cycles: 170822738 heartbeat IPC: 0.410196 cumulative IPC: 0.396899 (Simulation time: 0 hr 5 min 3 sec) 
Heartbeat CPU 0 instructions: 160000000 cycles: 195782555 heartbeat IPC: 0.400644 cumulative IPC: 0.397518 (Simulation time: 0 hr 5 min 34 sec) 
Heartbeat CPU 0 instructions: 170000002 cycles: 217144880 heartbeat IPC: 0.468114 cumulative IPC: 0.406271 (Simulation time: 0 hr 6 min 2 sec) 
Heartbeat CPU 0 instructions: 180000000 cycles: 239572351 heartbeat IPC: 0.445882 cumulative IPC: 0.410833 (Simulation time: 0 hr 6 min 31 sec) 
Heartbeat CPU 0 instructions: 190000000 cycles: 258511949 heartbeat IPC: 0.527994 cumulative IPC: 0.421218 (Simulation time: 0 hr 6 min 57 sec) 
Heartbeat CPU 0 instructions: 200000000 cycles: 279445075 heartbeat IPC: 0.477712 cumulative IPC: 0.426259 (Simulation time: 0 hr 7 min 25 sec) 
Heartbeat CPU 0 instructions: 210000001 cycles: 305877491 heartbeat IPC: 0.378323 cumulative IPC: 0.421405 (Simulation time: 0 hr 7 min 57 sec) 
Heartbeat CPU 0 instructions: 220000000 cycles: 331668108 heartbeat IPC: 0.387738 cumulative IPC: 0.418378 (Simulation time: 0 hr 8 min 28 sec) 
Heartbeat CPU 0 instructions: 230000000 cycles: 353972002 heartbeat IPC: 0.448352 cumulative IPC: 0.42054 (Simulation time: 0 hr 8 min 57 sec) 
Heartbeat CPU 0 instructions: 240000000 cycles: 379804405 heartbeat IPC: 0.387111 cumulative IPC: 0.417962 (Simulation time: 0 hr 9 min 28 sec) 
Heartbeat CPU 0 instructions: 250000001 cycles: 404769225 heartbeat IPC: 0.400564 cumulative IPC: 0.416755 (Simulation time: 0 hr 9 min 59 sec) 
Heartbeat CPU 0 instructions: 260000000 cycles: 425681524 heartbeat IPC: 0.478187 cumulative IPC: 0.420129 (Simulation time: 0 hr 10 min 27 sec) 
Heartbeat CPU 0 instructions: 270000000 cycles: 447194290 heartbeat IPC: 0.46484 cumulative IPC: 0.422519 (Simulation time: 0 hr 10 min 55 sec) 
Heartbeat CPU 0 instructions: 280000000 cycles: 475136293 heartbeat IPC: 0.357884 cumulative IPC: 0.418322 (Simulation time: 0 hr 11 min 28 sec) 
Heartbeat CPU 0 instructions: 290000000 cycles: 496217159 heartbeat IPC: 0.474364 cumulative IPC: 0.42094 (Simulation time: 0 hr 11 min 55 sec) 
Heartbeat CPU 0 instructions: 300000000 cycles: 516631006 heartbeat IPC: 0.489864 cumulative IPC: 0.423922 (Simulation time: 0 hr 12 min 23 sec) 
Heartbeat CPU 0 instructions: 310000000 cycles: 535767638 heartbeat IPC: 0.522558 cumulative IPC: 0.427767 (Simulation time: 0 hr 12 min 49 sec) 
Heartbeat CPU 0 instructions: 320000000 cycles: 565295445 heartbeat IPC: 0.338664 cumulative IPC: 0.422712 (Simulation time: 0 hr 13 min 22 sec) 
Heartbeat CPU 0 instructions: 330000001 cycles: 584700972 heartbeat IPC: 0.515317 cumulative IPC: 0.42604 (Simulation time: 0 hr 13 min 48 sec) 
Heartbeat CPU 0 instructions: 340000000 cycles: 603960593 heartbeat IPC: 0.519221 cumulative IPC: 0.42925 (Simulation time: 0 hr 14 min 14 sec) 
Heartbeat CPU 0 instructions: 350000001 cycles: 629204109 heartbeat IPC: 0.396141 cumulative IPC: 0.42782 (Simulation time: 0 hr 14 min 44 sec) 
Heartbeat CPU 0 instructions: 360000000 cycles: 651511563 heartbeat IPC: 0.448281 cumulative IPC: 0.428572 (Simulation time: 0 hr 15 min 12 sec) 
Heartbeat CPU 0 instructions: 370000001 cycles: 676645212 heartbeat IPC: 0.397873 cumulative IPC: 0.427351 (Simulation time: 0 hr 15 min 42 sec) 
Heartbeat CPU 0 instructions: 380000000 cycles: 699818656 heartbeat IPC: 0.431528 cumulative IPC: 0.427499 (Simulation time: 0 hr 16 min 11 sec) 
Heartbeat CPU 0 instructions: 390000000 cycles: 718585385 heartbeat IPC: 0.532858 cumulative IPC: 0.430433 (Simulation time: 0 hr 16 min 36 sec) 
Heartbeat CPU 0 instructions: 400000000 cycles: 738379203 heartbeat IPC: 0.505208 cumulative IPC: 0.432568 (Simulation time: 0 hr 17 min 2 sec) 
Heartbeat CPU 0 instructions: 410000001 cycles: 764691277 heartbeat IPC: 0.380054 cumulative IPC: 0.430648 (Simulation time: 0 hr 17 min 32 sec) 
Heartbeat CPU 0 instructions: 420000000 cycles: 789355737 heartbeat IPC: 0.405442 cumulative IPC: 0.429813 (Simulation time: 0 hr 18 min 1 sec) 
Heartbeat CPU 0 instructions: 430000002 cycles: 810514933 heartbeat IPC: 0.472608 cumulative IPC: 0.430996 (Simulation time: 0 hr 18 min 28 sec) 
Heartbeat CPU 0 instructions: 440000000 cycles: 830665875 heartbeat IPC: 0.496255 cumulative IPC: 0.432669 (Simulation time: 0 hr 18 min 54 sec) 
Heartbeat CPU 0 instructions: 450000002 cycles: 857528357 heartbeat IPC: 0.372267 cumulative IPC: 0.430673 (Simulation time: 0 hr 19 min 24 sec) 
Heartbeat CPU 0 instructions: 460000000 cycles: 883608013 heartbeat IPC: 0.383441 cumulative IPC: 0.429204 (Simulation time: 0 hr 19 min 54 sec) 
Heartbeat CPU 0 instructions: 470000002 cycles: 909593454 heartbeat IPC: 0.384831 cumulative IPC: 0.427871 (Simulation time: 0 hr 20 min 24 sec) 
Heartbeat CPU 0 instructions: 480000000 cycles: 933881948 heartbeat IPC: 0.411718 cumulative IPC: 0.427429 (Simulation time: 0 hr 20 min 52 sec) 
Heartbeat CPU 0 instructions: 490000000 cycles: 954720024 heartbeat IPC: 0.479891 cumulative IPC: 0.428631 (Simulation time: 0 hr 21 min 19 sec) 
Heartbeat CPU 0 instructions: 500000000 cycles: 979570711 heartbeat IPC: 0.402403 cumulative IPC: 0.427933 (Simulation time: 0 hr 21 min 48 sec) 
Heartbeat CPU 0 instructions: 510000000 cycles: 1004618004 heartbeat IPC: 0.399245 cumulative IPC: 0.427185 (Simulation time: 0 hr 22 min 17 sec) 
Heartbeat CPU 0 instructions: 520000000 cycles: 1025619626 heartbeat IPC: 0.476154 cumulative IPC: 0.428233 (Simulation time: 0 hr 22 min 43 sec) 
Heartbeat CPU 0 instructions: 530000003 cycles: 1051339450 heartbeat IPC: 0.388805 cumulative IPC: 0.427226 (Simulation time: 0 hr 23 min 13 sec) 
Heartbeat CPU 0 instructions: 540000000 cycles: 1074311028 heartbeat IPC: 0.43532 cumulative IPC: 0.427406 (Simulation time: 0 hr 23 min 41 sec) 
Heartbeat CPU 0 instructions: 550000000 cycles: 1099891082 heartbeat IPC: 0.39093 cumulative IPC: 0.426522 (Simulation time: 0 hr 24 min 10 sec) 
Heartbeat CPU 0 instructions: 560000000 cycles: 1122977165 heartbeat IPC: 0.433161 cumulative IPC: 0.426664 (Simulation time: 0 hr 24 min 38 sec) 
Heartbeat CPU 0 instructions: 570000002 cycles: 1146436143 heartbeat IPC: 0.426276 cumulative IPC: 0.426656 (Simulation time: 0 hr 25 min 6 sec) 
Heartbeat CPU 0 instructions: 580000000 cycles: 1167338885 heartbeat IPC: 0.478406 cumulative IPC: 0.42762 (Simulation time: 0 hr 25 min 32 sec) 
Heartbeat CPU 0 instructions: 590000001 cycles: 1191291592 heartbeat IPC: 0.417489 cumulative IPC: 0.427408 (Simulation time: 0 hr 26 min 1 sec) 
Heartbeat CPU 0 instructions: 600000000 cycles: 1210420722 heartbeat IPC: 0.522763 cumulative IPC: 0.428973 (Simulation time: 0 hr 26 min 26 sec) 
Finished CPU 0 instructions: 500000000 cycles: 1165574780 cumulative IPC: 0.428973 (Simulation time: 0 hr 26 min 26 sec) 

CPU 0 Branch Prediction Accuracy: 99.5434% MPKI: 1.33026
Number of Branches: 145676990 Number of Mispredictions: 665128
Number of LOAD Instructions: 188863207
Number of LOAD Instructions (ROI): 188863207
Number of STORE Instructions: 7332002
Number of STORE Instructions (ROI): 7332002
Total Destination Memory Operands: 10029285
Total Destination Memory Operands (ROI): 10029285
Total Source Memory Operands: 188863207
Total Source Memory Operands (ROI): 188863207
Number of DEPENDED LOADS: 290304
Number of DEPENDED LOADS (ROI): 290304
Number of SQ_ADDED: 10029285
Number of SQ_ADDED (ROI): 10029285
Number of LQ_ADDED: 200537314
Number of LQ_ADDED (ROI): 200537314
Number of Instructions read from trace: 600000010

ChampSim completed all CPUs

Region of Interest Statistics

CPU 0 cumulative IPC: 0.428973 instructions: 500000000 cycles: 1165574780
ITLB TOTAL     ACCESS:  145827354  HIT:  145787827  MISS:      39527
ITLB LOAD      ACCESS:  145827354  HIT:  145787827  MISS:      39527
ITLB RFO       ACCESS:          0  HIT:          0  MISS:          0
ITLB PREFETCH  ACCESS:          0  HIT:          0  MISS:          0
ITLB WRITEBACK ACCESS:          0  HIT:          0  MISS:          0
ITLB PREFETCH  REQUESTED:          0  ISSUED:          0  USEFUL:          0  USELESS:          0
ITLB TOTAL MSHR MERGED:      57360
ITLB LOAD MSHR MERGED:      57360
ITLB RFO MSHR MERGED:          0
ITLB PREFETCH MSHR MERGED:          0
ITLB WRITEBACK MSHR MERGED:          0
ITLB TOTAL ACCESSES:  145884714 HITS:  145787827 MISSES:      96887
ITLB LOAD ACCESSES:  145884714 HITS:  145787827 MISSES:      96887
ITLB RFO ACCESSES:          0 HITS:          0 MISSES:          0
ITLB PREFETCH ACCESSES:          0 HITS:          0 MISSES:          0
ITLB WRITEBACK ACCESSES:          0 HITS:          0 MISSES:          0
ITLB RQ ACCESS:  499999754
ITLB RQ TO_CACHE:  145884714
ITLB RQ MERGED:  354115040
ITLB RQ FORWARD:          0
ITLB WQ ACCESS:          0
ITLB WQ TO_CACHE:          0
ITLB WQ MERGED:          0
ITLB WQ FORWARD:          0
DTLB TOTAL     ACCESS:  135199775  HIT:  134031416  MISS:    1168359
DTLB LOAD      ACCESS:  127158968  HIT:  125999716  MISS:    1159252
DTLB RFO       ACCESS:    8040807  HIT:    8031700  MISS:       9107
DTLB PREFETCH  ACCESS:          0  HIT:          0  MISS:          0
DTLB WRITEBACK ACCESS:          0  HIT:          0  MISS:          0
DTLB PREFETCH  REQUESTED:          0  ISSUED:          0  USEFUL:          0  USELESS:          0
DTLB TOTAL MSHR MERGED:     578987
DTLB LOAD MSHR MERGED:     574610
DTLB RFO MSHR MERGED:       4377
DTLB PREFETCH MSHR MERGED:          0
DTLB WRITEBACK MSHR MERGED:          0
DTLB TOTAL ACCESSES:  135778762 HITS:  134031416 MISSES:    1747346
DTLB LOAD ACCESSES:  127733578 HITS:  125999716 MISSES:    1733862
DTLB RFO ACCESSES:    8045184 HITS:    8031700 MISSES:      13484
DTLB PREFETCH ACCESSES:          0 HITS:          0 MISSES:          0
DTLB WRITEBACK ACCESSES:          0 HITS:          0 MISSES:          0
DTLB RQ ACCESS:  165764036
DTLB RQ TO_CACHE:  135778762
DTLB RQ MERGED:   29985274
DTLB RQ FORWARD:          0
DTLB WQ ACCESS:          0
DTLB WQ TO_CACHE:          0
DTLB WQ MERGED:          0
DTLB WQ FORWARD:          0
L1D TOTAL     ACCESS:  157093265  HIT:  139777568  MISS:   17315697
L1D LOAD      ACCESS:   90004806  HIT:   78869106  MISS:   11135700
L1D RFO       ACCESS:    8501542  HIT:    8414413  MISS:      87129
L1D PREFETCH  ACCESS:   58586917  HIT:   52494049  MISS:    6092868
L1D WRITEBACK ACCESS:          0  HIT:          0  MISS:          0
L1D PREFETCH  REQUESTED:   93721294  ISSUED:   92853594  USEFUL:    2011466  USELESS:    4081475
L1D TOTAL MSHR MERGED:   14973321
L1D LOAD MSHR MERGED:    7108720
L1D RFO MSHR MERGED:     122800
L1D PREFETCH MSHR MERGED:    7741801
L1D WRITEBACK MSHR MERGED:          0
L1D TOTAL ACCESSES:  172066738 HITS:  139777720 MISSES:   32289018
L1D LOAD ACCESSES:   93721296 HITS:   78869108 MISSES:   14852188
L1D RFO ACCESSES:    8622539 HITS:    8414413 MISSES:     208126
L1D PREFETCH ACCESSES:   69722903 HITS:   52494199 MISSES:   17228704
L1D WRITEBACK ACCESSES:          0 HITS:          0 MISSES:          0
L1D RQ ACCESS:  157124830
L1D RQ TO_CACHE:   93721294
L1D RQ MERGED:   63403534
L1D RQ FORWARD:          0
L1D WQ ACCESS:    8639208
L1D WQ TO_CACHE:    8622539
L1D WQ MERGED:      16669
L1D WQ FORWARD:        152
L1I TOTAL     ACCESS:  178808901  HIT:  178145230  MISS:     663671
L1I LOAD      ACCESS:  178808901  HIT:  178145230  MISS:     663671
L1I RFO       ACCESS:          0  HIT:          0  MISS:          0
L1I PREFETCH  ACCESS:          0  HIT:          0  MISS:          0
L1I WRITEBACK ACCESS:          0  HIT:          0  MISS:          0
L1I PREFETCH  REQUESTED:          0  ISSUED:          0  USEFUL:          0  USELESS:          0
L1I TOTAL MSHR MERGED:     596558
L1I LOAD MSHR MERGED:     596558
L1I RFO MSHR MERGED:          0
L1I PREFETCH MSHR MERGED:          0
L1I WRITEBACK MSHR MERGED:          0
L1I TOTAL ACCESSES:  179405459 HITS:  178145230 MISSES:    1260229
L1I LOAD ACCESSES:  179405459 HITS:  178145230 MISSES:    1260229
L1I RFO ACCESSES:          0 HITS:          0 MISSES:          0
L1I PREFETCH ACCESSES:          0 HITS:          0 MISSES:          0
L1I WRITEBACK ACCESSES:          0 HITS:          0 MISSES:          0
L1I RQ ACCESS:  499999757
L1I RQ TO_CACHE:  179405459
L1I RQ MERGED:  320594298
L1I RQ FORWARD:          0
L1I WQ ACCESS:          0
L1I WQ TO_CACHE:          0
L1I WQ MERGED:          0
L1I WQ FORWARD:          0
L2C TOTAL     ACCESS:   19277895  HIT:    2058122  MISS:   17219773
L2C LOAD      ACCESS:    8407034  HIT:     951488  MISS:    7455546
L2C RFO       ACCESS:      85303  HIT:      53743  MISS:      31560
L2C PREFETCH  ACCESS:   10500523  HIT:     770667  MISS:    9729856
L2C WRITEBACK ACCESS:     285035  HIT:     282224  MISS:       2811
L2C PREFETCH  REQUESTED:    1018016  ISSUED:    1018016  USEFUL:     275068  USELESS:    9453882
L2C TOTAL MSHR MERGED:        974
L2C LOAD MSHR MERGED:        208
L2C RFO MSHR MERGED:          1
L2C PREFETCH MSHR MERGED:        765
L2C WRITEBACK MSHR MERGED:          0
L2C TOTAL ACCESSES:   19281165 HITS:    2058316 MISSES:   17222849
L2C LOAD ACCESSES:    8407139 HITS:     951593 MISSES:    7455546
L2C RFO ACCESSES:      85326 HITS:      53766 MISSES:      31560
L2C PREFETCH ACCESSES:   10503665 HITS:     770733 MISSES:    9732932
L2C WRITEBACK ACCESSES:     285035 HITS:     282224 MISSES:       2811
L2C RQ ACCESS:    8492465
L2C RQ TO_CACHE:    8492337
L2C RQ MERGED:          0
L2C RQ FORWARD:          0
L2C WQ ACCESS:     285035
L2C WQ TO_CACHE:     285035
L2C WQ MERGED:          0
L2C WQ FORWARD:        194
LLC TOTAL     ACCESS:   17325119  HIT:    4956619  MISS:   12368500
LLC LOAD      ACCESS:    7455338  HIT:    3903899  MISS:    3551439
LLC RFO       ACCESS:      31559  HIT:      20333  MISS:      11226
LLC PREFETCH  ACCESS:    9732164  HIT:     935114  MISS:    8797050
LLC WRITEBACK ACCESS:     106058  HIT:      97273  MISS:       8785
LLC PREFETCH  REQUESTED:          0  ISSUED:          0  USEFUL:       2144  USELESS:    8794157
LLC TOTAL MSHR MERGED:          3
LLC LOAD MSHR MERGED:          0
LLC RFO MSHR MERGED:          0
LLC PREFETCH MSHR MERGED:          3
LLC WRITEBACK MSHR MERGED:          0
LLC TOTAL ACCESSES:   17325122 HITS:    4956619 MISSES:   12368503
LLC LOAD ACCESSES:    7455338 HITS:    3903899 MISSES:    3551439
LLC RFO ACCESSES:      31559 HITS:      20333 MISSES:      11226
LLC PREFETCH ACCESSES:    9732167 HITS:     935114 MISSES:    8797053
LLC WRITEBACK ACCESSES:     106058 HITS:      97273 MISSES:       8785
LLC 0 RQ ACCESS:    7486897
LLC 0 RQ TO_CACHE:    7486897
LLC 0 RQ MERGED:          0
LLC 0 RQ FORWARD:          0
LLC WQ ACCESS:     106058
LLC WQ TO_CACHE:     106058
LLC WQ MERGED:          0
LLC WQ FORWARD:          0
Major fault: 0 Minor fault: 6432
CPU 0 L1D next line prefetcher final stats
CPU 0 L2C PC-based stride prefetcher final stats
All Misses: 14599055
All Hits: 5945699
SD Algo Stats - Switches: 0 SRR-Repls: 3797552 BRR-Repls: 0

DRAM Statistics
 CHANNEL 0
 RQ ROW_BUFFER_HIT:    9352369  ROW_BUFFER_MISS:    3003170
 DBUS_CONGESTED:    5791682
 WQ ROW_BUFFER_HIT:       1024  ROW_BUFFER_MISS:      29925  FULL:          0

 AVG_CONGESTED_CYCLE: 12
LOADS RETIRED: 157382665
INSTR RETIRED: 500000000
