
*** ChampSim Multicore Out-of-Order Simulator ***

Warmup Instructions: 100000000
Simulation Instructions: 500000000
Number of CPUs: 1
LLC sets: 2048
LLC ways: 16
Clean RRIP Policies: 1122102311221023 Dirty RRIP Policies: 2112201321122013 PSEL Width: 10 Track Set: 4294967295 PSEL Mask: 1 Demote Mask: 3430144334301443DS Algo: 0Window size: 0
Off-chip DRAM Size: 4096 MB Channels: 1 Width: 64-bit Data Rate: 1600 MT/s

CPU 0 runs /mnt/beegfs/iconst01/spec2017/Gcc.trace.gz
NOT SORTED
TRACE STRING: /mnt/beegfs/iconst01/spec2017/Gcc.trace.gz
SORTED
TRACE STRING: /mnt/beegfs/iconst01/spec2017/Gcc.trace.gz
INITIAL
TRACE STRING: /mnt/beegfs/iconst01/spec2017/Gcc.trace.gz

champsim_seed used: 269

CPU 0 L1D next line prefetcher
CPU 0 L2C IP-based stride prefetcher
Initialize DRRIP state
Assign rand_sets[0]: 454  LLC: 2048
rand_sets[0]: 454
Assign rand_sets[1]: 1662  LLC: 2048
rand_sets[1]: 1662
Assign rand_sets[2]: 1921  LLC: 2048
rand_sets[2]: 1921
Assign rand_sets[3]: 1131  LLC: 2048
rand_sets[3]: 1131
Assign rand_sets[4]: 331  LLC: 2048
rand_sets[4]: 331
Assign rand_sets[5]: 1531  LLC: 2048
rand_sets[5]: 1531
Assign rand_sets[6]: 482  LLC: 2048
rand_sets[6]: 482
Assign rand_sets[7]: 1275  LLC: 2048
rand_sets[7]: 1275
Assign rand_sets[8]: 1876  LLC: 2048
rand_sets[8]: 1876
Assign rand_sets[9]: 2038  LLC: 2048
rand_sets[9]: 2038
Assign rand_sets[10]: 701  LLC: 2048
rand_sets[10]: 701
Assign rand_sets[11]: 479  LLC: 2048
rand_sets[11]: 479
Assign rand_sets[12]: 892  LLC: 2048
rand_sets[12]: 892
Assign rand_sets[13]: 1820  LLC: 2048
rand_sets[13]: 1820
Assign rand_sets[14]: 1505  LLC: 2048
rand_sets[14]: 1505
Assign rand_sets[15]: 1159  LLC: 2048
rand_sets[15]: 1159
Assign rand_sets[16]: 513  LLC: 2048
rand_sets[16]: 513
Assign rand_sets[17]: 703  LLC: 2048
rand_sets[17]: 703
Assign rand_sets[18]: 561  LLC: 2048
rand_sets[18]: 561
Assign rand_sets[19]: 990  LLC: 2048
rand_sets[19]: 990
Assign rand_sets[20]: 342  LLC: 2048
rand_sets[20]: 342
Assign rand_sets[21]: 882  LLC: 2048
rand_sets[21]: 882
Assign rand_sets[22]: 15  LLC: 2048
rand_sets[22]: 15
Assign rand_sets[23]: 71  LLC: 2048
rand_sets[23]: 71
Assign rand_sets[24]: 1127  LLC: 2048
rand_sets[24]: 1127
Assign rand_sets[25]: 1382  LLC: 2048
rand_sets[25]: 1382
Assign rand_sets[26]: 647  LLC: 2048
rand_sets[26]: 647
Assign rand_sets[27]: 857  LLC: 2048
rand_sets[27]: 857
Assign rand_sets[28]: 1450  LLC: 2048
rand_sets[28]: 1450
Assign rand_sets[29]: 1160  LLC: 2048
rand_sets[29]: 1160
Assign rand_sets[30]: 1852  LLC: 2048
rand_sets[30]: 1852
Assign rand_sets[31]: 1881  LLC: 2048
rand_sets[31]: 1881
Assign rand_sets[32]: 1770  LLC: 2048
rand_sets[32]: 1770
Assign rand_sets[33]: 1622  LLC: 2048
rand_sets[33]: 1622
Assign rand_sets[34]: 275  LLC: 2048
rand_sets[34]: 275
Assign rand_sets[35]: 635  LLC: 2048
rand_sets[35]: 635
Assign rand_sets[36]: 466  LLC: 2048
rand_sets[36]: 466
Assign rand_sets[37]: 1413  LLC: 2048
rand_sets[37]: 1413
Assign rand_sets[38]: 417  LLC: 2048
rand_sets[38]: 417
Assign rand_sets[39]: 472  LLC: 2048
rand_sets[39]: 472
Assign rand_sets[40]: 1340  LLC: 2048
rand_sets[40]: 1340
Assign rand_sets[41]: 852  LLC: 2048
rand_sets[41]: 852
Assign rand_sets[42]: 1365  LLC: 2048
rand_sets[42]: 1365
Assign rand_sets[43]: 47  LLC: 2048
rand_sets[43]: 47
Assign rand_sets[44]: 823  LLC: 2048
rand_sets[44]: 823
Assign rand_sets[45]: 686  LLC: 2048
rand_sets[45]: 686
Assign rand_sets[46]: 1637  LLC: 2048
rand_sets[46]: 1637
Assign rand_sets[47]: 1115  LLC: 2048
rand_sets[47]: 1115
Assign rand_sets[48]: 986  LLC: 2048
rand_sets[48]: 986
Assign rand_sets[49]: 258  LLC: 2048
rand_sets[49]: 258
Assign rand_sets[50]: 633  LLC: 2048
rand_sets[50]: 633
Assign rand_sets[51]: 920  LLC: 2048
rand_sets[51]: 920
Assign rand_sets[52]: 204  LLC: 2048
rand_sets[52]: 204
Assign rand_sets[53]: 227  LLC: 2048
rand_sets[53]: 227
Assign rand_sets[54]: 1818  LLC: 2048
rand_sets[54]: 1818
Assign rand_sets[55]: 886  LLC: 2048
rand_sets[55]: 886
Assign rand_sets[56]: 1422  LLC: 2048
rand_sets[56]: 1422
Assign rand_sets[57]: 607  LLC: 2048
rand_sets[57]: 607
Assign rand_sets[58]: 217  LLC: 2048
rand_sets[58]: 217
Assign rand_sets[59]: 1945  LLC: 2048
rand_sets[59]: 1945
Assign rand_sets[60]: 143  LLC: 2048
rand_sets[60]: 143
Assign rand_sets[61]: 1311  LLC: 2048
rand_sets[61]: 1311
Assign rand_sets[62]: 319  LLC: 2048
rand_sets[62]: 319
Assign rand_sets[63]: 1846  LLC: 2048
rand_sets[63]: 1846
 CLEAN-RRIP-POLICY-1: 1-1-2-2-1-0-2-3- CLEAN-RRIP-POLICY-2: 1-1-2-2-1-0-2-3-
 DIRTY-RRIP-POLICY-1: 2-1-1-2-2-0-1-3- DIRTY-RRIP-POLICY-2: 2-1-1-2-2-0-1-3-
 PSEL width: 10
Heartbeat CPU 0 instructions: 10000001 cycles: 7320815 heartbeat IPC: 1.36597 cumulative IPC: 1.36597 (Simulation time: 0 hr 0 min 15 sec) 
Heartbeat CPU 0 instructions: 20000000 cycles: 14325320 heartbeat IPC: 1.42765 cumulative IPC: 1.39613 (Simulation time: 0 hr 0 min 29 sec) 
Heartbeat CPU 0 instructions: 30000001 cycles: 21041705 heartbeat IPC: 1.4889 cumulative IPC: 1.42574 (Simulation time: 0 hr 0 min 45 sec) 
Heartbeat CPU 0 instructions: 40000000 cycles: 27503529 heartbeat IPC: 1.54755 cumulative IPC: 1.45436 (Simulation time: 0 hr 1 min 2 sec) 
Heartbeat CPU 0 instructions: 50000001 cycles: 33606344 heartbeat IPC: 1.63859 cumulative IPC: 1.48781 (Simulation time: 0 hr 1 min 17 sec) 
Heartbeat CPU 0 instructions: 60000000 cycles: 40088548 heartbeat IPC: 1.54269 cumulative IPC: 1.49669 (Simulation time: 0 hr 1 min 33 sec) 
Heartbeat CPU 0 instructions: 70000000 cycles: 47131460 heartbeat IPC: 1.41987 cumulative IPC: 1.48521 (Simulation time: 0 hr 1 min 48 sec) 
Heartbeat CPU 0 instructions: 80000000 cycles: 54226509 heartbeat IPC: 1.40943 cumulative IPC: 1.47529 (Simulation time: 0 hr 2 min 3 sec) 
Heartbeat CPU 0 instructions: 90000003 cycles: 61236438 heartbeat IPC: 1.42655 cumulative IPC: 1.46971 (Simulation time: 0 hr 2 min 18 sec) 
Heartbeat CPU 0 instructions: 100000000 cycles: 68409071 heartbeat IPC: 1.39419 cumulative IPC: 1.46179 (Simulation time: 0 hr 2 min 32 sec) 

Warmup complete CPU 0 instructions: 100000004 cycles: 68409072 (Simulation time: 0 hr 2 min 32 sec) 

Heartbeat CPU 0 instructions: 110000003 cycles: 96844685 heartbeat IPC: 0.351672 cumulative IPC: 0.351672 (Simulation time: 0 hr 3 min 1 sec) 
Heartbeat CPU 0 instructions: 120000000 cycles: 124574070 heartbeat IPC: 0.360628 cumulative IPC: 0.356094 (Simulation time: 0 hr 3 min 30 sec) 
Heartbeat CPU 0 instructions: 130000000 cycles: 149860155 heartbeat IPC: 0.395474 cumulative IPC: 0.368319 (Simulation time: 0 hr 3 min 58 sec) 
Heartbeat CPU 0 instructions: 140000000 cycles: 180880314 heartbeat IPC: 0.322371 cumulative IPC: 0.355646 (Simulation time: 0 hr 4 min 27 sec) 
Heartbeat CPU 0 instructions: 150000000 cycles: 211718523 heartbeat IPC: 0.324273 cumulative IPC: 0.348895 (Simulation time: 0 hr 4 min 55 sec) 
Heartbeat CPU 0 instructions: 160000000 cycles: 239475639 heartbeat IPC: 0.360268 cumulative IPC: 0.350741 (Simulation time: 0 hr 5 min 23 sec) 
Heartbeat CPU 0 instructions: 170000001 cycles: 267921461 heartbeat IPC: 0.351546 cumulative IPC: 0.350855 (Simulation time: 0 hr 5 min 53 sec) 
Heartbeat CPU 0 instructions: 180000000 cycles: 296821821 heartbeat IPC: 0.346016 cumulative IPC: 0.350243 (Simulation time: 0 hr 6 min 22 sec) 
Heartbeat CPU 0 instructions: 190000002 cycles: 325431193 heartbeat IPC: 0.349536 cumulative IPC: 0.350164 (Simulation time: 0 hr 6 min 50 sec) 
Heartbeat CPU 0 instructions: 200000000 cycles: 354305319 heartbeat IPC: 0.346331 cumulative IPC: 0.349777 (Simulation time: 0 hr 7 min 20 sec) 
Heartbeat CPU 0 instructions: 210000002 cycles: 382720662 heartbeat IPC: 0.351923 cumulative IPC: 0.349971 (Simulation time: 0 hr 7 min 48 sec) 
Heartbeat CPU 0 instructions: 220000000 cycles: 413216708 heartbeat IPC: 0.327911 cumulative IPC: 0.34802 (Simulation time: 0 hr 8 min 16 sec) 
Heartbeat CPU 0 instructions: 230000000 cycles: 441401648 heartbeat IPC: 0.354799 cumulative IPC: 0.348532 (Simulation time: 0 hr 8 min 44 sec) 
Heartbeat CPU 0 instructions: 240000000 cycles: 467903665 heartbeat IPC: 0.37733 cumulative IPC: 0.350443 (Simulation time: 0 hr 9 min 11 sec) 
Heartbeat CPU 0 instructions: 250000000 cycles: 498269791 heartbeat IPC: 0.329314 cumulative IPC: 0.34895 (Simulation time: 0 hr 9 min 41 sec) 
Heartbeat CPU 0 instructions: 260000000 cycles: 525647605 heartbeat IPC: 0.365259 cumulative IPC: 0.349927 (Simulation time: 0 hr 10 min 9 sec) 
Heartbeat CPU 0 instructions: 270000003 cycles: 554434284 heartbeat IPC: 0.347383 cumulative IPC: 0.349776 (Simulation time: 0 hr 10 min 39 sec) 
Heartbeat CPU 0 instructions: 280000000 cycles: 582992640 heartbeat IPC: 0.35016 cumulative IPC: 0.349797 (Simulation time: 0 hr 11 min 8 sec) 
Heartbeat CPU 0 instructions: 290000000 cycles: 612276416 heartbeat IPC: 0.341486 cumulative IPC: 0.34935 (Simulation time: 0 hr 11 min 38 sec) 
Heartbeat CPU 0 instructions: 300000000 cycles: 643226937 heartbeat IPC: 0.323096 cumulative IPC: 0.347936 (Simulation time: 0 hr 12 min 7 sec) 
Heartbeat CPU 0 instructions: 310000001 cycles: 673368094 heartbeat IPC: 0.331772 cumulative IPC: 0.347131 (Simulation time: 0 hr 12 min 35 sec) 
Heartbeat CPU 0 instructions: 320000000 cycles: 702479893 heartbeat IPC: 0.343503 cumulative IPC: 0.346964 (Simulation time: 0 hr 13 min 3 sec) 
Heartbeat CPU 0 instructions: 330000000 cycles: 731762157 heartbeat IPC: 0.341504 cumulative IPC: 0.346723 (Simulation time: 0 hr 13 min 32 sec) 
Heartbeat CPU 0 instructions: 340000000 cycles: 761779254 heartbeat IPC: 0.333143 cumulative IPC: 0.346135 (Simulation time: 0 hr 14 min 0 sec) 
Heartbeat CPU 0 instructions: 350000003 cycles: 789305569 heartbeat IPC: 0.363289 cumulative IPC: 0.34679 (Simulation time: 0 hr 14 min 28 sec) 
Heartbeat CPU 0 instructions: 360000000 cycles: 819867999 heartbeat IPC: 0.327199 cumulative IPC: 0.345994 (Simulation time: 0 hr 14 min 56 sec) 
Heartbeat CPU 0 instructions: 370000000 cycles: 850536865 heartbeat IPC: 0.326064 cumulative IPC: 0.345212 (Simulation time: 0 hr 15 min 24 sec) 
Heartbeat CPU 0 instructions: 380000000 cycles: 881615222 heartbeat IPC: 0.321767 cumulative IPC: 0.344316 (Simulation time: 0 hr 15 min 52 sec) 
Heartbeat CPU 0 instructions: 390000001 cycles: 911822509 heartbeat IPC: 0.331046 cumulative IPC: 0.343841 (Simulation time: 0 hr 16 min 20 sec) 
Heartbeat CPU 0 instructions: 400000000 cycles: 942934477 heartbeat IPC: 0.32142 cumulative IPC: 0.343043 (Simulation time: 0 hr 16 min 49 sec) 
Heartbeat CPU 0 instructions: 410000001 cycles: 972887317 heartbeat IPC: 0.333858 cumulative IPC: 0.342739 (Simulation time: 0 hr 17 min 17 sec) 
Heartbeat CPU 0 instructions: 420000000 cycles: 1002862230 heartbeat IPC: 0.333612 cumulative IPC: 0.342446 (Simulation time: 0 hr 17 min 44 sec) 
Heartbeat CPU 0 instructions: 430000002 cycles: 1033232073 heartbeat IPC: 0.329274 cumulative IPC: 0.342032 (Simulation time: 0 hr 18 min 13 sec) 
Heartbeat CPU 0 instructions: 440000000 cycles: 1064770296 heartbeat IPC: 0.317075 cumulative IPC: 0.341242 (Simulation time: 0 hr 18 min 41 sec) 
Heartbeat CPU 0 instructions: 450000002 cycles: 1096152181 heartbeat IPC: 0.318655 cumulative IPC: 0.340552 (Simulation time: 0 hr 19 min 9 sec) 
Heartbeat CPU 0 instructions: 460000000 cycles: 1126436923 heartbeat IPC: 0.330199 cumulative IPC: 0.340256 (Simulation time: 0 hr 19 min 37 sec) 
Heartbeat CPU 0 instructions: 470000000 cycles: 1156378021 heartbeat IPC: 0.333989 cumulative IPC: 0.340083 (Simulation time: 0 hr 20 min 5 sec) 
Heartbeat CPU 0 instructions: 480000000 cycles: 1186557898 heartbeat IPC: 0.331347 cumulative IPC: 0.339847 (Simulation time: 0 hr 20 min 33 sec) 
Heartbeat CPU 0 instructions: 490000000 cycles: 1216473053 heartbeat IPC: 0.334279 cumulative IPC: 0.339702 (Simulation time: 0 hr 21 min 1 sec) 
Heartbeat CPU 0 instructions: 500000000 cycles: 1246791838 heartbeat IPC: 0.329829 cumulative IPC: 0.339448 (Simulation time: 0 hr 21 min 29 sec) 
Heartbeat CPU 0 instructions: 510000000 cycles: 1282052904 heartbeat IPC: 0.283599 cumulative IPC: 0.337826 (Simulation time: 0 hr 22 min 0 sec) 
Heartbeat CPU 0 instructions: 520000000 cycles: 1310286338 heartbeat IPC: 0.35419 cumulative IPC: 0.338198 (Simulation time: 0 hr 22 min 28 sec) 
Heartbeat CPU 0 instructions: 530000001 cycles: 1340806670 heartbeat IPC: 0.32765 cumulative IPC: 0.337945 (Simulation time: 0 hr 22 min 57 sec) 
Heartbeat CPU 0 instructions: 540000000 cycles: 1369826753 heartbeat IPC: 0.344589 cumulative IPC: 0.338093 (Simulation time: 0 hr 23 min 26 sec) 
Heartbeat CPU 0 instructions: 550000001 cycles: 1399343884 heartbeat IPC: 0.338786 cumulative IPC: 0.338108 (Simulation time: 0 hr 23 min 55 sec) 
Heartbeat CPU 0 instructions: 560000000 cycles: 1425167146 heartbeat IPC: 0.387248 cumulative IPC: 0.339043 (Simulation time: 0 hr 24 min 23 sec) 
Heartbeat CPU 0 instructions: 570000000 cycles: 1455527161 heartbeat IPC: 0.329381 cumulative IPC: 0.338832 (Simulation time: 0 hr 24 min 52 sec) 
Heartbeat CPU 0 instructions: 580000000 cycles: 1484320896 heartbeat IPC: 0.347298 cumulative IPC: 0.339004 (Simulation time: 0 hr 25 min 21 sec) 
Heartbeat CPU 0 instructions: 590000001 cycles: 1509782256 heartbeat IPC: 0.392752 cumulative IPC: 0.339954 (Simulation time: 0 hr 25 min 48 sec) 
Heartbeat CPU 0 instructions: 600000000 cycles: 1537293406 heartbeat IPC: 0.363489 cumulative IPC: 0.340394 (Simulation time: 0 hr 26 min 17 sec) 
Finished CPU 0 instructions: 500000000 cycles: 1468884356 cumulative IPC: 0.340394 (Simulation time: 0 hr 26 min 17 sec) 

CPU 0 Branch Prediction Accuracy: 86.4311% MPKI: 26.2662
Number of Branches: 96788573 Number of Mispredictions: 13133102
Number of LOAD Instructions: 164682285
Number of LOAD Instructions (ROI): 164682285
Number of STORE Instructions: 78194750
Number of STORE Instructions (ROI): 78194750
Total Destination Memory Operands: 83268534
Total Destination Memory Operands (ROI): 83268534
Total Source Memory Operands: 164712438
Total Source Memory Operands (ROI): 164712438
Number of DEPENDED LOADS: 7066593
Number of DEPENDED LOADS (ROI): 7066593
Number of SQ_ADDED: 83268522
Number of SQ_ADDED (ROI): 83268522
Number of LQ_ADDED: 236360193
Number of LQ_ADDED (ROI): 236360193
Number of Instructions read from trace: 600000066

ChampSim completed all CPUs

Region of Interest Statistics

CPU 0 cumulative IPC: 0.340394 instructions: 500000000 cycles: 1468884356
ITLB TOTAL     ACCESS:  100505112  HIT:  100300666  MISS:     204446
ITLB LOAD      ACCESS:  100505112  HIT:  100300666  MISS:     204446
ITLB RFO       ACCESS:          0  HIT:          0  MISS:          0
ITLB PREFETCH  ACCESS:          0  HIT:          0  MISS:          0
ITLB WRITEBACK ACCESS:          0  HIT:          0  MISS:          0
ITLB PREFETCH  REQUESTED:          0  ISSUED:          0  USEFUL:          0  USELESS:          0
ITLB TOTAL MSHR MERGED:     172423
ITLB LOAD MSHR MERGED:     172423
ITLB RFO MSHR MERGED:          0
ITLB PREFETCH MSHR MERGED:          0
ITLB WRITEBACK MSHR MERGED:          0
ITLB TOTAL ACCESSES:  100677535 HITS:  100300666 MISSES:     376869
ITLB LOAD ACCESSES:  100677535 HITS:  100300666 MISSES:     376869
ITLB RFO ACCESSES:          0 HITS:          0 MISSES:          0
ITLB PREFETCH ACCESSES:          0 HITS:          0 MISSES:          0
ITLB WRITEBACK ACCESSES:          0 HITS:          0 MISSES:          0
ITLB RQ ACCESS:  500000057
ITLB RQ TO_CACHE:  100677535
ITLB RQ MERGED:  399322522
ITLB RQ FORWARD:          0
ITLB WQ ACCESS:          0
ITLB WQ TO_CACHE:          0
ITLB WQ MERGED:          0
ITLB WQ FORWARD:          0
DTLB TOTAL     ACCESS:  165341950  HIT:  164707598  MISS:     634352
DTLB LOAD      ACCESS:  106294206  HIT:  105724170  MISS:     570036
DTLB RFO       ACCESS:   59047744  HIT:   58983428  MISS:      64316
DTLB PREFETCH  ACCESS:          0  HIT:          0  MISS:          0
DTLB WRITEBACK ACCESS:          0  HIT:          0  MISS:          0
DTLB PREFETCH  REQUESTED:          0  ISSUED:          0  USEFUL:          0  USELESS:          0
DTLB TOTAL MSHR MERGED:      99522
DTLB LOAD MSHR MERGED:      59275
DTLB RFO MSHR MERGED:      40247
DTLB PREFETCH MSHR MERGED:          0
DTLB WRITEBACK MSHR MERGED:          0
DTLB TOTAL ACCESSES:  165441472 HITS:  164707598 MISSES:     733874
DTLB LOAD ACCESSES:  106353481 HITS:  105724170 MISSES:     629311
DTLB RFO ACCESSES:   59087991 HITS:   58983428 MISSES:     104563
DTLB PREFETCH ACCESSES:          0 HITS:          0 MISSES:          0
DTLB WRITEBACK ACCESSES:          0 HITS:          0 MISSES:          0
DTLB RQ ACCESS:  200304323
DTLB RQ TO_CACHE:  165441472
DTLB RQ MERGED:   34862851
DTLB RQ FORWARD:          0
DTLB WQ ACCESS:          0
DTLB WQ TO_CACHE:          0
DTLB WQ MERGED:          0
DTLB WQ FORWARD:          0
L1D TOTAL     ACCESS:  281844148  HIT:  273934688  MISS:    7909460
L1D LOAD      ACCESS:  110431023  HIT:  107156441  MISS:    3274582
L1D RFO       ACCESS:   67094058  HIT:   66202285  MISS:     891773
L1D PREFETCH  ACCESS:  104319067  HIT:  100575962  MISS:    3743105
L1D WRITEBACK ACCESS:          0  HIT:          0  MISS:          0
L1D PREFETCH  REQUESTED:  110821032  ISSUED:  109121519  USEFUL:    1663879  USELESS:    2079190
L1D TOTAL MSHR MERGED:    2873707
L1D LOAD MSHR MERGED:     484428
L1D RFO MSHR MERGED:    1892744
L1D PREFETCH MSHR MERGED:     496535
L1D WRITEBACK MSHR MERGED:          0
L1D TOTAL ACCESSES:  284745510 HITS:  273962343 MISSES:   10783167
L1D LOAD ACCESSES:  110822684 HITS:  107158093 MISSES:    3664591
L1D RFO ACCESSES:   68973708 HITS:   66202285 MISSES:    2771423
L1D PREFETCH ACCESSES:  104949118 HITS:  100601965 MISSES:    4347153
L1D WRITEBACK ACCESSES:          0 HITS:          0 MISSES:          0
L1D RQ ACCESS:  130751720
L1D RQ TO_CACHE:  110821035
L1D RQ MERGED:   19929033
L1D RQ FORWARD:          0
L1D WQ ACCESS:   69552603
L1D WQ TO_CACHE:   68973709
L1D WQ MERGED:     578894
L1D WQ FORWARD:      27655
L1I TOTAL     ACCESS:  126548683  HIT:  122310136  MISS:    4238547
L1I LOAD      ACCESS:  126548683  HIT:  122310136  MISS:    4238547
L1I RFO       ACCESS:          0  HIT:          0  MISS:          0
L1I PREFETCH  ACCESS:          0  HIT:          0  MISS:          0
L1I WRITEBACK ACCESS:          0  HIT:          0  MISS:          0
L1I PREFETCH  REQUESTED:          0  ISSUED:          0  USEFUL:          0  USELESS:          0
L1I TOTAL MSHR MERGED:    1838888
L1I LOAD MSHR MERGED:    1838888
L1I RFO MSHR MERGED:          0
L1I PREFETCH MSHR MERGED:          0
L1I WRITEBACK MSHR MERGED:          0
L1I TOTAL ACCESSES:  128387574 HITS:  122310136 MISSES:    6077438
L1I LOAD ACCESSES:  128387574 HITS:  122310136 MISSES:    6077438
L1I RFO ACCESSES:          0 HITS:          0 MISSES:          0
L1I PREFETCH ACCESSES:          0 HITS:          0 MISSES:          0
L1I WRITEBACK ACCESSES:          0 HITS:          0 MISSES:          0
L1I RQ ACCESS:  500000057
L1I RQ TO_CACHE:  128387574
L1I RQ MERGED:  371612483
L1I RQ FORWARD:          0
L1I WQ ACCESS:          0
L1I WQ TO_CACHE:          0
L1I WQ MERGED:          0
L1I WQ FORWARD:          0
L2C TOTAL     ACCESS:   14904149  HIT:   11157640  MISS:    3746509
L2C LOAD      ACCESS:    7418505  HIT:    5098340  MISS:    2320165
L2C RFO       ACCESS:     878584  HIT:     409920  MISS:     468664
L2C PREFETCH  ACCESS:    4567794  HIT:    3627378  MISS:     940416
L2C WRITEBACK ACCESS:    2039266  HIT:    2022002  MISS:      17264
L2C PREFETCH  REQUESTED:     842645  ISSUED:     842645  USEFUL:     203117  USELESS:     737004
L2C TOTAL MSHR MERGED:       8129
L2C LOAD MSHR MERGED:       1125
L2C RFO MSHR MERGED:          0
L2C PREFETCH MSHR MERGED:       7004
L2C WRITEBACK MSHR MERGED:          0
L2C TOTAL ACCESSES:   14913235 HITS:   11158081 MISSES:    3755154
L2C LOAD ACCESSES:    7418710 HITS:    5098545 MISSES:    2320165
L2C RFO ACCESSES:     878679 HITS:     410015 MISSES:     468664
L2C PREFETCH ACCESSES:    4576580 HITS:    3627519 MISSES:     949061
L2C WRITEBACK ACCESSES:    2039266 HITS:    2022002 MISSES:      17264
L2C RQ ACCESS:    8297392
L2C RQ TO_CACHE:    8297092
L2C RQ MERGED:          0
L2C RQ FORWARD:          0
L2C WQ ACCESS:    2039266
L2C WQ TO_CACHE:    2039266
L2C WQ MERGED:          0
L2C WQ FORWARD:        441
LLC TOTAL     ACCESS:    4609888  HIT:    3310637  MISS:    1299251
LLC LOAD      ACCESS:    2319028  HIT:    1491318  MISS:     827710
LLC RFO       ACCESS:     468655  HIT:     346907  MISS:     121748
LLC PREFETCH  ACCESS:     941898  HIT:     691538  MISS:     250360
LLC WRITEBACK ACCESS:     880307  HIT:     780874  MISS:      99433
LLC PREFETCH  REQUESTED:          0  ISSUED:          0  USEFUL:      28780  USELESS:     219937
LLC TOTAL MSHR MERGED:        139
LLC LOAD MSHR MERGED:         42
LLC RFO MSHR MERGED:          0
LLC PREFETCH MSHR MERGED:         97
LLC WRITEBACK MSHR MERGED:          0
LLC TOTAL ACCESSES:    4610061 HITS:    3310671 MISSES:    1299390
LLC LOAD ACCESSES:    2319040 HITS:    1491330 MISSES:     827710
LLC RFO ACCESSES:     468664 HITS:     346916 MISSES:     121748
LLC PREFETCH ACCESSES:     942050 HITS:     691551 MISSES:     250499
LLC WRITEBACK ACCESSES:     880307 HITS:     780874 MISSES:      99433
LLC 0 RQ ACCESS:    2787704
LLC 0 RQ TO_CACHE:    2787683
LLC 0 RQ MERGED:          0
LLC 0 RQ FORWARD:          0
LLC WQ ACCESS:     880307
LLC WQ TO_CACHE:     880307
LLC WQ MERGED:          0
LLC WQ FORWARD:         34
Major fault: 0 Minor fault: 12862
CPU 0 L1D next line prefetcher final stats
CPU 0 L2C PC-based stride prefetcher final stats
All Misses: 1502344
All Hits: 3924546
SD Algo Stats - Switches: 0 SRR-Repls: 954405 BRR-Repls: 0

DRAM Statistics
 CHANNEL 0
 RQ ROW_BUFFER_HIT:     364092  ROW_BUFFER_MISS:     833043
 DBUS_CONGESTED:     573352
 WQ ROW_BUFFER_HIT:      26934  ROW_BUFFER_MISS:     286569  FULL:          0

 AVG_CONGESTED_CYCLE: 13
LOADS RETIRED: 136549171
INSTR RETIRED: 500000000
