
*** ChampSim Multicore Out-of-Order Simulator ***

Warmup Instructions: 100000000
Simulation Instructions: 500000000
Number of CPUs: 1
LLC sets: 2048
LLC ways: 16
Clean RRIP Policies: 1213031112130311 Dirty RRIP Policies: 2213130122131301 PSEL Width: 10 Track Set: 4294967295 PSEL Mask: 1 Demote Mask: 1330201013302010DS Algo: 0Window size: 0
Off-chip DRAM Size: 4096 MB Channels: 1 Width: 64-bit Data Rate: 1600 MT/s

CPU 0 runs /mnt/beegfs/iconst01/spec2017/Omnetpp.trace.gz
NOT SORTED
TRACE STRING: /mnt/beegfs/iconst01/spec2017/Omnetpp.trace.gz
SORTED
TRACE STRING: /mnt/beegfs/iconst01/spec2017/Omnetpp.trace.gz
INITIAL
TRACE STRING: /mnt/beegfs/iconst01/spec2017/Omnetpp.trace.gz

champsim_seed used: 739

CPU 0 L1D next line prefetcher
CPU 0 L2C IP-based stride prefetcher
Initialize DRRIP state
Assign rand_sets[0]: 454  LLC: 2048
rand_sets[0]: 454
Assign rand_sets[1]: 1662  LLC: 2048
rand_sets[1]: 1662
Assign rand_sets[2]: 1921  LLC: 2048
rand_sets[2]: 1921
Assign rand_sets[3]: 1131  LLC: 2048
rand_sets[3]: 1131
Assign rand_sets[4]: 331  LLC: 2048
rand_sets[4]: 331
Assign rand_sets[5]: 1531  LLC: 2048
rand_sets[5]: 1531
Assign rand_sets[6]: 482  LLC: 2048
rand_sets[6]: 482
Assign rand_sets[7]: 1275  LLC: 2048
rand_sets[7]: 1275
Assign rand_sets[8]: 1876  LLC: 2048
rand_sets[8]: 1876
Assign rand_sets[9]: 2038  LLC: 2048
rand_sets[9]: 2038
Assign rand_sets[10]: 701  LLC: 2048
rand_sets[10]: 701
Assign rand_sets[11]: 479  LLC: 2048
rand_sets[11]: 479
Assign rand_sets[12]: 892  LLC: 2048
rand_sets[12]: 892
Assign rand_sets[13]: 1820  LLC: 2048
rand_sets[13]: 1820
Assign rand_sets[14]: 1505  LLC: 2048
rand_sets[14]: 1505
Assign rand_sets[15]: 1159  LLC: 2048
rand_sets[15]: 1159
Assign rand_sets[16]: 513  LLC: 2048
rand_sets[16]: 513
Assign rand_sets[17]: 703  LLC: 2048
rand_sets[17]: 703
Assign rand_sets[18]: 561  LLC: 2048
rand_sets[18]: 561
Assign rand_sets[19]: 990  LLC: 2048
rand_sets[19]: 990
Assign rand_sets[20]: 342  LLC: 2048
rand_sets[20]: 342
Assign rand_sets[21]: 882  LLC: 2048
rand_sets[21]: 882
Assign rand_sets[22]: 15  LLC: 2048
rand_sets[22]: 15
Assign rand_sets[23]: 71  LLC: 2048
rand_sets[23]: 71
Assign rand_sets[24]: 1127  LLC: 2048
rand_sets[24]: 1127
Assign rand_sets[25]: 1382  LLC: 2048
rand_sets[25]: 1382
Assign rand_sets[26]: 647  LLC: 2048
rand_sets[26]: 647
Assign rand_sets[27]: 857  LLC: 2048
rand_sets[27]: 857
Assign rand_sets[28]: 1450  LLC: 2048
rand_sets[28]: 1450
Assign rand_sets[29]: 1160  LLC: 2048
rand_sets[29]: 1160
Assign rand_sets[30]: 1852  LLC: 2048
rand_sets[30]: 1852
Assign rand_sets[31]: 1881  LLC: 2048
rand_sets[31]: 1881
Assign rand_sets[32]: 1770  LLC: 2048
rand_sets[32]: 1770
Assign rand_sets[33]: 1622  LLC: 2048
rand_sets[33]: 1622
Assign rand_sets[34]: 275  LLC: 2048
rand_sets[34]: 275
Assign rand_sets[35]: 635  LLC: 2048
rand_sets[35]: 635
Assign rand_sets[36]: 466  LLC: 2048
rand_sets[36]: 466
Assign rand_sets[37]: 1413  LLC: 2048
rand_sets[37]: 1413
Assign rand_sets[38]: 417  LLC: 2048
rand_sets[38]: 417
Assign rand_sets[39]: 472  LLC: 2048
rand_sets[39]: 472
Assign rand_sets[40]: 1340  LLC: 2048
rand_sets[40]: 1340
Assign rand_sets[41]: 852  LLC: 2048
rand_sets[41]: 852
Assign rand_sets[42]: 1365  LLC: 2048
rand_sets[42]: 1365
Assign rand_sets[43]: 47  LLC: 2048
rand_sets[43]: 47
Assign rand_sets[44]: 823  LLC: 2048
rand_sets[44]: 823
Assign rand_sets[45]: 686  LLC: 2048
rand_sets[45]: 686
Assign rand_sets[46]: 1637  LLC: 2048
rand_sets[46]: 1637
Assign rand_sets[47]: 1115  LLC: 2048
rand_sets[47]: 1115
Assign rand_sets[48]: 986  LLC: 2048
rand_sets[48]: 986
Assign rand_sets[49]: 258  LLC: 2048
rand_sets[49]: 258
Assign rand_sets[50]: 633  LLC: 2048
rand_sets[50]: 633
Assign rand_sets[51]: 920  LLC: 2048
rand_sets[51]: 920
Assign rand_sets[52]: 204  LLC: 2048
rand_sets[52]: 204
Assign rand_sets[53]: 227  LLC: 2048
rand_sets[53]: 227
Assign rand_sets[54]: 1818  LLC: 2048
rand_sets[54]: 1818
Assign rand_sets[55]: 886  LLC: 2048
rand_sets[55]: 886
Assign rand_sets[56]: 1422  LLC: 2048
rand_sets[56]: 1422
Assign rand_sets[57]: 607  LLC: 2048
rand_sets[57]: 607
Assign rand_sets[58]: 217  LLC: 2048
rand_sets[58]: 217
Assign rand_sets[59]: 1945  LLC: 2048
rand_sets[59]: 1945
Assign rand_sets[60]: 143  LLC: 2048
rand_sets[60]: 143
Assign rand_sets[61]: 1311  LLC: 2048
rand_sets[61]: 1311
Assign rand_sets[62]: 319  LLC: 2048
rand_sets[62]: 319
Assign rand_sets[63]: 1846  LLC: 2048
rand_sets[63]: 1846
 CLEAN-RRIP-POLICY-1: 1-2-1-3-0-3-1-1- CLEAN-RRIP-POLICY-2: 1-2-1-3-0-3-1-1-
 DIRTY-RRIP-POLICY-1: 2-2-1-3-1-3-0-1- DIRTY-RRIP-POLICY-2: 2-2-1-3-1-3-0-1-
 PSEL width: 10
Heartbeat CPU 0 instructions: 10000000 cycles: 7320006 heartbeat IPC: 1.36612 cumulative IPC: 1.36612 (Simulation time: 0 hr 0 min 19 sec) 
Heartbeat CPU 0 instructions: 20000000 cycles: 14623691 heartbeat IPC: 1.36917 cumulative IPC: 1.36764 (Simulation time: 0 hr 0 min 38 sec) 
Heartbeat CPU 0 instructions: 30000003 cycles: 21925025 heartbeat IPC: 1.36961 cumulative IPC: 1.3683 (Simulation time: 0 hr 0 min 58 sec) 
Heartbeat CPU 0 instructions: 40000000 cycles: 29213280 heartbeat IPC: 1.37207 cumulative IPC: 1.36924 (Simulation time: 0 hr 1 min 17 sec) 
Heartbeat CPU 0 instructions: 50000000 cycles: 36489684 heartbeat IPC: 1.37431 cumulative IPC: 1.37025 (Simulation time: 0 hr 1 min 37 sec) 
Heartbeat CPU 0 instructions: 60000000 cycles: 43769686 heartbeat IPC: 1.37363 cumulative IPC: 1.37081 (Simulation time: 0 hr 1 min 57 sec) 
Heartbeat CPU 0 instructions: 70000001 cycles: 51054901 heartbeat IPC: 1.37264 cumulative IPC: 1.37107 (Simulation time: 0 hr 2 min 17 sec) 
Heartbeat CPU 0 instructions: 80000000 cycles: 58329878 heartbeat IPC: 1.37457 cumulative IPC: 1.37151 (Simulation time: 0 hr 2 min 37 sec) 
Heartbeat CPU 0 instructions: 90000000 cycles: 65636193 heartbeat IPC: 1.36868 cumulative IPC: 1.37119 (Simulation time: 0 hr 2 min 56 sec) 
Heartbeat CPU 0 instructions: 100000000 cycles: 72928246 heartbeat IPC: 1.37136 cumulative IPC: 1.37121 (Simulation time: 0 hr 3 min 16 sec) 

Warmup complete CPU 0 instructions: 100000002 cycles: 72928247 (Simulation time: 0 hr 3 min 16 sec) 

Heartbeat CPU 0 instructions: 110000002 cycles: 113474227 heartbeat IPC: 0.246634 cumulative IPC: 0.246634 (Simulation time: 0 hr 3 min 55 sec) 
Heartbeat CPU 0 instructions: 120000000 cycles: 153727524 heartbeat IPC: 0.248427 cumulative IPC: 0.247527 (Simulation time: 0 hr 4 min 34 sec) 
Heartbeat CPU 0 instructions: 130000002 cycles: 194180344 heartbeat IPC: 0.247202 cumulative IPC: 0.247418 (Simulation time: 0 hr 5 min 13 sec) 
Heartbeat CPU 0 instructions: 140000000 cycles: 234767987 heartbeat IPC: 0.24638 cumulative IPC: 0.247158 (Simulation time: 0 hr 5 min 53 sec) 
Heartbeat CPU 0 instructions: 150000002 cycles: 274904420 heartbeat IPC: 0.24915 cumulative IPC: 0.247554 (Simulation time: 0 hr 6 min 32 sec) 
Heartbeat CPU 0 instructions: 160000000 cycles: 315084413 heartbeat IPC: 0.24888 cumulative IPC: 0.247774 (Simulation time: 0 hr 7 min 11 sec) 
Heartbeat CPU 0 instructions: 170000001 cycles: 354508818 heartbeat IPC: 0.25365 cumulative IPC: 0.248597 (Simulation time: 0 hr 7 min 49 sec) 
Heartbeat CPU 0 instructions: 180000000 cycles: 394680134 heartbeat IPC: 0.248934 cumulative IPC: 0.248639 (Simulation time: 0 hr 8 min 28 sec) 
Heartbeat CPU 0 instructions: 190000002 cycles: 434856080 heartbeat IPC: 0.248905 cumulative IPC: 0.248668 (Simulation time: 0 hr 9 min 7 sec) 
Heartbeat CPU 0 instructions: 200000000 cycles: 476155742 heartbeat IPC: 0.242133 cumulative IPC: 0.247999 (Simulation time: 0 hr 9 min 46 sec) 
Heartbeat CPU 0 instructions: 210000003 cycles: 516352386 heartbeat IPC: 0.248777 cumulative IPC: 0.248069 (Simulation time: 0 hr 10 min 25 sec) 
Heartbeat CPU 0 instructions: 220000000 cycles: 556770257 heartbeat IPC: 0.247415 cumulative IPC: 0.248015 (Simulation time: 0 hr 11 min 4 sec) 
Heartbeat CPU 0 instructions: 230000000 cycles: 597165761 heartbeat IPC: 0.247552 cumulative IPC: 0.247979 (Simulation time: 0 hr 11 min 43 sec) 
Heartbeat CPU 0 instructions: 240000000 cycles: 637296887 heartbeat IPC: 0.249183 cumulative IPC: 0.248065 (Simulation time: 0 hr 12 min 21 sec) 
Heartbeat CPU 0 instructions: 250000000 cycles: 677463818 heartbeat IPC: 0.248961 cumulative IPC: 0.248124 (Simulation time: 0 hr 12 min 59 sec) 
Heartbeat CPU 0 instructions: 260000000 cycles: 717726373 heartbeat IPC: 0.24837 cumulative IPC: 0.24814 (Simulation time: 0 hr 13 min 37 sec) 
Heartbeat CPU 0 instructions: 270000000 cycles: 758054596 heartbeat IPC: 0.247965 cumulative IPC: 0.248129 (Simulation time: 0 hr 14 min 15 sec) 
Heartbeat CPU 0 instructions: 280000000 cycles: 798756562 heartbeat IPC: 0.245688 cumulative IPC: 0.247993 (Simulation time: 0 hr 14 min 53 sec) 
Heartbeat CPU 0 instructions: 290000001 cycles: 838648606 heartbeat IPC: 0.250677 cumulative IPC: 0.248132 (Simulation time: 0 hr 15 min 30 sec) 
Heartbeat CPU 0 instructions: 300000000 cycles: 879217058 heartbeat IPC: 0.246497 cumulative IPC: 0.24805 (Simulation time: 0 hr 16 min 8 sec) 
Heartbeat CPU 0 instructions: 310000000 cycles: 919704414 heartbeat IPC: 0.246991 cumulative IPC: 0.247999 (Simulation time: 0 hr 16 min 45 sec) 
Heartbeat CPU 0 instructions: 320000000 cycles: 959918624 heartbeat IPC: 0.248668 cumulative IPC: 0.24803 (Simulation time: 0 hr 17 min 23 sec) 
Heartbeat CPU 0 instructions: 330000000 cycles: 1000134864 heartbeat IPC: 0.248656 cumulative IPC: 0.248057 (Simulation time: 0 hr 18 min 0 sec) 
Heartbeat CPU 0 instructions: 340000000 cycles: 1040933388 heartbeat IPC: 0.245107 cumulative IPC: 0.247933 (Simulation time: 0 hr 18 min 37 sec) 
Heartbeat CPU 0 instructions: 350000001 cycles: 1081232246 heartbeat IPC: 0.248146 cumulative IPC: 0.247941 (Simulation time: 0 hr 19 min 15 sec) 
Heartbeat CPU 0 instructions: 360000000 cycles: 1121822397 heartbeat IPC: 0.246365 cumulative IPC: 0.24788 (Simulation time: 0 hr 19 min 52 sec) 
Heartbeat CPU 0 instructions: 370000000 cycles: 1161503230 heartbeat IPC: 0.252011 cumulative IPC: 0.248031 (Simulation time: 0 hr 20 min 28 sec) 
Heartbeat CPU 0 instructions: 380000000 cycles: 1202076512 heartbeat IPC: 0.246468 cumulative IPC: 0.247975 (Simulation time: 0 hr 21 min 6 sec) 
Heartbeat CPU 0 instructions: 390000001 cycles: 1242191968 heartbeat IPC: 0.24928 cumulative IPC: 0.248019 (Simulation time: 0 hr 21 min 43 sec) 
Heartbeat CPU 0 instructions: 400000000 cycles: 1282394748 heartbeat IPC: 0.248739 cumulative IPC: 0.248043 (Simulation time: 0 hr 22 min 20 sec) 
Heartbeat CPU 0 instructions: 410000000 cycles: 1322454193 heartbeat IPC: 0.249629 cumulative IPC: 0.248094 (Simulation time: 0 hr 22 min 57 sec) 
Heartbeat CPU 0 instructions: 420000000 cycles: 1362552704 heartbeat IPC: 0.249386 cumulative IPC: 0.248134 (Simulation time: 0 hr 23 min 33 sec) 
Heartbeat CPU 0 instructions: 430000000 cycles: 1402692939 heartbeat IPC: 0.249127 cumulative IPC: 0.248164 (Simulation time: 0 hr 24 min 10 sec) 
Heartbeat CPU 0 instructions: 440000000 cycles: 1442891535 heartbeat IPC: 0.248765 cumulative IPC: 0.248182 (Simulation time: 0 hr 24 min 47 sec) 
Heartbeat CPU 0 instructions: 450000002 cycles: 1482955336 heartbeat IPC: 0.249602 cumulative IPC: 0.248222 (Simulation time: 0 hr 25 min 24 sec) 
Heartbeat CPU 0 instructions: 460000000 cycles: 1522472235 heartbeat IPC: 0.253056 cumulative IPC: 0.248354 (Simulation time: 0 hr 26 min 1 sec) 
Heartbeat CPU 0 instructions: 470000000 cycles: 1562828856 heartbeat IPC: 0.247791 cumulative IPC: 0.248339 (Simulation time: 0 hr 26 min 38 sec) 
Heartbeat CPU 0 instructions: 480000000 cycles: 1602813813 heartbeat IPC: 0.250094 cumulative IPC: 0.248385 (Simulation time: 0 hr 27 min 15 sec) 
Heartbeat CPU 0 instructions: 490000001 cycles: 1642944396 heartbeat IPC: 0.249187 cumulative IPC: 0.248405 (Simulation time: 0 hr 27 min 52 sec) 
Heartbeat CPU 0 instructions: 500000000 cycles: 1683314529 heartbeat IPC: 0.247708 cumulative IPC: 0.248388 (Simulation time: 0 hr 28 min 29 sec) 
Heartbeat CPU 0 instructions: 510000000 cycles: 1723147865 heartbeat IPC: 0.251046 cumulative IPC: 0.248452 (Simulation time: 0 hr 29 min 5 sec) 
Heartbeat CPU 0 instructions: 520000000 cycles: 1763708493 heartbeat IPC: 0.246545 cumulative IPC: 0.248406 (Simulation time: 0 hr 29 min 41 sec) 
Heartbeat CPU 0 instructions: 530000000 cycles: 1803737798 heartbeat IPC: 0.249817 cumulative IPC: 0.248439 (Simulation time: 0 hr 30 min 16 sec) 
Heartbeat CPU 0 instructions: 540000000 cycles: 1843508273 heartbeat IPC: 0.251443 cumulative IPC: 0.248506 (Simulation time: 0 hr 30 min 51 sec) 
Heartbeat CPU 0 instructions: 550000001 cycles: 1883992657 heartbeat IPC: 0.247009 cumulative IPC: 0.248473 (Simulation time: 0 hr 31 min 26 sec) 
Heartbeat CPU 0 instructions: 560000000 cycles: 1924558780 heartbeat IPC: 0.246511 cumulative IPC: 0.24843 (Simulation time: 0 hr 32 min 2 sec) 
Heartbeat CPU 0 instructions: 570000003 cycles: 1965098460 heartbeat IPC: 0.246672 cumulative IPC: 0.248392 (Simulation time: 0 hr 32 min 37 sec) 
Heartbeat CPU 0 instructions: 580000000 cycles: 2005454421 heartbeat IPC: 0.247795 cumulative IPC: 0.24838 (Simulation time: 0 hr 33 min 12 sec) 
Heartbeat CPU 0 instructions: 590000001 cycles: 2046231352 heartbeat IPC: 0.245237 cumulative IPC: 0.248315 (Simulation time: 0 hr 33 min 48 sec) 
Heartbeat CPU 0 instructions: 600000000 cycles: 2086783551 heartbeat IPC: 0.246596 cumulative IPC: 0.24828 (Simulation time: 0 hr 34 min 23 sec) 
Finished CPU 0 instructions: 500000000 cycles: 2013855312 cumulative IPC: 0.24828 (Simulation time: 0 hr 34 min 23 sec) 

CPU 0 Branch Prediction Accuracy: 96.2429% MPKI: 5.85335
Number of Branches: 77897976 Number of Mispredictions: 2926674
Number of LOAD Instructions: 193081861
Number of LOAD Instructions (ROI): 193081861
Number of STORE Instructions: 97310749
Number of STORE Instructions (ROI): 97310749
Total Destination Memory Operands: 106368027
Total Destination Memory Operands (ROI): 106368027
Total Source Memory Operands: 193081861
Total Source Memory Operands (ROI): 193081861
Number of DEPENDED LOADS: 6441195
Number of DEPENDED LOADS (ROI): 6441195
Number of SQ_ADDED: 106367982
Number of SQ_ADDED (ROI): 106367982
Number of LQ_ADDED: 428513624
Number of LQ_ADDED (ROI): 428513624
Number of Instructions read from trace: 600000256

ChampSim completed all CPUs

Region of Interest Statistics

CPU 0 cumulative IPC: 0.24828 instructions: 500000000 cycles: 2013855312
ITLB TOTAL     ACCESS:  151250676  HIT:  151234845  MISS:      15831
ITLB LOAD      ACCESS:  151250676  HIT:  151234845  MISS:      15831
ITLB RFO       ACCESS:          0  HIT:          0  MISS:          0
ITLB PREFETCH  ACCESS:          0  HIT:          0  MISS:          0
ITLB WRITEBACK ACCESS:          0  HIT:          0  MISS:          0
ITLB PREFETCH  REQUESTED:          0  ISSUED:          0  USEFUL:          0  USELESS:          0
ITLB TOTAL MSHR MERGED:      17603
ITLB LOAD MSHR MERGED:      17603
ITLB RFO MSHR MERGED:          0
ITLB PREFETCH MSHR MERGED:          0
ITLB WRITEBACK MSHR MERGED:          0
ITLB TOTAL ACCESSES:  151268279 HITS:  151234845 MISSES:      33434
ITLB LOAD ACCESSES:  151268279 HITS:  151234845 MISSES:      33434
ITLB RFO ACCESSES:          0 HITS:          0 MISSES:          0
ITLB PREFETCH ACCESSES:          0 HITS:          0 MISSES:          0
ITLB WRITEBACK ACCESSES:          0 HITS:          0 MISSES:          0
ITLB RQ ACCESS:  500000242
ITLB RQ TO_CACHE:  151268279
ITLB RQ MERGED:  348731963
ITLB RQ FORWARD:          0
ITLB WQ ACCESS:          0
ITLB WQ TO_CACHE:          0
ITLB WQ MERGED:          0
ITLB WQ FORWARD:          0
DTLB TOTAL     ACCESS:  199563171  HIT:  194184178  MISS:    5378993
DTLB LOAD      ACCESS:  123134567  HIT:  118116062  MISS:    5018505
DTLB RFO       ACCESS:   76428604  HIT:   76068116  MISS:     360488
DTLB PREFETCH  ACCESS:          0  HIT:          0  MISS:          0
DTLB WRITEBACK ACCESS:          0  HIT:          0  MISS:          0
DTLB PREFETCH  REQUESTED:          0  ISSUED:          0  USEFUL:          0  USELESS:          0
DTLB TOTAL MSHR MERGED:     917077
DTLB LOAD MSHR MERGED:     807400
DTLB RFO MSHR MERGED:     109677
DTLB PREFETCH MSHR MERGED:          0
DTLB WRITEBACK MSHR MERGED:          0
DTLB TOTAL ACCESSES:  200480248 HITS:  194184178 MISSES:    6296070
DTLB LOAD ACCESSES:  123941967 HITS:  118116062 MISSES:    5825905
DTLB RFO ACCESSES:   76538281 HITS:   76068116 MISSES:     470165
DTLB PREFETCH ACCESSES:          0 HITS:          0 MISSES:          0
DTLB WRITEBACK ACCESSES:          0 HITS:          0 MISSES:          0
DTLB RQ ACCESS:  243884860
DTLB RQ TO_CACHE:  200480248
DTLB RQ MERGED:   43404612
DTLB RQ FORWARD:          0
DTLB WQ ACCESS:          0
DTLB WQ TO_CACHE:          0
DTLB WQ MERGED:          0
DTLB WQ FORWARD:          0
L1D TOTAL     ACCESS:  335602336  HIT:  317506215  MISS:   18096121
L1D LOAD      ACCESS:  127692588  HIT:  118748046  MISS:    8944542
L1D RFO       ACCESS:   87087293  HIT:   86302033  MISS:     785260
L1D PREFETCH  ACCESS:  120822455  HIT:  112456136  MISS:    8366319
L1D WRITEBACK ACCESS:          0  HIT:          0  MISS:          0
L1D PREFETCH  REQUESTED:  128476473  ISSUED:  126878507  USEFUL:    1740222  USELESS:    6626109
L1D TOTAL MSHR MERGED:    3856786
L1D LOAD MSHR MERGED:     949384
L1D RFO MSHR MERGED:    1064761
L1D PREFETCH MSHR MERGED:    1842641
L1D WRITEBACK MSHR MERGED:          0
L1D TOTAL ACCESSES:  339544644 HITS:  317591737 MISSES:   21952907
L1D LOAD ACCESSES:  128476903 HITS:  118748476 MISSES:    9728427
L1D RFO ACCESSES:   88087481 HITS:   86302033 MISSES:    1785448
L1D PREFETCH ACCESSES:  122980260 HITS:  112541228 MISSES:   10439032
L1D WRITEBACK ACCESSES:          0 HITS:          0 MISSES:          0
L1D RQ ACCESS:  155253475
L1D RQ TO_CACHE:  128476473
L1D RQ MERGED:   26776572
L1D RQ FORWARD:          0
L1D WQ ACCESS:   88631385
L1D WQ TO_CACHE:   88087480
L1D WQ MERGED:     543905
L1D WQ FORWARD:      85522
L1I TOTAL     ACCESS:  175557073  HIT:  175290626  MISS:     266447
L1I LOAD      ACCESS:  175557073  HIT:  175290626  MISS:     266447
L1I RFO       ACCESS:          0  HIT:          0  MISS:          0
L1I PREFETCH  ACCESS:          0  HIT:          0  MISS:          0
L1I WRITEBACK ACCESS:          0  HIT:          0  MISS:          0
L1I PREFETCH  REQUESTED:          0  ISSUED:          0  USEFUL:          0  USELESS:          0
L1I TOTAL MSHR MERGED:     214120
L1I LOAD MSHR MERGED:     214120
L1I RFO MSHR MERGED:          0
L1I PREFETCH MSHR MERGED:          0
L1I WRITEBACK MSHR MERGED:          0
L1I TOTAL ACCESSES:  175771193 HITS:  175290626 MISSES:     480567
L1I LOAD ACCESSES:  175771193 HITS:  175290626 MISSES:     480567
L1I RFO ACCESSES:          0 HITS:          0 MISSES:          0
L1I PREFETCH ACCESSES:          0 HITS:          0 MISSES:          0
L1I WRITEBACK ACCESSES:          0 HITS:          0 MISSES:          0
L1I RQ ACCESS:  500000242
L1I RQ TO_CACHE:  175771193
L1I RQ MERGED:  324229049
L1I RQ FORWARD:          0
L1I WQ ACCESS:          0
L1I WQ TO_CACHE:          0
L1I WQ MERGED:          0
L1I WQ FORWARD:          0
L2C TOTAL     ACCESS:   23738689  HIT:   12112888  MISS:   11625801
L2C LOAD      ACCESS:    9044312  HIT:    3564724  MISS:    5479588
L2C RFO       ACCESS:     720632  HIT:     130365  MISS:     590267
L2C PREFETCH  ACCESS:    8613387  HIT:    3086144  MISS:    5527243
L2C WRITEBACK ACCESS:    5360358  HIT:    5331655  MISS:      28703
L2C PREFETCH  REQUESTED:      18040  ISSUED:      18040  USEFUL:     323028  USELESS:    5204390
L2C TOTAL MSHR MERGED:         25
L2C LOAD MSHR MERGED:          3
L2C RFO MSHR MERGED:          0
L2C PREFETCH MSHR MERGED:         22
L2C WRITEBACK MSHR MERGED:          0
L2C TOTAL ACCESSES:   23740506 HITS:   12114674 MISSES:   11625832
L2C LOAD ACCESSES:    9045490 HITS:    3565902 MISSES:    5479588
L2C RFO ACCESSES:     720687 HITS:     130420 MISSES:     590267
L2C PREFETCH ACCESSES:    8613971 HITS:    3086697 MISSES:    5527274
L2C WRITEBACK ACCESSES:    5360358 HITS:    5331655 MISSES:      28703
L2C RQ ACCESS:    9766177
L2C RQ TO_CACHE:    9764944
L2C RQ MERGED:          0
L2C RQ FORWARD:          0
L2C WQ ACCESS:    5360358
L2C WQ TO_CACHE:    5360358
L2C WQ MERGED:          0
L2C WQ FORWARD:       1786
LLC TOTAL     ACCESS:   15448723  HIT:    6369049  MISS:    9079674
LLC LOAD      ACCESS:    5479556  HIT:    2027114  MISS:    3452442
LLC RFO       ACCESS:     590265  HIT:     277330  MISS:     312935
LLC PREFETCH  ACCESS:    5527234  HIT:     997490  MISS:    4529744
LLC WRITEBACK ACCESS:    3851668  HIT:    3067115  MISS:     784553
LLC PREFETCH  REQUESTED:          0  ISSUED:          0  USEFUL:      24516  USELESS:    4505812
LLC TOTAL MSHR MERGED:          0
LLC LOAD MSHR MERGED:          0
LLC RFO MSHR MERGED:          0
LLC PREFETCH MSHR MERGED:          0
LLC WRITEBACK MSHR MERGED:          0
LLC TOTAL ACCESSES:   15448772 HITS:    6369098 MISSES:    9079674
LLC LOAD ACCESSES:    5479585 HITS:    2027143 MISSES:    3452442
LLC RFO ACCESSES:     590267 HITS:     277332 MISSES:     312935
LLC PREFETCH ACCESSES:    5527252 HITS:     997508 MISSES:    4529744
LLC WRITEBACK ACCESSES:    3851668 HITS:    3067115 MISSES:     784553
LLC 0 RQ ACCESS:    6069852
LLC 0 RQ TO_CACHE:    6069821
LLC 0 RQ MERGED:          0
LLC 0 RQ FORWARD:          0
LLC WQ ACCESS:    3851668
LLC WQ TO_CACHE:    3851668
LLC WQ MERGED:          0
LLC WQ FORWARD:         49
Major fault: 0 Minor fault: 44814
CPU 0 L1D next line prefetcher final stats
CPU 0 L2C PC-based stride prefetcher final stats
All Misses: 10986789
All Hits: 7634447
SD Algo Stats - Switches: 0 SRR-Repls: 3941510 BRR-Repls: 0

DRAM Statistics
 CHANNEL 0
 RQ ROW_BUFFER_HIT:    1449639  ROW_BUFFER_MISS:    6844061
 DBUS_CONGESTED:    5527075
 WQ ROW_BUFFER_HIT:     171333  ROW_BUFFER_MISS:    2088500  FULL:          0

 AVG_CONGESTED_CYCLE: 13
LOADS RETIRED: 160808997
INSTR RETIRED: 500000000
