
*** ChampSim Multicore Out-of-Order Simulator ***

Warmup Instructions: 100000000
Simulation Instructions: 500000000
Number of CPUs: 1
LLC sets: 2048
LLC ways: 16
Clean RRIP Policies: 1213230112132301 Dirty RRIP Policies: 2213031122130311 PSEL Width: 10 Track Set: 4294967295 PSEL Mask: 1 Demote Mask: 3340013133400131DS Algo: 0Window size: 0
Off-chip DRAM Size: 4096 MB Channels: 1 Width: 64-bit Data Rate: 1600 MT/s

CPU 0 runs /mnt/beegfs/iconst01/spec2017/Xalancbmk.trace.gz
NOT SORTED
TRACE STRING: /mnt/beegfs/iconst01/spec2017/Xalancbmk.trace.gz
SORTED
TRACE STRING: /mnt/beegfs/iconst01/spec2017/Xalancbmk.trace.gz
INITIAL
TRACE STRING: /mnt/beegfs/iconst01/spec2017/Xalancbmk.trace.gz

champsim_seed used: 913

CPU 0 L1D next line prefetcher
CPU 0 L2C IP-based stride prefetcher
Initialize DRRIP state
Assign rand_sets[0]: 454  LLC: 2048
rand_sets[0]: 454
Assign rand_sets[1]: 1662  LLC: 2048
rand_sets[1]: 1662
Assign rand_sets[2]: 1921  LLC: 2048
rand_sets[2]: 1921
Assign rand_sets[3]: 1131  LLC: 2048
rand_sets[3]: 1131
Assign rand_sets[4]: 331  LLC: 2048
rand_sets[4]: 331
Assign rand_sets[5]: 1531  LLC: 2048
rand_sets[5]: 1531
Assign rand_sets[6]: 482  LLC: 2048
rand_sets[6]: 482
Assign rand_sets[7]: 1275  LLC: 2048
rand_sets[7]: 1275
Assign rand_sets[8]: 1876  LLC: 2048
rand_sets[8]: 1876
Assign rand_sets[9]: 2038  LLC: 2048
rand_sets[9]: 2038
Assign rand_sets[10]: 701  LLC: 2048
rand_sets[10]: 701
Assign rand_sets[11]: 479  LLC: 2048
rand_sets[11]: 479
Assign rand_sets[12]: 892  LLC: 2048
rand_sets[12]: 892
Assign rand_sets[13]: 1820  LLC: 2048
rand_sets[13]: 1820
Assign rand_sets[14]: 1505  LLC: 2048
rand_sets[14]: 1505
Assign rand_sets[15]: 1159  LLC: 2048
rand_sets[15]: 1159
Assign rand_sets[16]: 513  LLC: 2048
rand_sets[16]: 513
Assign rand_sets[17]: 703  LLC: 2048
rand_sets[17]: 703
Assign rand_sets[18]: 561  LLC: 2048
rand_sets[18]: 561
Assign rand_sets[19]: 990  LLC: 2048
rand_sets[19]: 990
Assign rand_sets[20]: 342  LLC: 2048
rand_sets[20]: 342
Assign rand_sets[21]: 882  LLC: 2048
rand_sets[21]: 882
Assign rand_sets[22]: 15  LLC: 2048
rand_sets[22]: 15
Assign rand_sets[23]: 71  LLC: 2048
rand_sets[23]: 71
Assign rand_sets[24]: 1127  LLC: 2048
rand_sets[24]: 1127
Assign rand_sets[25]: 1382  LLC: 2048
rand_sets[25]: 1382
Assign rand_sets[26]: 647  LLC: 2048
rand_sets[26]: 647
Assign rand_sets[27]: 857  LLC: 2048
rand_sets[27]: 857
Assign rand_sets[28]: 1450  LLC: 2048
rand_sets[28]: 1450
Assign rand_sets[29]: 1160  LLC: 2048
rand_sets[29]: 1160
Assign rand_sets[30]: 1852  LLC: 2048
rand_sets[30]: 1852
Assign rand_sets[31]: 1881  LLC: 2048
rand_sets[31]: 1881
Assign rand_sets[32]: 1770  LLC: 2048
rand_sets[32]: 1770
Assign rand_sets[33]: 1622  LLC: 2048
rand_sets[33]: 1622
Assign rand_sets[34]: 275  LLC: 2048
rand_sets[34]: 275
Assign rand_sets[35]: 635  LLC: 2048
rand_sets[35]: 635
Assign rand_sets[36]: 466  LLC: 2048
rand_sets[36]: 466
Assign rand_sets[37]: 1413  LLC: 2048
rand_sets[37]: 1413
Assign rand_sets[38]: 417  LLC: 2048
rand_sets[38]: 417
Assign rand_sets[39]: 472  LLC: 2048
rand_sets[39]: 472
Assign rand_sets[40]: 1340  LLC: 2048
rand_sets[40]: 1340
Assign rand_sets[41]: 852  LLC: 2048
rand_sets[41]: 852
Assign rand_sets[42]: 1365  LLC: 2048
rand_sets[42]: 1365
Assign rand_sets[43]: 47  LLC: 2048
rand_sets[43]: 47
Assign rand_sets[44]: 823  LLC: 2048
rand_sets[44]: 823
Assign rand_sets[45]: 686  LLC: 2048
rand_sets[45]: 686
Assign rand_sets[46]: 1637  LLC: 2048
rand_sets[46]: 1637
Assign rand_sets[47]: 1115  LLC: 2048
rand_sets[47]: 1115
Assign rand_sets[48]: 986  LLC: 2048
rand_sets[48]: 986
Assign rand_sets[49]: 258  LLC: 2048
rand_sets[49]: 258
Assign rand_sets[50]: 633  LLC: 2048
rand_sets[50]: 633
Assign rand_sets[51]: 920  LLC: 2048
rand_sets[51]: 920
Assign rand_sets[52]: 204  LLC: 2048
rand_sets[52]: 204
Assign rand_sets[53]: 227  LLC: 2048
rand_sets[53]: 227
Assign rand_sets[54]: 1818  LLC: 2048
rand_sets[54]: 1818
Assign rand_sets[55]: 886  LLC: 2048
rand_sets[55]: 886
Assign rand_sets[56]: 1422  LLC: 2048
rand_sets[56]: 1422
Assign rand_sets[57]: 607  LLC: 2048
rand_sets[57]: 607
Assign rand_sets[58]: 217  LLC: 2048
rand_sets[58]: 217
Assign rand_sets[59]: 1945  LLC: 2048
rand_sets[59]: 1945
Assign rand_sets[60]: 143  LLC: 2048
rand_sets[60]: 143
Assign rand_sets[61]: 1311  LLC: 2048
rand_sets[61]: 1311
Assign rand_sets[62]: 319  LLC: 2048
rand_sets[62]: 319
Assign rand_sets[63]: 1846  LLC: 2048
rand_sets[63]: 1846
 CLEAN-RRIP-POLICY-1: 1-2-1-3-2-3-0-1- CLEAN-RRIP-POLICY-2: 1-2-1-3-2-3-0-1-
 DIRTY-RRIP-POLICY-1: 2-2-1-3-0-3-1-1- DIRTY-RRIP-POLICY-2: 2-2-1-3-0-3-1-1-
 PSEL width: 10
Heartbeat CPU 0 instructions: 10000003 cycles: 4587057 heartbeat IPC: 2.18005 cumulative IPC: 2.18005 (Simulation time: 0 hr 0 min 15 sec) 
Heartbeat CPU 0 instructions: 20000000 cycles: 8977511 heartbeat IPC: 2.27767 cumulative IPC: 2.22779 (Simulation time: 0 hr 0 min 28 sec) 
Heartbeat CPU 0 instructions: 30000000 cycles: 13385784 heartbeat IPC: 2.26846 cumulative IPC: 2.24118 (Simulation time: 0 hr 0 min 43 sec) 
Heartbeat CPU 0 instructions: 40000000 cycles: 18011902 heartbeat IPC: 2.16164 cumulative IPC: 2.22075 (Simulation time: 0 hr 0 min 58 sec) 
Heartbeat CPU 0 instructions: 50000002 cycles: 22425058 heartbeat IPC: 2.26595 cumulative IPC: 2.22965 (Simulation time: 0 hr 1 min 12 sec) 
Heartbeat CPU 0 instructions: 60000000 cycles: 27077555 heartbeat IPC: 2.14938 cumulative IPC: 2.21586 (Simulation time: 0 hr 1 min 28 sec) 
Heartbeat CPU 0 instructions: 70000003 cycles: 31480677 heartbeat IPC: 2.27112 cumulative IPC: 2.22359 (Simulation time: 0 hr 1 min 42 sec) 
Heartbeat CPU 0 instructions: 80000000 cycles: 35902893 heartbeat IPC: 2.26131 cumulative IPC: 2.22823 (Simulation time: 0 hr 1 min 56 sec) 
Heartbeat CPU 0 instructions: 90000002 cycles: 40357964 heartbeat IPC: 2.24463 cumulative IPC: 2.23004 (Simulation time: 0 hr 2 min 10 sec) 
Heartbeat CPU 0 instructions: 100000000 cycles: 44830497 heartbeat IPC: 2.23587 cumulative IPC: 2.23062 (Simulation time: 0 hr 2 min 25 sec) 

Warmup complete CPU 0 instructions: 100000003 cycles: 44830498 (Simulation time: 0 hr 2 min 25 sec) 

Heartbeat CPU 0 instructions: 110000000 cycles: 71611767 heartbeat IPC: 0.373395 cumulative IPC: 0.373395 (Simulation time: 0 hr 2 min 56 sec) 
Heartbeat CPU 0 instructions: 120000000 cycles: 99605321 heartbeat IPC: 0.357225 cumulative IPC: 0.365131 (Simulation time: 0 hr 3 min 28 sec) 
Heartbeat CPU 0 instructions: 130000000 cycles: 123046057 heartbeat IPC: 0.426608 cumulative IPC: 0.383555 (Simulation time: 0 hr 3 min 57 sec) 
Heartbeat CPU 0 instructions: 140000000 cycles: 145643421 heartbeat IPC: 0.442529 cumulative IPC: 0.396775 (Simulation time: 0 hr 4 min 25 sec) 
Heartbeat CPU 0 instructions: 150000000 cycles: 170089111 heartbeat IPC: 0.40907 cumulative IPC: 0.399174 (Simulation time: 0 hr 4 min 55 sec) 
Heartbeat CPU 0 instructions: 160000000 cycles: 194936464 heartbeat IPC: 0.402457 cumulative IPC: 0.399718 (Simulation time: 0 hr 5 min 25 sec) 
Heartbeat CPU 0 instructions: 170000002 cycles: 216200483 heartbeat IPC: 0.470278 cumulative IPC: 0.408473 (Simulation time: 0 hr 5 min 52 sec) 
Heartbeat CPU 0 instructions: 180000000 cycles: 239006790 heartbeat IPC: 0.438475 cumulative IPC: 0.411997 (Simulation time: 0 hr 6 min 21 sec) 
Heartbeat CPU 0 instructions: 190000000 cycles: 257994231 heartbeat IPC: 0.526664 cumulative IPC: 0.422211 (Simulation time: 0 hr 6 min 46 sec) 
Heartbeat CPU 0 instructions: 200000000 cycles: 279145223 heartbeat IPC: 0.472791 cumulative IPC: 0.426776 (Simulation time: 0 hr 7 min 14 sec) 
Heartbeat CPU 0 instructions: 210000001 cycles: 305454024 heartbeat IPC: 0.380101 cumulative IPC: 0.422065 (Simulation time: 0 hr 7 min 45 sec) 
Heartbeat CPU 0 instructions: 220000000 cycles: 331295663 heartbeat IPC: 0.386972 cumulative IPC: 0.418899 (Simulation time: 0 hr 8 min 15 sec) 
Heartbeat CPU 0 instructions: 230000000 cycles: 353471105 heartbeat IPC: 0.450949 cumulative IPC: 0.421202 (Simulation time: 0 hr 8 min 43 sec) 
Heartbeat CPU 0 instructions: 240000000 cycles: 379189041 heartbeat IPC: 0.388834 cumulative IPC: 0.418712 (Simulation time: 0 hr 9 min 14 sec) 
Heartbeat CPU 0 instructions: 250000001 cycles: 403988346 heartbeat IPC: 0.403237 cumulative IPC: 0.417644 (Simulation time: 0 hr 9 min 44 sec) 
Heartbeat CPU 0 instructions: 260000000 cycles: 425006396 heartbeat IPC: 0.475781 cumulative IPC: 0.420858 (Simulation time: 0 hr 10 min 11 sec) 
Heartbeat CPU 0 instructions: 270000000 cycles: 446816056 heartbeat IPC: 0.458512 cumulative IPC: 0.422901 (Simulation time: 0 hr 10 min 39 sec) 
Heartbeat CPU 0 instructions: 280000000 cycles: 474349645 heartbeat IPC: 0.363193 cumulative IPC: 0.419073 (Simulation time: 0 hr 11 min 11 sec) 
Heartbeat CPU 0 instructions: 290000000 cycles: 495528740 heartbeat IPC: 0.472164 cumulative IPC: 0.421568 (Simulation time: 0 hr 11 min 38 sec) 
Heartbeat CPU 0 instructions: 300000000 cycles: 516112785 heartbeat IPC: 0.485813 cumulative IPC: 0.424374 (Simulation time: 0 hr 12 min 5 sec) 
Heartbeat CPU 0 instructions: 310000000 cycles: 535331133 heartbeat IPC: 0.520336 cumulative IPC: 0.428134 (Simulation time: 0 hr 12 min 30 sec) 
Heartbeat CPU 0 instructions: 320000000 cycles: 564564965 heartbeat IPC: 0.342069 cumulative IPC: 0.423293 (Simulation time: 0 hr 13 min 3 sec) 
Heartbeat CPU 0 instructions: 330000001 cycles: 583954659 heartbeat IPC: 0.515738 cumulative IPC: 0.426618 (Simulation time: 0 hr 13 min 28 sec) 
Heartbeat CPU 0 instructions: 340000000 cycles: 603281454 heartbeat IPC: 0.517416 cumulative IPC: 0.42976 (Simulation time: 0 hr 13 min 54 sec) 
Heartbeat CPU 0 instructions: 350000001 cycles: 628201103 heartbeat IPC: 0.40129 cumulative IPC: 0.428544 (Simulation time: 0 hr 14 min 23 sec) 
Heartbeat CPU 0 instructions: 360000000 cycles: 650535596 heartbeat IPC: 0.447738 cumulative IPC: 0.429252 (Simulation time: 0 hr 14 min 51 sec) 
Heartbeat CPU 0 instructions: 370000001 cycles: 675700093 heartbeat IPC: 0.397385 cumulative IPC: 0.427981 (Simulation time: 0 hr 15 min 21 sec) 
Heartbeat CPU 0 instructions: 380000000 cycles: 698779543 heartbeat IPC: 0.433286 cumulative IPC: 0.428168 (Simulation time: 0 hr 15 min 49 sec) 
Heartbeat CPU 0 instructions: 390000000 cycles: 717564484 heartbeat IPC: 0.532341 cumulative IPC: 0.431077 (Simulation time: 0 hr 16 min 14 sec) 
Heartbeat CPU 0 instructions: 400000000 cycles: 737397388 heartbeat IPC: 0.504213 cumulative IPC: 0.433171 (Simulation time: 0 hr 16 min 40 sec) 
Heartbeat CPU 0 instructions: 410000001 cycles: 763466224 heartbeat IPC: 0.3836 cumulative IPC: 0.431373 (Simulation time: 0 hr 17 min 10 sec) 
Heartbeat CPU 0 instructions: 420000000 cycles: 788048197 heartbeat IPC: 0.406802 cumulative IPC: 0.43056 (Simulation time: 0 hr 17 min 39 sec) 
Heartbeat CPU 0 instructions: 430000002 cycles: 809380819 heartbeat IPC: 0.468766 cumulative IPC: 0.431626 (Simulation time: 0 hr 18 min 6 sec) 
Heartbeat CPU 0 instructions: 440000000 cycles: 829735773 heartbeat IPC: 0.491281 cumulative IPC: 0.433173 (Simulation time: 0 hr 18 min 32 sec) 
Heartbeat CPU 0 instructions: 450000002 cycles: 856341500 heartbeat IPC: 0.375859 cumulative IPC: 0.431294 (Simulation time: 0 hr 19 min 3 sec) 
Heartbeat CPU 0 instructions: 460000000 cycles: 882123606 heartbeat IPC: 0.387866 cumulative IPC: 0.429957 (Simulation time: 0 hr 19 min 33 sec) 
Heartbeat CPU 0 instructions: 470000002 cycles: 908000806 heartbeat IPC: 0.386441 cumulative IPC: 0.428652 (Simulation time: 0 hr 20 min 3 sec) 
Heartbeat CPU 0 instructions: 480000000 cycles: 932580412 heartbeat IPC: 0.406841 cumulative IPC: 0.428048 (Simulation time: 0 hr 20 min 31 sec) 
Heartbeat CPU 0 instructions: 490000000 cycles: 953451821 heartbeat IPC: 0.479124 cumulative IPC: 0.429222 (Simulation time: 0 hr 20 min 58 sec) 
Heartbeat CPU 0 instructions: 500000000 cycles: 978221579 heartbeat IPC: 0.403718 cumulative IPC: 0.428545 (Simulation time: 0 hr 21 min 27 sec) 
Heartbeat CPU 0 instructions: 510000000 cycles: 1003227952 heartbeat IPC: 0.399898 cumulative IPC: 0.427797 (Simulation time: 0 hr 21 min 56 sec) 
Heartbeat CPU 0 instructions: 520000000 cycles: 1024332918 heartbeat IPC: 0.473822 cumulative IPC: 0.428789 (Simulation time: 0 hr 22 min 23 sec) 
Heartbeat CPU 0 instructions: 530000003 cycles: 1049876412 heartbeat IPC: 0.391489 cumulative IPC: 0.427841 (Simulation time: 0 hr 22 min 53 sec) 
Heartbeat CPU 0 instructions: 540000000 cycles: 1072729669 heartbeat IPC: 0.437574 cumulative IPC: 0.428058 (Simulation time: 0 hr 23 min 21 sec) 
Heartbeat CPU 0 instructions: 550000000 cycles: 1098105614 heartbeat IPC: 0.394074 cumulative IPC: 0.427239 (Simulation time: 0 hr 23 min 50 sec) 
Heartbeat CPU 0 instructions: 560000000 cycles: 1121606156 heartbeat IPC: 0.425522 cumulative IPC: 0.427201 (Simulation time: 0 hr 24 min 18 sec) 
Heartbeat CPU 0 instructions: 570000002 cycles: 1145075061 heartbeat IPC: 0.426096 cumulative IPC: 0.427178 (Simulation time: 0 hr 24 min 47 sec) 
Heartbeat CPU 0 instructions: 580000000 cycles: 1166180342 heartbeat IPC: 0.473815 cumulative IPC: 0.428056 (Simulation time: 0 hr 25 min 13 sec) 
Heartbeat CPU 0 instructions: 590000001 cycles: 1190180033 heartbeat IPC: 0.416672 cumulative IPC: 0.427817 (Simulation time: 0 hr 25 min 42 sec) 
Heartbeat CPU 0 instructions: 600000000 cycles: 1209368552 heartbeat IPC: 0.521145 cumulative IPC: 0.429355 (Simulation time: 0 hr 26 min 7 sec) 
Finished CPU 0 instructions: 500000000 cycles: 1164538075 cumulative IPC: 0.429355 (Simulation time: 0 hr 26 min 7 sec) 

CPU 0 Branch Prediction Accuracy: 99.5434% MPKI: 1.33026
Number of Branches: 145676990 Number of Mispredictions: 665128
Number of LOAD Instructions: 188863207
Number of LOAD Instructions (ROI): 188863207
Number of STORE Instructions: 7332002
Number of STORE Instructions (ROI): 7332002
Total Destination Memory Operands: 10029285
Total Destination Memory Operands (ROI): 10029285
Total Source Memory Operands: 188863207
Total Source Memory Operands (ROI): 188863207
Number of DEPENDED LOADS: 293529
Number of DEPENDED LOADS (ROI): 293529
Number of SQ_ADDED: 10029285
Number of SQ_ADDED (ROI): 10029285
Number of LQ_ADDED: 200918127
Number of LQ_ADDED (ROI): 200918127
Number of Instructions read from trace: 600000010

ChampSim completed all CPUs

Region of Interest Statistics

CPU 0 cumulative IPC: 0.429355 instructions: 500000000 cycles: 1164538075
ITLB TOTAL     ACCESS:  145803681  HIT:  145764152  MISS:      39529
ITLB LOAD      ACCESS:  145803681  HIT:  145764152  MISS:      39529
ITLB RFO       ACCESS:          0  HIT:          0  MISS:          0
ITLB PREFETCH  ACCESS:          0  HIT:          0  MISS:          0
ITLB WRITEBACK ACCESS:          0  HIT:          0  MISS:          0
ITLB PREFETCH  REQUESTED:          0  ISSUED:          0  USEFUL:          0  USELESS:          0
ITLB TOTAL MSHR MERGED:      57343
ITLB LOAD MSHR MERGED:      57343
ITLB RFO MSHR MERGED:          0
ITLB PREFETCH MSHR MERGED:          0
ITLB WRITEBACK MSHR MERGED:          0
ITLB TOTAL ACCESSES:  145861024 HITS:  145764152 MISSES:      96872
ITLB LOAD ACCESSES:  145861024 HITS:  145764152 MISSES:      96872
ITLB RFO ACCESSES:          0 HITS:          0 MISSES:          0
ITLB PREFETCH ACCESSES:          0 HITS:          0 MISSES:          0
ITLB WRITEBACK ACCESSES:          0 HITS:          0 MISSES:          0
ITLB RQ ACCESS:  499999754
ITLB RQ TO_CACHE:  145861024
ITLB RQ MERGED:  354138730
ITLB RQ FORWARD:          0
ITLB WQ ACCESS:          0
ITLB WQ TO_CACHE:          0
ITLB WQ MERGED:          0
ITLB WQ FORWARD:          0
DTLB TOTAL     ACCESS:  135184516  HIT:  134016155  MISS:    1168361
DTLB LOAD      ACCESS:  127143489  HIT:  125984235  MISS:    1159254
DTLB RFO       ACCESS:    8041027  HIT:    8031920  MISS:       9107
DTLB PREFETCH  ACCESS:          0  HIT:          0  MISS:          0
DTLB WRITEBACK ACCESS:          0  HIT:          0  MISS:          0
DTLB PREFETCH  REQUESTED:          0  ISSUED:          0  USEFUL:          0  USELESS:          0
DTLB TOTAL MSHR MERGED:     581345
DTLB LOAD MSHR MERGED:     576962
DTLB RFO MSHR MERGED:       4383
DTLB PREFETCH MSHR MERGED:          0
DTLB WRITEBACK MSHR MERGED:          0
DTLB TOTAL ACCESSES:  135765861 HITS:  134016155 MISSES:    1749706
DTLB LOAD ACCESSES:  127720451 HITS:  125984235 MISSES:    1736216
DTLB RFO ACCESSES:    8045410 HITS:    8031920 MISSES:      13490
DTLB PREFETCH ACCESSES:          0 HITS:          0 MISSES:          0
DTLB WRITEBACK ACCESSES:          0 HITS:          0 MISSES:          0
DTLB RQ ACCESS:  165760807
DTLB RQ TO_CACHE:  135765861
DTLB RQ MERGED:   29994946
DTLB RQ FORWARD:          0
DTLB WQ ACCESS:          0
DTLB WQ TO_CACHE:          0
DTLB WQ MERGED:          0
DTLB WQ FORWARD:          0
L1D TOTAL     ACCESS:  156910901  HIT:  139595195  MISS:   17315706
L1D LOAD      ACCESS:   89973871  HIT:   78823586  MISS:   11150285
L1D RFO       ACCESS:    8494426  HIT:    8407118  MISS:      87308
L1D PREFETCH  ACCESS:   58442604  HIT:   52364491  MISS:    6078113
L1D WRITEBACK ACCESS:          0  HIT:          0  MISS:          0
L1D PREFETCH  REQUESTED:   93712940  ISSUED:   92845599  USEFUL:    1996680  USELESS:    4081506
L1D TOTAL MSHR MERGED:   15139452
L1D LOAD MSHR MERGED:    7144522
L1D RFO MSHR MERGED:     130364
L1D PREFETCH MSHR MERGED:    7864566
L1D WRITEBACK MSHR MERGED:          0
L1D TOTAL ACCESSES:  172050512 HITS:  139595354 MISSES:   32455158
L1D LOAD ACCESSES:   93712946 HITS:   78823592 MISSES:   14889354
L1D RFO ACCESSES:    8622791 HITS:    8407118 MISSES:     215673
L1D PREFETCH ACCESSES:   69714775 HITS:   52364644 MISSES:   17350131
L1D WRITEBACK ACCESSES:          0 HITS:          0 MISSES:          0
L1D RQ ACCESS:  157121601
L1D RQ TO_CACHE:   93712940
L1D RQ MERGED:   63408655
L1D RQ FORWARD:          0
L1D WQ ACCESS:    8639208
L1D WQ TO_CACHE:    8622791
L1D WQ MERGED:      16417
L1D WQ FORWARD:        159
L1I TOTAL     ACCESS:  178792260  HIT:  178128579  MISS:     663681
L1I LOAD      ACCESS:  178792260  HIT:  178128579  MISS:     663681
L1I RFO       ACCESS:          0  HIT:          0  MISS:          0
L1I PREFETCH  ACCESS:          0  HIT:          0  MISS:          0
L1I WRITEBACK ACCESS:          0  HIT:          0  MISS:          0
L1I PREFETCH  REQUESTED:          0  ISSUED:          0  USEFUL:          0  USELESS:          0
L1I TOTAL MSHR MERGED:     597106
L1I LOAD MSHR MERGED:     597106
L1I RFO MSHR MERGED:          0
L1I PREFETCH MSHR MERGED:          0
L1I WRITEBACK MSHR MERGED:          0
L1I TOTAL ACCESSES:  179389366 HITS:  178128579 MISSES:    1260787
L1I LOAD ACCESSES:  179389366 HITS:  178128579 MISSES:    1260787
L1I RFO ACCESSES:          0 HITS:          0 MISSES:          0
L1I PREFETCH ACCESSES:          0 HITS:          0 MISSES:          0
L1I WRITEBACK ACCESSES:          0 HITS:          0 MISSES:          0
L1I RQ ACCESS:  499999757
L1I RQ TO_CACHE:  179389366
L1I RQ MERGED:  320610391
L1I RQ FORWARD:          0
L1I WQ ACCESS:          0
L1I WQ TO_CACHE:          0
L1I WQ MERGED:          0
L1I WQ FORWARD:          0
L2C TOTAL     ACCESS:   19276864  HIT:    2057484  MISS:   17219380
L2C LOAD      ACCESS:    8408412  HIT:     951242  MISS:    7457170
L2C RFO       ACCESS:      85286  HIT:      53734  MISS:      31552
L2C PREFETCH  ACCESS:   10498145  HIT:     770298  MISS:    9727847
L2C WRITEBACK ACCESS:     285021  HIT:     282210  MISS:       2811
L2C PREFETCH  REQUESTED:    1017292  ISSUED:    1017292  USEFUL:     274824  USELESS:    9452119
L2C TOTAL MSHR MERGED:       1123
L2C LOAD MSHR MERGED:        237
L2C RFO MSHR MERGED:          1
L2C PREFETCH MSHR MERGED:        885
L2C WRITEBACK MSHR MERGED:          0
L2C TOTAL ACCESSES:   19280431 HITS:    2057672 MISSES:   17222759
L2C LOAD ACCESSES:    8408513 HITS:     951343 MISSES:    7457170
L2C RFO ACCESSES:      85309 HITS:      53757 MISSES:      31552
L2C PREFETCH ACCESSES:   10501588 HITS:     770362 MISSES:    9731226
L2C WRITEBACK ACCESSES:     285021 HITS:     282210 MISSES:       2811
L2C RQ ACCESS:    8493822
L2C RQ TO_CACHE:    8493698
L2C RQ MERGED:          0
L2C RQ FORWARD:          0
L2C WQ ACCESS:     285021
L2C WQ TO_CACHE:     285021
L2C WQ MERGED:          0
L2C WQ FORWARD:        188
LLC TOTAL     ACCESS:   17324885  HIT:    4863474  MISS:   12461411
LLC LOAD      ACCESS:    7456933  HIT:    4047860  MISS:    3409073
LLC RFO       ACCESS:      31551  HIT:       8038  MISS:      23513
LLC PREFETCH  ACCESS:    9730340  HIT:     739870  MISS:    8990470
LLC WRITEBACK ACCESS:     106061  HIT:      67706  MISS:      38355
LLC PREFETCH  REQUESTED:          0  ISSUED:          0  USEFUL:       1680  USELESS:    8988134
LLC TOTAL MSHR MERGED:          1
LLC LOAD MSHR MERGED:          0
LLC RFO MSHR MERGED:          0
LLC PREFETCH MSHR MERGED:          1
LLC WRITEBACK MSHR MERGED:          0
LLC TOTAL ACCESSES:   17324886 HITS:    4863474 MISSES:   12461412
LLC LOAD ACCESSES:    7456933 HITS:    4047860 MISSES:    3409073
LLC RFO ACCESSES:      31551 HITS:       8038 MISSES:      23513
LLC PREFETCH ACCESSES:    9730341 HITS:     739870 MISSES:    8990471
LLC WRITEBACK ACCESSES:     106061 HITS:      67706 MISSES:      38355
LLC 0 RQ ACCESS:    7488484
LLC 0 RQ TO_CACHE:    7488484
LLC 0 RQ MERGED:          0
LLC 0 RQ FORWARD:          0
LLC WQ ACCESS:     106061
LLC WQ TO_CACHE:     106061
LLC WQ MERGED:          0
LLC WQ FORWARD:          0
Major fault: 0 Minor fault: 6432
CPU 0 L1D next line prefetcher final stats
CPU 0 L2C PC-based stride prefetcher final stats
All Misses: 14710901
All Hits: 5833637
SD Algo Stats - Switches: 0 SRR-Repls: 3636308 BRR-Repls: 0

DRAM Statistics
 CHANNEL 0
 RQ ROW_BUFFER_HIT:    9366707  ROW_BUFFER_MISS:    3049037
 DBUS_CONGESTED:    5787764
 WQ ROW_BUFFER_HIT:       2292  ROW_BUFFER_MISS:      72950  FULL:          0

 AVG_CONGESTED_CYCLE: 12
LOADS RETIRED: 157382665
INSTR RETIRED: 500000000
