
*** ChampSim Multicore Out-of-Order Simulator ***

Warmup Instructions: 100000000
Simulation Instructions: 500000000
Number of CPUs: 1
LLC sets: 2048
LLC ways: 16
Clean RRIP Policies: 1110130111101301 Dirty RRIP Policies: 1100130111001301 PSEL Width: 10 Track Set: 4294967295 PSEL Mask: 1 Demote Mask: 4003144440031444DS Algo: 0Window size: 0
Off-chip DRAM Size: 4096 MB Channels: 1 Width: 64-bit Data Rate: 1600 MT/s

CPU 0 runs /mnt/beegfs/iconst01/spec2017/Gcc.trace.gz
NOT SORTED
TRACE STRING: /mnt/beegfs/iconst01/spec2017/Gcc.trace.gz
SORTED
TRACE STRING: /mnt/beegfs/iconst01/spec2017/Gcc.trace.gz
INITIAL
TRACE STRING: /mnt/beegfs/iconst01/spec2017/Gcc.trace.gz

champsim_seed used: 269

CPU 0 L1D next line prefetcher
CPU 0 L2C IP-based stride prefetcher
Initialize DRRIP state
Assign rand_sets[0]: 454  LLC: 2048
rand_sets[0]: 454
Assign rand_sets[1]: 1662  LLC: 2048
rand_sets[1]: 1662
Assign rand_sets[2]: 1921  LLC: 2048
rand_sets[2]: 1921
Assign rand_sets[3]: 1131  LLC: 2048
rand_sets[3]: 1131
Assign rand_sets[4]: 331  LLC: 2048
rand_sets[4]: 331
Assign rand_sets[5]: 1531  LLC: 2048
rand_sets[5]: 1531
Assign rand_sets[6]: 482  LLC: 2048
rand_sets[6]: 482
Assign rand_sets[7]: 1275  LLC: 2048
rand_sets[7]: 1275
Assign rand_sets[8]: 1876  LLC: 2048
rand_sets[8]: 1876
Assign rand_sets[9]: 2038  LLC: 2048
rand_sets[9]: 2038
Assign rand_sets[10]: 701  LLC: 2048
rand_sets[10]: 701
Assign rand_sets[11]: 479  LLC: 2048
rand_sets[11]: 479
Assign rand_sets[12]: 892  LLC: 2048
rand_sets[12]: 892
Assign rand_sets[13]: 1820  LLC: 2048
rand_sets[13]: 1820
Assign rand_sets[14]: 1505  LLC: 2048
rand_sets[14]: 1505
Assign rand_sets[15]: 1159  LLC: 2048
rand_sets[15]: 1159
Assign rand_sets[16]: 513  LLC: 2048
rand_sets[16]: 513
Assign rand_sets[17]: 703  LLC: 2048
rand_sets[17]: 703
Assign rand_sets[18]: 561  LLC: 2048
rand_sets[18]: 561
Assign rand_sets[19]: 990  LLC: 2048
rand_sets[19]: 990
Assign rand_sets[20]: 342  LLC: 2048
rand_sets[20]: 342
Assign rand_sets[21]: 882  LLC: 2048
rand_sets[21]: 882
Assign rand_sets[22]: 15  LLC: 2048
rand_sets[22]: 15
Assign rand_sets[23]: 71  LLC: 2048
rand_sets[23]: 71
Assign rand_sets[24]: 1127  LLC: 2048
rand_sets[24]: 1127
Assign rand_sets[25]: 1382  LLC: 2048
rand_sets[25]: 1382
Assign rand_sets[26]: 647  LLC: 2048
rand_sets[26]: 647
Assign rand_sets[27]: 857  LLC: 2048
rand_sets[27]: 857
Assign rand_sets[28]: 1450  LLC: 2048
rand_sets[28]: 1450
Assign rand_sets[29]: 1160  LLC: 2048
rand_sets[29]: 1160
Assign rand_sets[30]: 1852  LLC: 2048
rand_sets[30]: 1852
Assign rand_sets[31]: 1881  LLC: 2048
rand_sets[31]: 1881
Assign rand_sets[32]: 1770  LLC: 2048
rand_sets[32]: 1770
Assign rand_sets[33]: 1622  LLC: 2048
rand_sets[33]: 1622
Assign rand_sets[34]: 275  LLC: 2048
rand_sets[34]: 275
Assign rand_sets[35]: 635  LLC: 2048
rand_sets[35]: 635
Assign rand_sets[36]: 466  LLC: 2048
rand_sets[36]: 466
Assign rand_sets[37]: 1413  LLC: 2048
rand_sets[37]: 1413
Assign rand_sets[38]: 417  LLC: 2048
rand_sets[38]: 417
Assign rand_sets[39]: 472  LLC: 2048
rand_sets[39]: 472
Assign rand_sets[40]: 1340  LLC: 2048
rand_sets[40]: 1340
Assign rand_sets[41]: 852  LLC: 2048
rand_sets[41]: 852
Assign rand_sets[42]: 1365  LLC: 2048
rand_sets[42]: 1365
Assign rand_sets[43]: 47  LLC: 2048
rand_sets[43]: 47
Assign rand_sets[44]: 823  LLC: 2048
rand_sets[44]: 823
Assign rand_sets[45]: 686  LLC: 2048
rand_sets[45]: 686
Assign rand_sets[46]: 1637  LLC: 2048
rand_sets[46]: 1637
Assign rand_sets[47]: 1115  LLC: 2048
rand_sets[47]: 1115
Assign rand_sets[48]: 986  LLC: 2048
rand_sets[48]: 986
Assign rand_sets[49]: 258  LLC: 2048
rand_sets[49]: 258
Assign rand_sets[50]: 633  LLC: 2048
rand_sets[50]: 633
Assign rand_sets[51]: 920  LLC: 2048
rand_sets[51]: 920
Assign rand_sets[52]: 204  LLC: 2048
rand_sets[52]: 204
Assign rand_sets[53]: 227  LLC: 2048
rand_sets[53]: 227
Assign rand_sets[54]: 1818  LLC: 2048
rand_sets[54]: 1818
Assign rand_sets[55]: 886  LLC: 2048
rand_sets[55]: 886
Assign rand_sets[56]: 1422  LLC: 2048
rand_sets[56]: 1422
Assign rand_sets[57]: 607  LLC: 2048
rand_sets[57]: 607
Assign rand_sets[58]: 217  LLC: 2048
rand_sets[58]: 217
Assign rand_sets[59]: 1945  LLC: 2048
rand_sets[59]: 1945
Assign rand_sets[60]: 143  LLC: 2048
rand_sets[60]: 143
Assign rand_sets[61]: 1311  LLC: 2048
rand_sets[61]: 1311
Assign rand_sets[62]: 319  LLC: 2048
rand_sets[62]: 319
Assign rand_sets[63]: 1846  LLC: 2048
rand_sets[63]: 1846
 CLEAN-RRIP-POLICY-1: 1-1-1-0-1-3-0-1- CLEAN-RRIP-POLICY-2: 1-1-1-0-1-3-0-1-
 DIRTY-RRIP-POLICY-1: 1-1-0-0-1-3-0-1- DIRTY-RRIP-POLICY-2: 1-1-0-0-1-3-0-1-
 PSEL width: 10
Heartbeat CPU 0 instructions: 10000001 cycles: 7315907 heartbeat IPC: 1.36688 cumulative IPC: 1.36688 (Simulation time: 0 hr 0 min 16 sec) 
Heartbeat CPU 0 instructions: 20000000 cycles: 14307619 heartbeat IPC: 1.43026 cumulative IPC: 1.39786 (Simulation time: 0 hr 0 min 31 sec) 
Heartbeat CPU 0 instructions: 30000001 cycles: 21020746 heartbeat IPC: 1.48962 cumulative IPC: 1.42716 (Simulation time: 0 hr 0 min 48 sec) 
Heartbeat CPU 0 instructions: 40000000 cycles: 27481613 heartbeat IPC: 1.54778 cumulative IPC: 1.45552 (Simulation time: 0 hr 1 min 5 sec) 
Heartbeat CPU 0 instructions: 50000001 cycles: 33583439 heartbeat IPC: 1.63885 cumulative IPC: 1.48883 (Simulation time: 0 hr 1 min 21 sec) 
Heartbeat CPU 0 instructions: 60000000 cycles: 40064657 heartbeat IPC: 1.54292 cumulative IPC: 1.49758 (Simulation time: 0 hr 1 min 38 sec) 
Heartbeat CPU 0 instructions: 70000000 cycles: 47102718 heartbeat IPC: 1.42085 cumulative IPC: 1.48611 (Simulation time: 0 hr 1 min 54 sec) 
Heartbeat CPU 0 instructions: 80000000 cycles: 54192613 heartbeat IPC: 1.41046 cumulative IPC: 1.47622 (Simulation time: 0 hr 2 min 9 sec) 
Heartbeat CPU 0 instructions: 90000003 cycles: 61197113 heartbeat IPC: 1.42765 cumulative IPC: 1.47066 (Simulation time: 0 hr 2 min 25 sec) 
Heartbeat CPU 0 instructions: 100000000 cycles: 68364520 heartbeat IPC: 1.3952 cumulative IPC: 1.46275 (Simulation time: 0 hr 2 min 40 sec) 

Warmup complete CPU 0 instructions: 100000004 cycles: 68364521 (Simulation time: 0 hr 2 min 40 sec) 

Heartbeat CPU 0 instructions: 110000003 cycles: 96044300 heartbeat IPC: 0.361275 cumulative IPC: 0.361275 (Simulation time: 0 hr 3 min 11 sec) 
Heartbeat CPU 0 instructions: 120000000 cycles: 123519277 heartbeat IPC: 0.363967 cumulative IPC: 0.362616 (Simulation time: 0 hr 3 min 42 sec) 
Heartbeat CPU 0 instructions: 130000000 cycles: 148529582 heartbeat IPC: 0.399835 cumulative IPC: 0.374228 (Simulation time: 0 hr 4 min 12 sec) 
Heartbeat CPU 0 instructions: 140000000 cycles: 178033054 heartbeat IPC: 0.338943 cumulative IPC: 0.364735 (Simulation time: 0 hr 4 min 42 sec) 
Heartbeat CPU 0 instructions: 150000000 cycles: 207911872 heartbeat IPC: 0.334685 cumulative IPC: 0.358301 (Simulation time: 0 hr 5 min 13 sec) 
Heartbeat CPU 0 instructions: 160000000 cycles: 235332776 heartbeat IPC: 0.364685 cumulative IPC: 0.35935 (Simulation time: 0 hr 5 min 43 sec) 
Heartbeat CPU 0 instructions: 170000001 cycles: 263379932 heartbeat IPC: 0.356542 cumulative IPC: 0.358946 (Simulation time: 0 hr 6 min 14 sec) 
Heartbeat CPU 0 instructions: 180000000 cycles: 291816915 heartbeat IPC: 0.351655 cumulative IPC: 0.358018 (Simulation time: 0 hr 6 min 46 sec) 
Heartbeat CPU 0 instructions: 190000002 cycles: 319848786 heartbeat IPC: 0.356737 cumulative IPC: 0.357875 (Simulation time: 0 hr 7 min 16 sec) 
Heartbeat CPU 0 instructions: 200000000 cycles: 348195554 heartbeat IPC: 0.352774 cumulative IPC: 0.357358 (Simulation time: 0 hr 7 min 47 sec) 
Heartbeat CPU 0 instructions: 210000002 cycles: 376059427 heartbeat IPC: 0.358888 cumulative IPC: 0.357497 (Simulation time: 0 hr 8 min 18 sec) 
Heartbeat CPU 0 instructions: 220000000 cycles: 405228642 heartbeat IPC: 0.342827 cumulative IPC: 0.356227 (Simulation time: 0 hr 8 min 48 sec) 
Heartbeat CPU 0 instructions: 230000000 cycles: 432790339 heartbeat IPC: 0.362822 cumulative IPC: 0.356726 (Simulation time: 0 hr 9 min 18 sec) 
Heartbeat CPU 0 instructions: 240000000 cycles: 458781202 heartbeat IPC: 0.384751 cumulative IPC: 0.358591 (Simulation time: 0 hr 9 min 47 sec) 
Heartbeat CPU 0 instructions: 250000000 cycles: 488924456 heartbeat IPC: 0.331749 cumulative IPC: 0.356667 (Simulation time: 0 hr 10 min 19 sec) 
Heartbeat CPU 0 instructions: 260000000 cycles: 516059490 heartbeat IPC: 0.368527 cumulative IPC: 0.357386 (Simulation time: 0 hr 10 min 49 sec) 
Heartbeat CPU 0 instructions: 270000003 cycles: 544524186 heartbeat IPC: 0.351312 cumulative IPC: 0.357023 (Simulation time: 0 hr 11 min 21 sec) 
Heartbeat CPU 0 instructions: 280000000 cycles: 572675250 heartbeat IPC: 0.355226 cumulative IPC: 0.356923 (Simulation time: 0 hr 11 min 52 sec) 
Heartbeat CPU 0 instructions: 290000000 cycles: 601561741 heartbeat IPC: 0.346183 cumulative IPC: 0.356341 (Simulation time: 0 hr 12 min 24 sec) 
Heartbeat CPU 0 instructions: 300000000 cycles: 631496120 heartbeat IPC: 0.334064 cumulative IPC: 0.355157 (Simulation time: 0 hr 12 min 54 sec) 
Heartbeat CPU 0 instructions: 310000001 cycles: 660885673 heartbeat IPC: 0.340257 cumulative IPC: 0.354418 (Simulation time: 0 hr 13 min 25 sec) 
Heartbeat CPU 0 instructions: 320000000 cycles: 689118182 heartbeat IPC: 0.354202 cumulative IPC: 0.354408 (Simulation time: 0 hr 13 min 55 sec) 
Heartbeat CPU 0 instructions: 330000000 cycles: 717775409 heartbeat IPC: 0.348952 cumulative IPC: 0.354167 (Simulation time: 0 hr 14 min 25 sec) 
Heartbeat CPU 0 instructions: 340000000 cycles: 747066065 heartbeat IPC: 0.341406 cumulative IPC: 0.353616 (Simulation time: 0 hr 14 min 56 sec) 
Heartbeat CPU 0 instructions: 350000003 cycles: 774117652 heartbeat IPC: 0.369664 cumulative IPC: 0.354232 (Simulation time: 0 hr 15 min 25 sec) 
Heartbeat CPU 0 instructions: 360000000 cycles: 802238568 heartbeat IPC: 0.355607 cumulative IPC: 0.354284 (Simulation time: 0 hr 15 min 55 sec) 
Heartbeat CPU 0 instructions: 370000000 cycles: 830415908 heartbeat IPC: 0.354895 cumulative IPC: 0.354307 (Simulation time: 0 hr 16 min 24 sec) 
Heartbeat CPU 0 instructions: 380000000 cycles: 858936467 heartbeat IPC: 0.350624 cumulative IPC: 0.354174 (Simulation time: 0 hr 16 min 53 sec) 
Heartbeat CPU 0 instructions: 390000001 cycles: 886543195 heartbeat IPC: 0.362231 cumulative IPC: 0.354446 (Simulation time: 0 hr 17 min 22 sec) 
Heartbeat CPU 0 instructions: 400000000 cycles: 915199225 heartbeat IPC: 0.348967 cumulative IPC: 0.35426 (Simulation time: 0 hr 17 min 51 sec) 
Heartbeat CPU 0 instructions: 410000001 cycles: 942474419 heartbeat IPC: 0.366634 cumulative IPC: 0.354646 (Simulation time: 0 hr 18 min 20 sec) 
Heartbeat CPU 0 instructions: 420000000 cycles: 969764618 heartbeat IPC: 0.366432 cumulative IPC: 0.355003 (Simulation time: 0 hr 18 min 49 sec) 
Heartbeat CPU 0 instructions: 430000002 cycles: 997462928 heartbeat IPC: 0.361033 cumulative IPC: 0.355183 (Simulation time: 0 hr 19 min 19 sec) 
Heartbeat CPU 0 instructions: 440000000 cycles: 1027071186 heartbeat IPC: 0.337744 cumulative IPC: 0.354644 (Simulation time: 0 hr 19 min 48 sec) 
Heartbeat CPU 0 instructions: 450000002 cycles: 1056346895 heartbeat IPC: 0.34158 cumulative IPC: 0.354257 (Simulation time: 0 hr 20 min 18 sec) 
Heartbeat CPU 0 instructions: 460000000 cycles: 1084032992 heartbeat IPC: 0.361192 cumulative IPC: 0.354446 (Simulation time: 0 hr 20 min 47 sec) 
Heartbeat CPU 0 instructions: 470000000 cycles: 1111651995 heartbeat IPC: 0.36207 cumulative IPC: 0.354648 (Simulation time: 0 hr 21 min 16 sec) 
Heartbeat CPU 0 instructions: 480000000 cycles: 1139521369 heartbeat IPC: 0.358817 cumulative IPC: 0.354757 (Simulation time: 0 hr 21 min 45 sec) 
Heartbeat CPU 0 instructions: 490000000 cycles: 1167097628 heartbeat IPC: 0.362631 cumulative IPC: 0.354954 (Simulation time: 0 hr 22 min 14 sec) 
Heartbeat CPU 0 instructions: 500000000 cycles: 1195418797 heartbeat IPC: 0.353093 cumulative IPC: 0.354907 (Simulation time: 0 hr 22 min 44 sec) 
Heartbeat CPU 0 instructions: 510000000 cycles: 1230631792 heartbeat IPC: 0.283986 cumulative IPC: 0.352759 (Simulation time: 0 hr 23 min 17 sec) 
Heartbeat CPU 0 instructions: 520000000 cycles: 1258705278 heartbeat IPC: 0.356208 cumulative IPC: 0.35284 (Simulation time: 0 hr 23 min 47 sec) 
Heartbeat CPU 0 instructions: 530000001 cycles: 1288116413 heartbeat IPC: 0.340007 cumulative IPC: 0.352531 (Simulation time: 0 hr 24 min 17 sec) 
Heartbeat CPU 0 instructions: 540000000 cycles: 1316205728 heartbeat IPC: 0.356007 cumulative IPC: 0.352609 (Simulation time: 0 hr 24 min 48 sec) 
Heartbeat CPU 0 instructions: 550000001 cycles: 1345399997 heartbeat IPC: 0.342533 cumulative IPC: 0.352379 (Simulation time: 0 hr 25 min 20 sec) 
Heartbeat CPU 0 instructions: 560000000 cycles: 1370798839 heartbeat IPC: 0.393719 cumulative IPC: 0.353185 (Simulation time: 0 hr 25 min 50 sec) 
Heartbeat CPU 0 instructions: 570000000 cycles: 1400297693 heartbeat IPC: 0.338996 cumulative IPC: 0.352871 (Simulation time: 0 hr 26 min 21 sec) 
Heartbeat CPU 0 instructions: 580000000 cycles: 1428232899 heartbeat IPC: 0.357971 cumulative IPC: 0.352975 (Simulation time: 0 hr 26 min 51 sec) 
Heartbeat CPU 0 instructions: 590000001 cycles: 1453014572 heartbeat IPC: 0.403524 cumulative IPC: 0.35388 (Simulation time: 0 hr 27 min 20 sec) 
Heartbeat CPU 0 instructions: 600000000 cycles: 1479167235 heartbeat IPC: 0.38237 cumulative IPC: 0.354408 (Simulation time: 0 hr 27 min 49 sec) 
Finished CPU 0 instructions: 500000000 cycles: 1410802736 cumulative IPC: 0.354408 (Simulation time: 0 hr 27 min 49 sec) 

CPU 0 Branch Prediction Accuracy: 86.4311% MPKI: 26.2662
Number of Branches: 96788573 Number of Mispredictions: 13133102
Number of LOAD Instructions: 164682285
Number of LOAD Instructions (ROI): 164682285
Number of STORE Instructions: 78194750
Number of STORE Instructions (ROI): 78194750
Total Destination Memory Operands: 83268534
Total Destination Memory Operands (ROI): 83268534
Total Source Memory Operands: 164712438
Total Source Memory Operands (ROI): 164712438
Number of DEPENDED LOADS: 7060978
Number of DEPENDED LOADS (ROI): 7060978
Number of SQ_ADDED: 83268522
Number of SQ_ADDED (ROI): 83268522
Number of LQ_ADDED: 236568339
Number of LQ_ADDED (ROI): 236568339
Number of Instructions read from trace: 600000066

ChampSim completed all CPUs

Region of Interest Statistics

CPU 0 cumulative IPC: 0.354408 instructions: 500000000 cycles: 1410802736
ITLB TOTAL     ACCESS:  100512090  HIT:  100307644  MISS:     204446
ITLB LOAD      ACCESS:  100512090  HIT:  100307644  MISS:     204446
ITLB RFO       ACCESS:          0  HIT:          0  MISS:          0
ITLB PREFETCH  ACCESS:          0  HIT:          0  MISS:          0
ITLB WRITEBACK ACCESS:          0  HIT:          0  MISS:          0
ITLB PREFETCH  REQUESTED:          0  ISSUED:          0  USEFUL:          0  USELESS:          0
ITLB TOTAL MSHR MERGED:     172424
ITLB LOAD MSHR MERGED:     172424
ITLB RFO MSHR MERGED:          0
ITLB PREFETCH MSHR MERGED:          0
ITLB WRITEBACK MSHR MERGED:          0
ITLB TOTAL ACCESSES:  100684514 HITS:  100307644 MISSES:     376870
ITLB LOAD ACCESSES:  100684514 HITS:  100307644 MISSES:     376870
ITLB RFO ACCESSES:          0 HITS:          0 MISSES:          0
ITLB PREFETCH ACCESSES:          0 HITS:          0 MISSES:          0
ITLB WRITEBACK ACCESSES:          0 HITS:          0 MISSES:          0
ITLB RQ ACCESS:  500000057
ITLB RQ TO_CACHE:  100684514
ITLB RQ MERGED:  399315543
ITLB RQ FORWARD:          0
ITLB WQ ACCESS:          0
ITLB WQ TO_CACHE:          0
ITLB WQ MERGED:          0
ITLB WQ FORWARD:          0
DTLB TOTAL     ACCESS:  165335204  HIT:  164700860  MISS:     634344
DTLB LOAD      ACCESS:  106291854  HIT:  105721860  MISS:     569994
DTLB RFO       ACCESS:   59043350  HIT:   58979000  MISS:      64350
DTLB PREFETCH  ACCESS:          0  HIT:          0  MISS:          0
DTLB WRITEBACK ACCESS:          0  HIT:          0  MISS:          0
DTLB PREFETCH  REQUESTED:          0  ISSUED:          0  USEFUL:          0  USELESS:          0
DTLB TOTAL MSHR MERGED:      99892
DTLB LOAD MSHR MERGED:      59442
DTLB RFO MSHR MERGED:      40450
DTLB PREFETCH MSHR MERGED:          0
DTLB WRITEBACK MSHR MERGED:          0
DTLB TOTAL ACCESSES:  165435096 HITS:  164700860 MISSES:     734236
DTLB LOAD ACCESSES:  106351296 HITS:  105721860 MISSES:     629436
DTLB RFO ACCESSES:   59083800 HITS:   58979000 MISSES:     104800
DTLB PREFETCH ACCESSES:          0 HITS:          0 MISSES:          0
DTLB WRITEBACK ACCESSES:          0 HITS:          0 MISSES:          0
DTLB RQ ACCESS:  200309915
DTLB RQ TO_CACHE:  165435096
DTLB RQ MERGED:   34874819
DTLB RQ FORWARD:          0
DTLB WQ ACCESS:          0
DTLB WQ TO_CACHE:          0
DTLB WQ MERGED:          0
DTLB WQ FORWARD:          0
L1D TOTAL     ACCESS:  281836129  HIT:  273926770  MISS:    7909359
L1D LOAD      ACCESS:  110426157  HIT:  107151749  MISS:    3274408
L1D RFO       ACCESS:   67096307  HIT:   66204803  MISS:     891504
L1D PREFETCH  ACCESS:  104313665  HIT:  100570218  MISS:    3743447
L1D WRITEBACK ACCESS:          0  HIT:          0  MISS:          0
L1D PREFETCH  REQUESTED:  110815164  ISSUED:  109115846  USEFUL:    1664227  USELESS:    2079184
L1D TOTAL MSHR MERGED:    2864415
L1D LOAD MSHR MERGED:     482904
L1D RFO MSHR MERGED:    1890502
L1D PREFETCH MSHR MERGED:     491009
L1D WRITEBACK MSHR MERGED:          0
L1D TOTAL ACCESSES:  284728131 HITS:  273954357 MISSES:   10773774
L1D LOAD ACCESSES:  110816729 HITS:  107153314 MISSES:    3663415
L1D RFO ACCESSES:   68974110 HITS:   66204803 MISSES:    2769307
L1D PREFETCH ACCESSES:  104937292 HITS:  100596240 MISSES:    4341052
L1D WRITEBACK ACCESSES:          0 HITS:          0 MISSES:          0
L1D RQ ACCESS:  130757312
L1D RQ TO_CACHE:  110815167
L1D RQ MERGED:   19940580
L1D RQ FORWARD:          0
L1D WQ ACCESS:   69552603
L1D WQ TO_CACHE:   68974111
L1D WQ MERGED:     578492
L1D WQ FORWARD:      27587
L1I TOTAL     ACCESS:  126559797  HIT:  122321244  MISS:    4238553
L1I LOAD      ACCESS:  126559797  HIT:  122321244  MISS:    4238553
L1I RFO       ACCESS:          0  HIT:          0  MISS:          0
L1I PREFETCH  ACCESS:          0  HIT:          0  MISS:          0
L1I WRITEBACK ACCESS:          0  HIT:          0  MISS:          0
L1I PREFETCH  REQUESTED:          0  ISSUED:          0  USEFUL:          0  USELESS:          0
L1I TOTAL MSHR MERGED:    1834639
L1I LOAD MSHR MERGED:    1834639
L1I RFO MSHR MERGED:          0
L1I PREFETCH MSHR MERGED:          0
L1I WRITEBACK MSHR MERGED:          0
L1I TOTAL ACCESSES:  128394439 HITS:  122321244 MISSES:    6073195
L1I LOAD ACCESSES:  128394439 HITS:  122321244 MISSES:    6073195
L1I RFO ACCESSES:          0 HITS:          0 MISSES:          0
L1I PREFETCH ACCESSES:          0 HITS:          0 MISSES:          0
L1I WRITEBACK ACCESSES:          0 HITS:          0 MISSES:          0
L1I RQ ACCESS:  500000057
L1I RQ TO_CACHE:  128394439
L1I RQ MERGED:  371605618
L1I RQ FORWARD:          0
L1I WQ ACCESS:          0
L1I WQ TO_CACHE:          0
L1I WQ MERGED:          0
L1I WQ FORWARD:          0
L2C TOTAL     ACCESS:   14904872  HIT:   11158491  MISS:    3746381
L2C LOAD      ACCESS:    7418858  HIT:    5098771  MISS:    2320087
L2C RFO       ACCESS:     878705  HIT:     409930  MISS:     468775
L2C PREFETCH  ACCESS:    4568060  HIT:    3627799  MISS:     940261
L2C WRITEBACK ACCESS:    2039249  HIT:    2021991  MISS:      17258
L2C PREFETCH  REQUESTED:     842716  ISSUED:     842716  USEFUL:     203249  USELESS:     736718
L2C TOTAL MSHR MERGED:       7381
L2C LOAD MSHR MERGED:        905
L2C RFO MSHR MERGED:          0
L2C PREFETCH MSHR MERGED:       6476
L2C WRITEBACK MSHR MERGED:          0
L2C TOTAL ACCESSES:   14913159 HITS:   11158942 MISSES:    3754217
L2C LOAD ACCESSES:    7419064 HITS:    5098977 MISSES:    2320087
L2C RFO ACCESSES:     878805 HITS:     410030 MISSES:     468775
L2C PREFETCH ACCESSES:    4576041 HITS:    3627944 MISSES:     948097
L2C WRITEBACK ACCESSES:    2039249 HITS:    2021991 MISSES:      17258
L2C RQ ACCESS:    8297872
L2C RQ TO_CACHE:    8297566
L2C RQ MERGED:          0
L2C RQ FORWARD:          0
L2C WQ ACCESS:    2039249
L2C WQ TO_CACHE:    2039249
L2C WQ MERGED:          0
L2C WQ FORWARD:        451
LLC TOTAL     ACCESS:    4609703  HIT:    3971530  MISS:     638173
LLC LOAD      ACCESS:    2319169  HIT:    2069175  MISS:     249994
LLC RFO       ACCESS:     468764  HIT:     366718  MISS:     102046
LLC PREFETCH  ACCESS:     941515  HIT:     707754  MISS:     233761
LLC WRITEBACK ACCESS:     880255  HIT:     827883  MISS:      52372
LLC PREFETCH  REQUESTED:          0  ISSUED:          0  USEFUL:      44140  USELESS:     190515
LLC TOTAL MSHR MERGED:         91
LLC LOAD MSHR MERGED:         35
LLC RFO MSHR MERGED:          0
LLC PREFETCH MSHR MERGED:         56
LLC WRITEBACK MSHR MERGED:          0
LLC TOTAL ACCESSES:    4609828 HITS:    3971564 MISSES:     638264
LLC LOAD ACCESSES:    2319182 HITS:    2069188 MISSES:     249994
LLC RFO ACCESSES:     468775 HITS:     366729 MISSES:     102046
LLC PREFETCH ACCESSES:     941616 HITS:     707764 MISSES:     233852
LLC WRITEBACK ACCESSES:     880255 HITS:     827883 MISSES:      52372
LLC 0 RQ ACCESS:    2787957
LLC 0 RQ TO_CACHE:    2787933
LLC 0 RQ MERGED:          0
LLC 0 RQ FORWARD:          0
LLC WQ ACCESS:     880255
LLC WQ TO_CACHE:     880255
LLC WQ MERGED:          0
LLC WQ FORWARD:         34
Major fault: 0 Minor fault: 12862
CPU 0 L1D next line prefetcher final stats
CPU 0 L2C PC-based stride prefetcher final stats
All Misses: 754595
All Hits: 4672114
SD Algo Stats - Switches: 0 SRR-Repls: 293077 BRR-Repls: 0

DRAM Statistics
 CHANNEL 0
 RQ ROW_BUFFER_HIT:     128829  ROW_BUFFER_MISS:     455256
 DBUS_CONGESTED:     429570
 WQ ROW_BUFFER_HIT:      27878  ROW_BUFFER_MISS:     235881  FULL:          0

 AVG_CONGESTED_CYCLE: 13
LOADS RETIRED: 136549171
INSTR RETIRED: 500000000
