
*** ChampSim Multicore Out-of-Order Simulator ***

Warmup Instructions: 100000000
Simulation Instructions: 500000000
Number of CPUs: 1
LLC sets: 2048
LLC ways: 16
Clean RRIP Policies: 1213030112130301 Dirty RRIP Policies: 2213130122131301 PSEL Width: 10 Track Set: 4294967295 PSEL Mask: 1 Demote Mask: 3040241030402410DS Algo: 0Window size: 0
Off-chip DRAM Size: 4096 MB Channels: 1 Width: 64-bit Data Rate: 1600 MT/s

CPU 0 runs /mnt/beegfs/iconst01/spec2017/Gcc.trace.gz
NOT SORTED
TRACE STRING: /mnt/beegfs/iconst01/spec2017/Gcc.trace.gz
SORTED
TRACE STRING: /mnt/beegfs/iconst01/spec2017/Gcc.trace.gz
INITIAL
TRACE STRING: /mnt/beegfs/iconst01/spec2017/Gcc.trace.gz

champsim_seed used: 269

CPU 0 L1D next line prefetcher
CPU 0 L2C IP-based stride prefetcher
Initialize DRRIP state
Assign rand_sets[0]: 454  LLC: 2048
rand_sets[0]: 454
Assign rand_sets[1]: 1662  LLC: 2048
rand_sets[1]: 1662
Assign rand_sets[2]: 1921  LLC: 2048
rand_sets[2]: 1921
Assign rand_sets[3]: 1131  LLC: 2048
rand_sets[3]: 1131
Assign rand_sets[4]: 331  LLC: 2048
rand_sets[4]: 331
Assign rand_sets[5]: 1531  LLC: 2048
rand_sets[5]: 1531
Assign rand_sets[6]: 482  LLC: 2048
rand_sets[6]: 482
Assign rand_sets[7]: 1275  LLC: 2048
rand_sets[7]: 1275
Assign rand_sets[8]: 1876  LLC: 2048
rand_sets[8]: 1876
Assign rand_sets[9]: 2038  LLC: 2048
rand_sets[9]: 2038
Assign rand_sets[10]: 701  LLC: 2048
rand_sets[10]: 701
Assign rand_sets[11]: 479  LLC: 2048
rand_sets[11]: 479
Assign rand_sets[12]: 892  LLC: 2048
rand_sets[12]: 892
Assign rand_sets[13]: 1820  LLC: 2048
rand_sets[13]: 1820
Assign rand_sets[14]: 1505  LLC: 2048
rand_sets[14]: 1505
Assign rand_sets[15]: 1159  LLC: 2048
rand_sets[15]: 1159
Assign rand_sets[16]: 513  LLC: 2048
rand_sets[16]: 513
Assign rand_sets[17]: 703  LLC: 2048
rand_sets[17]: 703
Assign rand_sets[18]: 561  LLC: 2048
rand_sets[18]: 561
Assign rand_sets[19]: 990  LLC: 2048
rand_sets[19]: 990
Assign rand_sets[20]: 342  LLC: 2048
rand_sets[20]: 342
Assign rand_sets[21]: 882  LLC: 2048
rand_sets[21]: 882
Assign rand_sets[22]: 15  LLC: 2048
rand_sets[22]: 15
Assign rand_sets[23]: 71  LLC: 2048
rand_sets[23]: 71
Assign rand_sets[24]: 1127  LLC: 2048
rand_sets[24]: 1127
Assign rand_sets[25]: 1382  LLC: 2048
rand_sets[25]: 1382
Assign rand_sets[26]: 647  LLC: 2048
rand_sets[26]: 647
Assign rand_sets[27]: 857  LLC: 2048
rand_sets[27]: 857
Assign rand_sets[28]: 1450  LLC: 2048
rand_sets[28]: 1450
Assign rand_sets[29]: 1160  LLC: 2048
rand_sets[29]: 1160
Assign rand_sets[30]: 1852  LLC: 2048
rand_sets[30]: 1852
Assign rand_sets[31]: 1881  LLC: 2048
rand_sets[31]: 1881
Assign rand_sets[32]: 1770  LLC: 2048
rand_sets[32]: 1770
Assign rand_sets[33]: 1622  LLC: 2048
rand_sets[33]: 1622
Assign rand_sets[34]: 275  LLC: 2048
rand_sets[34]: 275
Assign rand_sets[35]: 635  LLC: 2048
rand_sets[35]: 635
Assign rand_sets[36]: 466  LLC: 2048
rand_sets[36]: 466
Assign rand_sets[37]: 1413  LLC: 2048
rand_sets[37]: 1413
Assign rand_sets[38]: 417  LLC: 2048
rand_sets[38]: 417
Assign rand_sets[39]: 472  LLC: 2048
rand_sets[39]: 472
Assign rand_sets[40]: 1340  LLC: 2048
rand_sets[40]: 1340
Assign rand_sets[41]: 852  LLC: 2048
rand_sets[41]: 852
Assign rand_sets[42]: 1365  LLC: 2048
rand_sets[42]: 1365
Assign rand_sets[43]: 47  LLC: 2048
rand_sets[43]: 47
Assign rand_sets[44]: 823  LLC: 2048
rand_sets[44]: 823
Assign rand_sets[45]: 686  LLC: 2048
rand_sets[45]: 686
Assign rand_sets[46]: 1637  LLC: 2048
rand_sets[46]: 1637
Assign rand_sets[47]: 1115  LLC: 2048
rand_sets[47]: 1115
Assign rand_sets[48]: 986  LLC: 2048
rand_sets[48]: 986
Assign rand_sets[49]: 258  LLC: 2048
rand_sets[49]: 258
Assign rand_sets[50]: 633  LLC: 2048
rand_sets[50]: 633
Assign rand_sets[51]: 920  LLC: 2048
rand_sets[51]: 920
Assign rand_sets[52]: 204  LLC: 2048
rand_sets[52]: 204
Assign rand_sets[53]: 227  LLC: 2048
rand_sets[53]: 227
Assign rand_sets[54]: 1818  LLC: 2048
rand_sets[54]: 1818
Assign rand_sets[55]: 886  LLC: 2048
rand_sets[55]: 886
Assign rand_sets[56]: 1422  LLC: 2048
rand_sets[56]: 1422
Assign rand_sets[57]: 607  LLC: 2048
rand_sets[57]: 607
Assign rand_sets[58]: 217  LLC: 2048
rand_sets[58]: 217
Assign rand_sets[59]: 1945  LLC: 2048
rand_sets[59]: 1945
Assign rand_sets[60]: 143  LLC: 2048
rand_sets[60]: 143
Assign rand_sets[61]: 1311  LLC: 2048
rand_sets[61]: 1311
Assign rand_sets[62]: 319  LLC: 2048
rand_sets[62]: 319
Assign rand_sets[63]: 1846  LLC: 2048
rand_sets[63]: 1846
 CLEAN-RRIP-POLICY-1: 1-2-1-3-0-3-0-1- CLEAN-RRIP-POLICY-2: 1-2-1-3-0-3-0-1-
 DIRTY-RRIP-POLICY-1: 2-2-1-3-1-3-0-1- DIRTY-RRIP-POLICY-2: 2-2-1-3-1-3-0-1-
 PSEL width: 10
Heartbeat CPU 0 instructions: 10000001 cycles: 7315979 heartbeat IPC: 1.36687 cumulative IPC: 1.36687 (Simulation time: 0 hr 0 min 13 sec) 
Heartbeat CPU 0 instructions: 20000000 cycles: 14307450 heartbeat IPC: 1.43031 cumulative IPC: 1.39787 (Simulation time: 0 hr 0 min 27 sec) 
Heartbeat CPU 0 instructions: 30000001 cycles: 21020289 heartbeat IPC: 1.48968 cumulative IPC: 1.42719 (Simulation time: 0 hr 0 min 42 sec) 
Heartbeat CPU 0 instructions: 40000000 cycles: 27481057 heartbeat IPC: 1.5478 cumulative IPC: 1.45555 (Simulation time: 0 hr 0 min 57 sec) 
Heartbeat CPU 0 instructions: 50000001 cycles: 33582732 heartbeat IPC: 1.63889 cumulative IPC: 1.48886 (Simulation time: 0 hr 1 min 11 sec) 
Heartbeat CPU 0 instructions: 60000000 cycles: 40063866 heartbeat IPC: 1.54294 cumulative IPC: 1.49761 (Simulation time: 0 hr 1 min 26 sec) 
Heartbeat CPU 0 instructions: 70000000 cycles: 47102011 heartbeat IPC: 1.42083 cumulative IPC: 1.48614 (Simulation time: 0 hr 1 min 40 sec) 
Heartbeat CPU 0 instructions: 80000000 cycles: 54191487 heartbeat IPC: 1.41054 cumulative IPC: 1.47625 (Simulation time: 0 hr 1 min 54 sec) 
Heartbeat CPU 0 instructions: 90000003 cycles: 61195732 heartbeat IPC: 1.42771 cumulative IPC: 1.47069 (Simulation time: 0 hr 2 min 7 sec) 
Heartbeat CPU 0 instructions: 100000000 cycles: 68362762 heartbeat IPC: 1.39528 cumulative IPC: 1.46278 (Simulation time: 0 hr 2 min 21 sec) 

Warmup complete CPU 0 instructions: 100000004 cycles: 68362763 (Simulation time: 0 hr 2 min 21 sec) 

Heartbeat CPU 0 instructions: 110000003 cycles: 95991703 heartbeat IPC: 0.361939 cumulative IPC: 0.361939 (Simulation time: 0 hr 2 min 46 sec) 
Heartbeat CPU 0 instructions: 120000000 cycles: 123444290 heartbeat IPC: 0.364264 cumulative IPC: 0.363098 (Simulation time: 0 hr 3 min 12 sec) 
Heartbeat CPU 0 instructions: 130000000 cycles: 148416600 heartbeat IPC: 0.400444 cumulative IPC: 0.374748 (Simulation time: 0 hr 3 min 38 sec) 
Heartbeat CPU 0 instructions: 140000000 cycles: 177840971 heartbeat IPC: 0.339854 cumulative IPC: 0.365369 (Simulation time: 0 hr 4 min 3 sec) 
Heartbeat CPU 0 instructions: 150000000 cycles: 207661890 heartbeat IPC: 0.335335 cumulative IPC: 0.35894 (Simulation time: 0 hr 4 min 28 sec) 
Heartbeat CPU 0 instructions: 160000000 cycles: 235057585 heartbeat IPC: 0.365021 cumulative IPC: 0.359939 (Simulation time: 0 hr 4 min 53 sec) 
Heartbeat CPU 0 instructions: 170000001 cycles: 263062638 heartbeat IPC: 0.357078 cumulative IPC: 0.359528 (Simulation time: 0 hr 5 min 19 sec) 
Heartbeat CPU 0 instructions: 180000000 cycles: 291495399 heartbeat IPC: 0.351707 cumulative IPC: 0.358531 (Simulation time: 0 hr 5 min 45 sec) 
Heartbeat CPU 0 instructions: 190000002 cycles: 319484305 heartbeat IPC: 0.357284 cumulative IPC: 0.358392 (Simulation time: 0 hr 6 min 11 sec) 
Heartbeat CPU 0 instructions: 200000000 cycles: 347798682 heartbeat IPC: 0.353177 cumulative IPC: 0.357864 (Simulation time: 0 hr 6 min 37 sec) 
Heartbeat CPU 0 instructions: 210000002 cycles: 375603372 heartbeat IPC: 0.359652 cumulative IPC: 0.358026 (Simulation time: 0 hr 7 min 2 sec) 
Heartbeat CPU 0 instructions: 220000000 cycles: 404664676 heartbeat IPC: 0.3441 cumulative IPC: 0.356822 (Simulation time: 0 hr 7 min 27 sec) 
Heartbeat CPU 0 instructions: 230000000 cycles: 432180731 heartbeat IPC: 0.363424 cumulative IPC: 0.357322 (Simulation time: 0 hr 7 min 51 sec) 
Heartbeat CPU 0 instructions: 240000000 cycles: 458105800 heartbeat IPC: 0.385727 cumulative IPC: 0.359211 (Simulation time: 0 hr 8 min 16 sec) 
Heartbeat CPU 0 instructions: 250000000 cycles: 488224606 heartbeat IPC: 0.332018 cumulative IPC: 0.35726 (Simulation time: 0 hr 8 min 42 sec) 
Heartbeat CPU 0 instructions: 260000000 cycles: 515314264 heartbeat IPC: 0.369145 cumulative IPC: 0.357981 (Simulation time: 0 hr 9 min 7 sec) 
Heartbeat CPU 0 instructions: 270000003 cycles: 543747001 heartbeat IPC: 0.351707 cumulative IPC: 0.357605 (Simulation time: 0 hr 9 min 34 sec) 
Heartbeat CPU 0 instructions: 280000000 cycles: 571919255 heartbeat IPC: 0.354959 cumulative IPC: 0.357457 (Simulation time: 0 hr 10 min 0 sec) 
Heartbeat CPU 0 instructions: 290000000 cycles: 600792243 heartbeat IPC: 0.346344 cumulative IPC: 0.356855 (Simulation time: 0 hr 10 min 27 sec) 
Heartbeat CPU 0 instructions: 300000000 cycles: 630637056 heartbeat IPC: 0.335067 cumulative IPC: 0.355698 (Simulation time: 0 hr 10 min 52 sec) 
Heartbeat CPU 0 instructions: 310000001 cycles: 659968761 heartbeat IPC: 0.340928 cumulative IPC: 0.354966 (Simulation time: 0 hr 11 min 17 sec) 
Heartbeat CPU 0 instructions: 320000000 cycles: 688121392 heartbeat IPC: 0.355207 cumulative IPC: 0.354977 (Simulation time: 0 hr 11 min 42 sec) 
Heartbeat CPU 0 instructions: 330000000 cycles: 716705680 heartbeat IPC: 0.349843 cumulative IPC: 0.354751 (Simulation time: 0 hr 12 min 7 sec) 
Heartbeat CPU 0 instructions: 340000000 cycles: 745943222 heartbeat IPC: 0.342026 cumulative IPC: 0.354201 (Simulation time: 0 hr 12 min 32 sec) 
Heartbeat CPU 0 instructions: 350000003 cycles: 772935978 heartbeat IPC: 0.37047 cumulative IPC: 0.354825 (Simulation time: 0 hr 12 min 57 sec) 
Heartbeat CPU 0 instructions: 360000000 cycles: 801013856 heartbeat IPC: 0.356152 cumulative IPC: 0.354876 (Simulation time: 0 hr 13 min 20 sec) 
Heartbeat CPU 0 instructions: 370000000 cycles: 829190950 heartbeat IPC: 0.354898 cumulative IPC: 0.354876 (Simulation time: 0 hr 13 min 44 sec) 
Heartbeat CPU 0 instructions: 380000000 cycles: 857690205 heartbeat IPC: 0.350886 cumulative IPC: 0.354732 (Simulation time: 0 hr 14 min 8 sec) 
Heartbeat CPU 0 instructions: 390000001 cycles: 885297661 heartbeat IPC: 0.362221 cumulative IPC: 0.354985 (Simulation time: 0 hr 14 min 32 sec) 
Heartbeat CPU 0 instructions: 400000000 cycles: 913914741 heartbeat IPC: 0.349442 cumulative IPC: 0.354798 (Simulation time: 0 hr 14 min 56 sec) 
Heartbeat CPU 0 instructions: 410000001 cycles: 941220317 heartbeat IPC: 0.366226 cumulative IPC: 0.355155 (Simulation time: 0 hr 15 min 19 sec) 
Heartbeat CPU 0 instructions: 420000000 cycles: 968530638 heartbeat IPC: 0.366162 cumulative IPC: 0.355489 (Simulation time: 0 hr 15 min 43 sec) 
Heartbeat CPU 0 instructions: 430000002 cycles: 996205838 heartbeat IPC: 0.361334 cumulative IPC: 0.355664 (Simulation time: 0 hr 16 min 6 sec) 
Heartbeat CPU 0 instructions: 440000000 cycles: 1025700094 heartbeat IPC: 0.339049 cumulative IPC: 0.355152 (Simulation time: 0 hr 16 min 30 sec) 
Heartbeat CPU 0 instructions: 450000002 cycles: 1054919115 heartbeat IPC: 0.342243 cumulative IPC: 0.354769 (Simulation time: 0 hr 16 min 54 sec) 
Heartbeat CPU 0 instructions: 460000000 cycles: 1082599008 heartbeat IPC: 0.361273 cumulative IPC: 0.354947 (Simulation time: 0 hr 17 min 18 sec) 
Heartbeat CPU 0 instructions: 470000000 cycles: 1110232523 heartbeat IPC: 0.361879 cumulative IPC: 0.355131 (Simulation time: 0 hr 17 min 42 sec) 
Heartbeat CPU 0 instructions: 480000000 cycles: 1138118222 heartbeat IPC: 0.358607 cumulative IPC: 0.355221 (Simulation time: 0 hr 18 min 5 sec) 
Heartbeat CPU 0 instructions: 490000000 cycles: 1165710402 heartbeat IPC: 0.362422 cumulative IPC: 0.355402 (Simulation time: 0 hr 18 min 29 sec) 
Heartbeat CPU 0 instructions: 500000000 cycles: 1193993026 heartbeat IPC: 0.353574 cumulative IPC: 0.355356 (Simulation time: 0 hr 18 min 53 sec) 
Heartbeat CPU 0 instructions: 510000000 cycles: 1228667064 heartbeat IPC: 0.2884 cumulative IPC: 0.353356 (Simulation time: 0 hr 19 min 20 sec) 
Heartbeat CPU 0 instructions: 520000000 cycles: 1256614345 heartbeat IPC: 0.357817 cumulative IPC: 0.35346 (Simulation time: 0 hr 19 min 44 sec) 
Heartbeat CPU 0 instructions: 530000001 cycles: 1285862193 heartbeat IPC: 0.341906 cumulative IPC: 0.353183 (Simulation time: 0 hr 20 min 9 sec) 
Heartbeat CPU 0 instructions: 540000000 cycles: 1313857651 heartbeat IPC: 0.357201 cumulative IPC: 0.353273 (Simulation time: 0 hr 20 min 34 sec) 
Heartbeat CPU 0 instructions: 550000001 cycles: 1343035209 heartbeat IPC: 0.342729 cumulative IPC: 0.353032 (Simulation time: 0 hr 21 min 0 sec) 
Heartbeat CPU 0 instructions: 560000000 cycles: 1368387611 heartbeat IPC: 0.39444 cumulative IPC: 0.353839 (Simulation time: 0 hr 21 min 24 sec) 
Heartbeat CPU 0 instructions: 570000000 cycles: 1397817950 heartbeat IPC: 0.339785 cumulative IPC: 0.353528 (Simulation time: 0 hr 21 min 49 sec) 
Heartbeat CPU 0 instructions: 580000000 cycles: 1425752864 heartbeat IPC: 0.357975 cumulative IPC: 0.35362 (Simulation time: 0 hr 22 min 14 sec) 
Heartbeat CPU 0 instructions: 590000001 cycles: 1450525717 heartbeat IPC: 0.403668 cumulative IPC: 0.354517 (Simulation time: 0 hr 22 min 37 sec) 
Heartbeat CPU 0 instructions: 600000000 cycles: 1476624869 heartbeat IPC: 0.383154 cumulative IPC: 0.355048 (Simulation time: 0 hr 23 min 1 sec) 
Finished CPU 0 instructions: 500000000 cycles: 1408262128 cumulative IPC: 0.355048 (Simulation time: 0 hr 23 min 1 sec) 

CPU 0 Branch Prediction Accuracy: 86.4311% MPKI: 26.2662
Number of Branches: 96788573 Number of Mispredictions: 13133102
Number of LOAD Instructions: 164682285
Number of LOAD Instructions (ROI): 164682285
Number of STORE Instructions: 78194750
Number of STORE Instructions (ROI): 78194750
Total Destination Memory Operands: 83268534
Total Destination Memory Operands (ROI): 83268534
Total Source Memory Operands: 164712438
Total Source Memory Operands (ROI): 164712438
Number of DEPENDED LOADS: 7060279
Number of DEPENDED LOADS (ROI): 7060279
Number of SQ_ADDED: 83268522
Number of SQ_ADDED (ROI): 83268522
Number of LQ_ADDED: 236756479
Number of LQ_ADDED (ROI): 236756479
Number of Instructions read from trace: 600000066

ChampSim completed all CPUs

Region of Interest Statistics

CPU 0 cumulative IPC: 0.355048 instructions: 500000000 cycles: 1408262128
ITLB TOTAL     ACCESS:  100513010  HIT:  100308564  MISS:     204446
ITLB LOAD      ACCESS:  100513010  HIT:  100308564  MISS:     204446
ITLB RFO       ACCESS:          0  HIT:          0  MISS:          0
ITLB PREFETCH  ACCESS:          0  HIT:          0  MISS:          0
ITLB WRITEBACK ACCESS:          0  HIT:          0  MISS:          0
ITLB PREFETCH  REQUESTED:          0  ISSUED:          0  USEFUL:          0  USELESS:          0
ITLB TOTAL MSHR MERGED:     172424
ITLB LOAD MSHR MERGED:     172424
ITLB RFO MSHR MERGED:          0
ITLB PREFETCH MSHR MERGED:          0
ITLB WRITEBACK MSHR MERGED:          0
ITLB TOTAL ACCESSES:  100685434 HITS:  100308564 MISSES:     376870
ITLB LOAD ACCESSES:  100685434 HITS:  100308564 MISSES:     376870
ITLB RFO ACCESSES:          0 HITS:          0 MISSES:          0
ITLB PREFETCH ACCESSES:          0 HITS:          0 MISSES:          0
ITLB WRITEBACK ACCESSES:          0 HITS:          0 MISSES:          0
ITLB RQ ACCESS:  500000057
ITLB RQ TO_CACHE:  100685434
ITLB RQ MERGED:  399314623
ITLB RQ FORWARD:          0
ITLB WQ ACCESS:          0
ITLB WQ TO_CACHE:          0
ITLB WQ MERGED:          0
ITLB WQ FORWARD:          0
DTLB TOTAL     ACCESS:  165335445  HIT:  164701095  MISS:     634350
DTLB LOAD      ACCESS:  106291464  HIT:  105721512  MISS:     569952
DTLB RFO       ACCESS:   59043981  HIT:   58979583  MISS:      64398
DTLB PREFETCH  ACCESS:          0  HIT:          0  MISS:          0
DTLB WRITEBACK ACCESS:          0  HIT:          0  MISS:          0
DTLB PREFETCH  REQUESTED:          0  ISSUED:          0  USEFUL:          0  USELESS:          0
DTLB TOTAL MSHR MERGED:      99977
DTLB LOAD MSHR MERGED:      59479
DTLB RFO MSHR MERGED:      40498
DTLB PREFETCH MSHR MERGED:          0
DTLB WRITEBACK MSHR MERGED:          0
DTLB TOTAL ACCESSES:  165435422 HITS:  164701095 MISSES:     734327
DTLB LOAD ACCESSES:  106350943 HITS:  105721512 MISSES:     629431
DTLB RFO ACCESSES:   59084479 HITS:   58979583 MISSES:     104896
DTLB PREFETCH ACCESSES:          0 HITS:          0 MISSES:          0
DTLB WRITEBACK ACCESSES:          0 HITS:          0 MISSES:          0
DTLB RQ ACCESS:  200310608
DTLB RQ TO_CACHE:  165435422
DTLB RQ MERGED:   34875186
DTLB RQ FORWARD:          0
DTLB WQ ACCESS:          0
DTLB WQ TO_CACHE:          0
DTLB WQ MERGED:          0
DTLB WQ FORWARD:          0
L1D TOTAL     ACCESS:  281812616  HIT:  273903327  MISS:    7909289
L1D LOAD      ACCESS:  110414841  HIT:  107136503  MISS:    3278338
L1D RFO       ACCESS:   67106584  HIT:   66215421  MISS:     891163
L1D PREFETCH  ACCESS:  104291191  HIT:  100551403  MISS:    3739788
L1D WRITEBACK ACCESS:          0  HIT:          0  MISS:          0
L1D PREFETCH  REQUESTED:  110816289  ISSUED:  109117005  USEFUL:    1660571  USELESS:    2079181
L1D TOTAL MSHR MERGED:    2889870
L1D LOAD MSHR MERGED:     499275
L1D RFO MSHR MERGED:    1879914
L1D PREFETCH MSHR MERGED:     510681
L1D WRITEBACK MSHR MERGED:          0
L1D TOTAL ACCESSES:  284730034 HITS:  273930875 MISSES:   10799159
L1D LOAD ACCESSES:  110817844 HITS:  107138058 MISSES:    3679786
L1D RFO ACCESSES:   68974125 HITS:   66215421 MISSES:    2758704
L1D PREFETCH ACCESSES:  104938065 HITS:  100577396 MISSES:    4360669
L1D WRITEBACK ACCESSES:          0 HITS:          0 MISSES:          0
L1D RQ ACCESS:  130758005
L1D RQ TO_CACHE:  110816292
L1D RQ MERGED:   19940158
L1D RQ FORWARD:          0
L1D WQ ACCESS:   69552603
L1D WQ TO_CACHE:   68974126
L1D WQ MERGED:     578477
L1D WQ FORWARD:      27548
L1I TOTAL     ACCESS:  126560769  HIT:  122322216  MISS:    4238553
L1I LOAD      ACCESS:  126560769  HIT:  122322216  MISS:    4238553
L1I RFO       ACCESS:          0  HIT:          0  MISS:          0
L1I PREFETCH  ACCESS:          0  HIT:          0  MISS:          0
L1I WRITEBACK ACCESS:          0  HIT:          0  MISS:          0
L1I PREFETCH  REQUESTED:          0  ISSUED:          0  USEFUL:          0  USELESS:          0
L1I TOTAL MSHR MERGED:    1834487
L1I LOAD MSHR MERGED:    1834487
L1I RFO MSHR MERGED:          0
L1I PREFETCH MSHR MERGED:          0
L1I WRITEBACK MSHR MERGED:          0
L1I TOTAL ACCESSES:  128395259 HITS:  122322216 MISSES:    6073043
L1I LOAD ACCESSES:  128395259 HITS:  122322216 MISSES:    6073043
L1I RFO ACCESSES:          0 HITS:          0 MISSES:          0
L1I PREFETCH ACCESSES:          0 HITS:          0 MISSES:          0
L1I WRITEBACK ACCESSES:          0 HITS:          0 MISSES:          0
L1I RQ ACCESS:  500000057
L1I RQ TO_CACHE:  128395259
L1I RQ MERGED:  371604798
L1I RQ FORWARD:          0
L1I WQ ACCESS:          0
L1I WQ TO_CACHE:          0
L1I WQ MERGED:          0
L1I WQ FORWARD:          0
L2C TOTAL     ACCESS:   14904318  HIT:   11157824  MISS:    3746494
L2C LOAD      ACCESS:    7418853  HIT:    5098617  MISS:    2320236
L2C RFO       ACCESS:     878692  HIT:     409903  MISS:     468789
L2C PREFETCH  ACCESS:    4567543  HIT:    3627329  MISS:     940214
L2C WRITEBACK ACCESS:    2039230  HIT:    2021975  MISS:      17255
L2C PREFETCH  REQUESTED:     842699  ISSUED:     842699  USEFUL:     203136  USELESS:     736784
L2C TOTAL MSHR MERGED:       7834
L2C LOAD MSHR MERGED:       1006
L2C RFO MSHR MERGED:          0
L2C PREFETCH MSHR MERGED:       6828
L2C WRITEBACK MSHR MERGED:          0
L2C TOTAL ACCESSES:   14913072 HITS:   11158276 MISSES:    3754796
L2C LOAD ACCESSES:    7419064 HITS:    5098828 MISSES:    2320236
L2C RFO ACCESSES:     878790 HITS:     410001 MISSES:     468789
L2C PREFETCH ACCESSES:    4575988 HITS:    3627472 MISSES:     948516
L2C WRITEBACK ACCESSES:    2039230 HITS:    2021975 MISSES:      17255
L2C RQ ACCESS:    8297857
L2C RQ TO_CACHE:    8297548
L2C RQ MERGED:          0
L2C RQ FORWARD:          0
L2C WQ ACCESS:    2039230
L2C WQ TO_CACHE:    2039230
L2C WQ MERGED:          0
L2C WQ FORWARD:        452
LLC TOTAL     ACCESS:    4609840  HIT:    3933189  MISS:     676651
LLC LOAD      ACCESS:    2319215  HIT:    2090419  MISS:     228796
LLC RFO       ACCESS:     468779  HIT:     382801  MISS:      85978
LLC PREFETCH  ACCESS:     941564  HIT:     647178  MISS:     294386
LLC WRITEBACK ACCESS:     880282  HIT:     812791  MISS:      67491
LLC PREFETCH  REQUESTED:          0  ISSUED:          0  USEFUL:      16882  USELESS:     278082
LLC TOTAL MSHR MERGED:        105
LLC LOAD MSHR MERGED:         38
LLC RFO MSHR MERGED:          0
LLC PREFETCH MSHR MERGED:         67
LLC WRITEBACK MSHR MERGED:          0
LLC TOTAL ACCESSES:    4609980 HITS:    3933224 MISSES:     676756
LLC LOAD ACCESSES:    2319230 HITS:    2090434 MISSES:     228796
LLC RFO ACCESSES:     468789 HITS:     382811 MISSES:      85978
LLC PREFETCH ACCESSES:     941679 HITS:     647188 MISSES:     294491
LLC WRITEBACK ACCESSES:     880282 HITS:     812791 MISSES:      67491
LLC 0 RQ ACCESS:    2788019
LLC 0 RQ TO_CACHE:    2787994
LLC 0 RQ MERGED:          0
LLC 0 RQ FORWARD:          0
LLC WQ ACCESS:     880282
LLC WQ TO_CACHE:     880282
LLC WQ MERGED:          0
LLC WQ FORWARD:         35
Major fault: 0 Minor fault: 12862
CPU 0 L1D next line prefetcher final stats
CPU 0 L2C PC-based stride prefetcher final stats
All Misses: 803986
All Hits: 4622860
SD Algo Stats - Switches: 0 SRR-Repls: 268686 BRR-Repls: 0

DRAM Statistics
 CHANNEL 0
 RQ ROW_BUFFER_HIT:     123972  ROW_BUFFER_MISS:     483393
 DBUS_CONGESTED:     376815
 WQ ROW_BUFFER_HIT:      17173  ROW_BUFFER_MISS:     197043  FULL:          0

 AVG_CONGESTED_CYCLE: 13
LOADS RETIRED: 136549171
INSTR RETIRED: 500000000
