
*** ChampSim Multicore Out-of-Order Simulator ***

Warmup Instructions: 100000000
Simulation Instructions: 500000000
Number of CPUs: 1
LLC sets: 2048
LLC ways: 16
Clean RRIP Policies: 323030003230300 Dirty RRIP Policies: 313030003130300 PSEL Width: 10 Track Set: 4294967295 PSEL Mask: 1 Demote Mask: 21021400210214DS Algo: 0Window size: 0
Off-chip DRAM Size: 4096 MB Channels: 1 Width: 64-bit Data Rate: 1600 MT/s

CPU 0 runs /mnt/beegfs/iconst01/spec2017/Roms.trace.gz
NOT SORTED
TRACE STRING: /mnt/beegfs/iconst01/spec2017/Roms.trace.gz
SORTED
TRACE STRING: /mnt/beegfs/iconst01/spec2017/Roms.trace.gz
INITIAL
TRACE STRING: /mnt/beegfs/iconst01/spec2017/Roms.trace.gz

champsim_seed used: 417

CPU 0 L1D next line prefetcher
CPU 0 L2C IP-based stride prefetcher
Initialize DRRIP state
Assign rand_sets[0]: 454  LLC: 2048
rand_sets[0]: 454
Assign rand_sets[1]: 1662  LLC: 2048
rand_sets[1]: 1662
Assign rand_sets[2]: 1921  LLC: 2048
rand_sets[2]: 1921
Assign rand_sets[3]: 1131  LLC: 2048
rand_sets[3]: 1131
Assign rand_sets[4]: 331  LLC: 2048
rand_sets[4]: 331
Assign rand_sets[5]: 1531  LLC: 2048
rand_sets[5]: 1531
Assign rand_sets[6]: 482  LLC: 2048
rand_sets[6]: 482
Assign rand_sets[7]: 1275  LLC: 2048
rand_sets[7]: 1275
Assign rand_sets[8]: 1876  LLC: 2048
rand_sets[8]: 1876
Assign rand_sets[9]: 2038  LLC: 2048
rand_sets[9]: 2038
Assign rand_sets[10]: 701  LLC: 2048
rand_sets[10]: 701
Assign rand_sets[11]: 479  LLC: 2048
rand_sets[11]: 479
Assign rand_sets[12]: 892  LLC: 2048
rand_sets[12]: 892
Assign rand_sets[13]: 1820  LLC: 2048
rand_sets[13]: 1820
Assign rand_sets[14]: 1505  LLC: 2048
rand_sets[14]: 1505
Assign rand_sets[15]: 1159  LLC: 2048
rand_sets[15]: 1159
Assign rand_sets[16]: 513  LLC: 2048
rand_sets[16]: 513
Assign rand_sets[17]: 703  LLC: 2048
rand_sets[17]: 703
Assign rand_sets[18]: 561  LLC: 2048
rand_sets[18]: 561
Assign rand_sets[19]: 990  LLC: 2048
rand_sets[19]: 990
Assign rand_sets[20]: 342  LLC: 2048
rand_sets[20]: 342
Assign rand_sets[21]: 882  LLC: 2048
rand_sets[21]: 882
Assign rand_sets[22]: 15  LLC: 2048
rand_sets[22]: 15
Assign rand_sets[23]: 71  LLC: 2048
rand_sets[23]: 71
Assign rand_sets[24]: 1127  LLC: 2048
rand_sets[24]: 1127
Assign rand_sets[25]: 1382  LLC: 2048
rand_sets[25]: 1382
Assign rand_sets[26]: 647  LLC: 2048
rand_sets[26]: 647
Assign rand_sets[27]: 857  LLC: 2048
rand_sets[27]: 857
Assign rand_sets[28]: 1450  LLC: 2048
rand_sets[28]: 1450
Assign rand_sets[29]: 1160  LLC: 2048
rand_sets[29]: 1160
Assign rand_sets[30]: 1852  LLC: 2048
rand_sets[30]: 1852
Assign rand_sets[31]: 1881  LLC: 2048
rand_sets[31]: 1881
Assign rand_sets[32]: 1770  LLC: 2048
rand_sets[32]: 1770
Assign rand_sets[33]: 1622  LLC: 2048
rand_sets[33]: 1622
Assign rand_sets[34]: 275  LLC: 2048
rand_sets[34]: 275
Assign rand_sets[35]: 635  LLC: 2048
rand_sets[35]: 635
Assign rand_sets[36]: 466  LLC: 2048
rand_sets[36]: 466
Assign rand_sets[37]: 1413  LLC: 2048
rand_sets[37]: 1413
Assign rand_sets[38]: 417  LLC: 2048
rand_sets[38]: 417
Assign rand_sets[39]: 472  LLC: 2048
rand_sets[39]: 472
Assign rand_sets[40]: 1340  LLC: 2048
rand_sets[40]: 1340
Assign rand_sets[41]: 852  LLC: 2048
rand_sets[41]: 852
Assign rand_sets[42]: 1365  LLC: 2048
rand_sets[42]: 1365
Assign rand_sets[43]: 47  LLC: 2048
rand_sets[43]: 47
Assign rand_sets[44]: 823  LLC: 2048
rand_sets[44]: 823
Assign rand_sets[45]: 686  LLC: 2048
rand_sets[45]: 686
Assign rand_sets[46]: 1637  LLC: 2048
rand_sets[46]: 1637
Assign rand_sets[47]: 1115  LLC: 2048
rand_sets[47]: 1115
Assign rand_sets[48]: 986  LLC: 2048
rand_sets[48]: 986
Assign rand_sets[49]: 258  LLC: 2048
rand_sets[49]: 258
Assign rand_sets[50]: 633  LLC: 2048
rand_sets[50]: 633
Assign rand_sets[51]: 920  LLC: 2048
rand_sets[51]: 920
Assign rand_sets[52]: 204  LLC: 2048
rand_sets[52]: 204
Assign rand_sets[53]: 227  LLC: 2048
rand_sets[53]: 227
Assign rand_sets[54]: 1818  LLC: 2048
rand_sets[54]: 1818
Assign rand_sets[55]: 886  LLC: 2048
rand_sets[55]: 886
Assign rand_sets[56]: 1422  LLC: 2048
rand_sets[56]: 1422
Assign rand_sets[57]: 607  LLC: 2048
rand_sets[57]: 607
Assign rand_sets[58]: 217  LLC: 2048
rand_sets[58]: 217
Assign rand_sets[59]: 1945  LLC: 2048
rand_sets[59]: 1945
Assign rand_sets[60]: 143  LLC: 2048
rand_sets[60]: 143
Assign rand_sets[61]: 1311  LLC: 2048
rand_sets[61]: 1311
Assign rand_sets[62]: 319  LLC: 2048
rand_sets[62]: 319
Assign rand_sets[63]: 1846  LLC: 2048
rand_sets[63]: 1846
 CLEAN-RRIP-POLICY-1: 0-3-2-3-0-3-0-0- CLEAN-RRIP-POLICY-2: 0-3-2-3-0-3-0-0-
 DIRTY-RRIP-POLICY-1: 0-3-1-3-0-3-0-0- DIRTY-RRIP-POLICY-2: 0-3-1-3-0-3-0-0-
 PSEL width: 10
Heartbeat CPU 0 instructions: 10000000 cycles: 4687915 heartbeat IPC: 2.13314 cumulative IPC: 2.13314 (Simulation time: 0 hr 0 min 17 sec) 
Heartbeat CPU 0 instructions: 20000000 cycles: 9325071 heartbeat IPC: 2.15649 cumulative IPC: 2.14476 (Simulation time: 0 hr 0 min 34 sec) 
Heartbeat CPU 0 instructions: 30000003 cycles: 14019359 heartbeat IPC: 2.13025 cumulative IPC: 2.1399 (Simulation time: 0 hr 0 min 50 sec) 
Heartbeat CPU 0 instructions: 40000000 cycles: 18669718 heartbeat IPC: 2.15037 cumulative IPC: 2.14251 (Simulation time: 0 hr 1 min 7 sec) 
Heartbeat CPU 0 instructions: 50000003 cycles: 23323003 heartbeat IPC: 2.14902 cumulative IPC: 2.14381 (Simulation time: 0 hr 1 min 24 sec) 
Heartbeat CPU 0 instructions: 60000000 cycles: 27975525 heartbeat IPC: 2.14937 cumulative IPC: 2.14473 (Simulation time: 0 hr 1 min 40 sec) 
Heartbeat CPU 0 instructions: 70000002 cycles: 32366709 heartbeat IPC: 2.27729 cumulative IPC: 2.16272 (Simulation time: 0 hr 1 min 55 sec) 
Heartbeat CPU 0 instructions: 80000000 cycles: 36303510 heartbeat IPC: 2.54013 cumulative IPC: 2.20364 (Simulation time: 0 hr 2 min 7 sec) 
Heartbeat CPU 0 instructions: 90000000 cycles: 40248730 heartbeat IPC: 2.53471 cumulative IPC: 2.2361 (Simulation time: 0 hr 2 min 18 sec) 
Heartbeat CPU 0 instructions: 100000000 cycles: 44210972 heartbeat IPC: 2.52382 cumulative IPC: 2.26188 (Simulation time: 0 hr 2 min 30 sec) 

Warmup complete CPU 0 instructions: 100000002 cycles: 44210973 (Simulation time: 0 hr 2 min 30 sec) 

Heartbeat CPU 0 instructions: 110000000 cycles: 52892180 heartbeat IPC: 1.15191 cumulative IPC: 1.15191 (Simulation time: 0 hr 2 min 49 sec) 
Heartbeat CPU 0 instructions: 120000000 cycles: 61562758 heartbeat IPC: 1.15333 cumulative IPC: 1.15262 (Simulation time: 0 hr 3 min 7 sec) 
Heartbeat CPU 0 instructions: 130000002 cycles: 70270498 heartbeat IPC: 1.1484 cumulative IPC: 1.15121 (Simulation time: 0 hr 3 min 26 sec) 
Heartbeat CPU 0 instructions: 140000000 cycles: 78848259 heartbeat IPC: 1.16581 cumulative IPC: 1.15482 (Simulation time: 0 hr 3 min 44 sec) 
Heartbeat CPU 0 instructions: 150000003 cycles: 87590782 heartbeat IPC: 1.14383 cumulative IPC: 1.15261 (Simulation time: 0 hr 4 min 2 sec) 
Heartbeat CPU 0 instructions: 160000000 cycles: 98002885 heartbeat IPC: 0.96042 cumulative IPC: 1.11541 (Simulation time: 0 hr 4 min 22 sec) 
Heartbeat CPU 0 instructions: 170000000 cycles: 110413724 heartbeat IPC: 0.805747 cumulative IPC: 1.05736 (Simulation time: 0 hr 4 min 45 sec) 
Heartbeat CPU 0 instructions: 180000000 cycles: 122809522 heartbeat IPC: 0.806725 cumulative IPC: 1.01783 (Simulation time: 0 hr 5 min 8 sec) 
Heartbeat CPU 0 instructions: 190000000 cycles: 135473065 heartbeat IPC: 0.789668 cumulative IPC: 0.986171 (Simulation time: 0 hr 5 min 31 sec) 
Heartbeat CPU 0 instructions: 200000000 cycles: 149277993 heartbeat IPC: 0.724379 cumulative IPC: 0.951773 (Simulation time: 0 hr 5 min 54 sec) 
Heartbeat CPU 0 instructions: 210000001 cycles: 163109003 heartbeat IPC: 0.723013 cumulative IPC: 0.925162 (Simulation time: 0 hr 6 min 17 sec) 
Heartbeat CPU 0 instructions: 220000000 cycles: 176779713 heartbeat IPC: 0.731491 cumulative IPC: 0.905191 (Simulation time: 0 hr 6 min 41 sec) 
Heartbeat CPU 0 instructions: 230000000 cycles: 190237195 heartbeat IPC: 0.743081 cumulative IPC: 0.890251 (Simulation time: 0 hr 7 min 5 sec) 
Heartbeat CPU 0 instructions: 240000000 cycles: 203776704 heartbeat IPC: 0.738579 cumulative IPC: 0.877381 (Simulation time: 0 hr 7 min 29 sec) 
Heartbeat CPU 0 instructions: 250000003 cycles: 214817951 heartbeat IPC: 0.905695 cumulative IPC: 0.879214 (Simulation time: 0 hr 7 min 51 sec) 
Heartbeat CPU 0 instructions: 260000000 cycles: 222637829 heartbeat IPC: 1.27879 cumulative IPC: 0.896726 (Simulation time: 0 hr 8 min 10 sec) 
Heartbeat CPU 0 instructions: 270000003 cycles: 231169972 heartbeat IPC: 1.17204 cumulative IPC: 0.90929 (Simulation time: 0 hr 8 min 29 sec) 
Heartbeat CPU 0 instructions: 280000000 cycles: 241406574 heartbeat IPC: 0.976886 cumulative IPC: 0.912799 (Simulation time: 0 hr 8 min 51 sec) 
Heartbeat CPU 0 instructions: 290000000 cycles: 251279626 heartbeat IPC: 1.01286 cumulative IPC: 0.91757 (Simulation time: 0 hr 9 min 12 sec) 
Heartbeat CPU 0 instructions: 300000000 cycles: 261027923 heartbeat IPC: 1.02582 cumulative IPC: 0.922437 (Simulation time: 0 hr 9 min 33 sec) 
Heartbeat CPU 0 instructions: 310000000 cycles: 270831296 heartbeat IPC: 1.02006 cumulative IPC: 0.92666 (Simulation time: 0 hr 9 min 55 sec) 
Heartbeat CPU 0 instructions: 320000000 cycles: 280549665 heartbeat IPC: 1.02898 cumulative IPC: 0.930867 (Simulation time: 0 hr 10 min 17 sec) 
Heartbeat CPU 0 instructions: 330000002 cycles: 290244959 heartbeat IPC: 1.03143 cumulative IPC: 0.93483 (Simulation time: 0 hr 10 min 38 sec) 
Heartbeat CPU 0 instructions: 340000000 cycles: 300996665 heartbeat IPC: 0.930085 cumulative IPC: 0.934632 (Simulation time: 0 hr 11 min 1 sec) 
Heartbeat CPU 0 instructions: 350000001 cycles: 310156627 heartbeat IPC: 1.09171 cumulative IPC: 0.940042 (Simulation time: 0 hr 11 min 22 sec) 
Heartbeat CPU 0 instructions: 360000000 cycles: 319275196 heartbeat IPC: 1.09666 cumulative IPC: 0.945234 (Simulation time: 0 hr 11 min 43 sec) 
Heartbeat CPU 0 instructions: 370000001 cycles: 328379872 heartbeat IPC: 1.09834 cumulative IPC: 0.950139 (Simulation time: 0 hr 12 min 3 sec) 
Heartbeat CPU 0 instructions: 380000000 cycles: 337407060 heartbeat IPC: 1.10776 cumulative IPC: 0.954992 (Simulation time: 0 hr 12 min 24 sec) 
Heartbeat CPU 0 instructions: 390000001 cycles: 346236540 heartbeat IPC: 1.13257 cumulative IPC: 0.960184 (Simulation time: 0 hr 12 min 44 sec) 
Heartbeat CPU 0 instructions: 400000000 cycles: 355144883 heartbeat IPC: 1.12254 cumulative IPC: 0.964835 (Simulation time: 0 hr 13 min 4 sec) 
Heartbeat CPU 0 instructions: 410000003 cycles: 363962227 heartbeat IPC: 1.13413 cumulative IPC: 0.969504 (Simulation time: 0 hr 13 min 25 sec) 
Heartbeat CPU 0 instructions: 420000000 cycles: 372850811 heartbeat IPC: 1.12504 cumulative IPC: 0.97371 (Simulation time: 0 hr 13 min 45 sec) 
Heartbeat CPU 0 instructions: 430000001 cycles: 381607578 heartbeat IPC: 1.14197 cumulative IPC: 0.978077 (Simulation time: 0 hr 14 min 5 sec) 
Heartbeat CPU 0 instructions: 440000000 cycles: 390332263 heartbeat IPC: 1.14617 cumulative IPC: 0.982315 (Simulation time: 0 hr 14 min 25 sec) 
Heartbeat CPU 0 instructions: 450000001 cycles: 400553225 heartbeat IPC: 0.978382 cumulative IPC: 0.982202 (Simulation time: 0 hr 14 min 47 sec) 
Heartbeat CPU 0 instructions: 460000000 cycles: 409289649 heartbeat IPC: 1.14463 cumulative IPC: 0.986089 (Simulation time: 0 hr 15 min 7 sec) 
Heartbeat CPU 0 instructions: 470000003 cycles: 417855087 heartbeat IPC: 1.16748 cumulative IPC: 0.990247 (Simulation time: 0 hr 15 min 27 sec) 
Heartbeat CPU 0 instructions: 480000000 cycles: 426462042 heartbeat IPC: 1.16185 cumulative IPC: 0.994111 (Simulation time: 0 hr 15 min 47 sec) 
Heartbeat CPU 0 instructions: 490000000 cycles: 435046997 heartbeat IPC: 1.16483 cumulative IPC: 0.997861 (Simulation time: 0 hr 16 min 7 sec) 
Heartbeat CPU 0 instructions: 500000000 cycles: 443629014 heartbeat IPC: 1.16523 cumulative IPC: 1.00146 (Simulation time: 0 hr 16 min 27 sec) 
Heartbeat CPU 0 instructions: 510000001 cycles: 452163399 heartbeat IPC: 1.17173 cumulative IPC: 1.00502 (Simulation time: 0 hr 16 min 47 sec) 
Heartbeat CPU 0 instructions: 520000000 cycles: 460735081 heartbeat IPC: 1.16663 cumulative IPC: 1.00835 (Simulation time: 0 hr 17 min 7 sec) 
Heartbeat CPU 0 instructions: 530000001 cycles: 469311272 heartbeat IPC: 1.16602 cumulative IPC: 1.01153 (Simulation time: 0 hr 17 min 27 sec) 
Heartbeat CPU 0 instructions: 540000000 cycles: 478087154 heartbeat IPC: 1.13949 cumulative IPC: 1.01411 (Simulation time: 0 hr 17 min 47 sec) 
Heartbeat CPU 0 instructions: 550000000 cycles: 486895007 heartbeat IPC: 1.13535 cumulative IPC: 1.01653 (Simulation time: 0 hr 18 min 7 sec) 
Heartbeat CPU 0 instructions: 560000000 cycles: 495516416 heartbeat IPC: 1.1599 cumulative IPC: 1.01927 (Simulation time: 0 hr 18 min 27 sec) 
Heartbeat CPU 0 instructions: 570000000 cycles: 507940123 heartbeat IPC: 0.804913 cumulative IPC: 1.01352 (Simulation time: 0 hr 18 min 50 sec) 
Heartbeat CPU 0 instructions: 580000000 cycles: 520039848 heartbeat IPC: 0.826465 cumulative IPC: 1.00877 (Simulation time: 0 hr 19 min 12 sec) 
Heartbeat CPU 0 instructions: 590000001 cycles: 532217991 heartbeat IPC: 0.821143 cumulative IPC: 1.00408 (Simulation time: 0 hr 19 min 34 sec) 
Heartbeat CPU 0 instructions: 600000000 cycles: 544174395 heartbeat IPC: 0.836372 cumulative IPC: 1.00007 (Simulation time: 0 hr 19 min 55 sec) 
Finished CPU 0 instructions: 500000001 cycles: 499963435 cumulative IPC: 1.00007 (Simulation time: 0 hr 19 min 55 sec) 

CPU 0 Branch Prediction Accuracy: 99.7422% MPKI: 0.173296
Number of Branches: 33608403 Number of Mispredictions: 86648
Number of LOAD Instructions: 180215231
Number of LOAD Instructions (ROI): 180215231
Number of STORE Instructions: 36067263
Number of STORE Instructions (ROI): 36067263
Total Destination Memory Operands: 38428915
Total Destination Memory Operands (ROI): 38428915
Total Source Memory Operands: 180215231
Total Source Memory Operands (ROI): 180215231
Number of DEPENDED LOADS: 3042177
Number of DEPENDED LOADS (ROI): 3042177
Number of SQ_ADDED: 38428892
Number of SQ_ADDED (ROI): 38428892
Number of LQ_ADDED: 207845956
Number of LQ_ADDED (ROI): 207845956
Number of Instructions read from trace: 600000257

ChampSim completed all CPUs

Region of Interest Statistics

CPU 0 cumulative IPC: 1.00007 instructions: 500000001 cycles: 499963435
ITLB TOTAL     ACCESS:   92180983  HIT:   92180964  MISS:         19
ITLB LOAD      ACCESS:   92180983  HIT:   92180964  MISS:         19
ITLB RFO       ACCESS:          0  HIT:          0  MISS:          0
ITLB PREFETCH  ACCESS:          0  HIT:          0  MISS:          0
ITLB WRITEBACK ACCESS:          0  HIT:          0  MISS:          0
ITLB PREFETCH  REQUESTED:          0  ISSUED:          0  USEFUL:          0  USELESS:          0
ITLB TOTAL MSHR MERGED:         40
ITLB LOAD MSHR MERGED:         40
ITLB RFO MSHR MERGED:          0
ITLB PREFETCH MSHR MERGED:          0
ITLB WRITEBACK MSHR MERGED:          0
ITLB TOTAL ACCESSES:   92181023 HITS:   92180964 MISSES:         59
ITLB LOAD ACCESSES:   92181023 HITS:   92180964 MISSES:         59
ITLB RFO ACCESSES:          0 HITS:          0 MISSES:          0
ITLB PREFETCH ACCESSES:          0 HITS:          0 MISSES:          0
ITLB WRITEBACK ACCESSES:          0 HITS:          0 MISSES:          0
ITLB RQ ACCESS:  500000003
ITLB RQ TO_CACHE:   92181023
ITLB RQ MERGED:  407818980
ITLB RQ FORWARD:          0
ITLB WQ ACCESS:          0
ITLB WQ TO_CACHE:          0
ITLB WQ MERGED:          0
ITLB WQ FORWARD:          0
DTLB TOTAL     ACCESS:  141929094  HIT:  141562632  MISS:     366462
DTLB LOAD      ACCESS:  119322743  HIT:  119009157  MISS:     313586
DTLB RFO       ACCESS:   22606351  HIT:   22553475  MISS:      52876
DTLB PREFETCH  ACCESS:          0  HIT:          0  MISS:          0
DTLB WRITEBACK ACCESS:          0  HIT:          0  MISS:          0
DTLB PREFETCH  REQUESTED:          0  ISSUED:          0  USEFUL:          0  USELESS:          0
DTLB TOTAL MSHR MERGED:     290468
DTLB LOAD MSHR MERGED:     241330
DTLB RFO MSHR MERGED:      49138
DTLB PREFETCH MSHR MERGED:          0
DTLB WRITEBACK MSHR MERGED:          0
DTLB TOTAL ACCESSES:  142219562 HITS:  141562632 MISSES:     656930
DTLB LOAD ACCESSES:  119564073 HITS:  119009157 MISSES:     554916
DTLB RFO ACCESSES:   22655489 HITS:   22553475 MISSES:     102014
DTLB PREFETCH ACCESSES:          0 HITS:          0 MISSES:          0
DTLB WRITEBACK ACCESSES:          0 HITS:          0 MISSES:          0
DTLB RQ ACCESS:  184790799
DTLB RQ TO_CACHE:  142219562
DTLB RQ MERGED:   42571237
DTLB RQ FORWARD:          0
DTLB WQ ACCESS:          0
DTLB WQ TO_CACHE:          0
DTLB WQ MERGED:          0
DTLB WQ FORWARD:          0
L1D TOTAL     ACCESS:  185190543  HIT:  171751428  MISS:   13439115
L1D LOAD      ACCESS:  111471660  HIT:  107844081  MISS:    3627579
L1D RFO       ACCESS:   17033905  HIT:   14252146  MISS:    2781759
L1D PREFETCH  ACCESS:   56684978  HIT:   49655201  MISS:    7029777
L1D WRITEBACK ACCESS:          0  HIT:          0  MISS:          0
L1D PREFETCH  REQUESTED:  116466573  ISSUED:  115105779  USEFUL:    6820683  USELESS:     209093
L1D TOTAL MSHR MERGED:   36846660
L1D LOAD MSHR MERGED:    8065579
L1D RFO MSHR MERGED:   11218690
L1D PREFETCH MSHR MERGED:   17562391
L1D WRITEBACK MSHR MERGED:          0
L1D TOTAL ACCESSES:  222038222 HITS:  171752447 MISSES:   50285775
L1D LOAD ACCESSES:  116467205 HITS:  107844713 MISSES:    8622492
L1D RFO ACCESSES:   28252533 HITS:   14252146 MISSES:   14000387
L1D PREFETCH ACCESSES:   77318484 HITS:   49655588 MISSES:   27662896
L1D WRITEBACK ACCESSES:          0 HITS:          0 MISSES:          0
L1D RQ ACCESS:  156534733
L1D RQ TO_CACHE:  116466576
L1D RQ MERGED:   40067525
L1D RQ FORWARD:          0
L1D WQ ACCESS:   28256066
L1D WQ TO_CACHE:   28252533
L1D WQ MERGED:       3533
L1D WQ FORWARD:       1019
L1I TOTAL     ACCESS:  116161360  HIT:  116160412  MISS:        948
L1I LOAD      ACCESS:  116161360  HIT:  116160412  MISS:        948
L1I RFO       ACCESS:          0  HIT:          0  MISS:          0
L1I PREFETCH  ACCESS:          0  HIT:          0  MISS:          0
L1I WRITEBACK ACCESS:          0  HIT:          0  MISS:          0
L1I PREFETCH  REQUESTED:          0  ISSUED:          0  USEFUL:          0  USELESS:          0
L1I TOTAL MSHR MERGED:       1594
L1I LOAD MSHR MERGED:       1594
L1I RFO MSHR MERGED:          0
L1I PREFETCH MSHR MERGED:          0
L1I WRITEBACK MSHR MERGED:          0
L1I TOTAL ACCESSES:  116162954 HITS:  116160412 MISSES:       2542
L1I LOAD ACCESSES:  116162954 HITS:  116160412 MISSES:       2542
L1I RFO ACCESSES:          0 HITS:          0 MISSES:          0
L1I PREFETCH ACCESSES:          0 HITS:          0 MISSES:          0
L1I WRITEBACK ACCESSES:          0 HITS:          0 MISSES:          0
L1I RQ ACCESS:  500000007
L1I RQ TO_CACHE:  116162954
L1I RQ MERGED:  383837053
L1I RQ FORWARD:          0
L1I WQ ACCESS:          0
L1I WQ TO_CACHE:          0
L1I WQ MERGED:          0
L1I WQ FORWARD:          0
L2C TOTAL     ACCESS:   16684374  HIT:    4839747  MISS:   11844627
L2C LOAD      ACCESS:     557827  HIT:      95280  MISS:     462547
L2C RFO       ACCESS:    2781697  HIT:     266547  MISS:    2515150
L2C PREFETCH  ACCESS:   10124253  HIT:    1259599  MISS:    8864654
L2C WRITEBACK ACCESS:    3220597  HIT:    3218321  MISS:       2276
L2C PREFETCH  REQUESTED:      25972  ISSUED:      25972  USEFUL:      92557  USELESS:    8770133
L2C TOTAL MSHR MERGED:        535
L2C LOAD MSHR MERGED:          6
L2C RFO MSHR MERGED:          0
L2C PREFETCH MSHR MERGED:        529
L2C WRITEBACK MSHR MERGED:          0
L2C TOTAL ACCESSES:   16685250 HITS:    4839799 MISSES:   11845451
L2C LOAD ACCESSES:     557861 HITS:      95314 MISSES:     462547
L2C RFO ACCESSES:    2781697 HITS:     266547 MISSES:    2515150
L2C PREFETCH ACCESSES:   10125095 HITS:    1259617 MISSES:    8865478
L2C WRITEBACK ACCESSES:    3220597 HITS:    3218321 MISSES:       2276
L2C RQ ACCESS:    3339558
L2C RQ TO_CACHE:    3339524
L2C RQ MERGED:          0
L2C RQ FORWARD:          0
L2C WQ ACCESS:    3220597
L2C WQ TO_CACHE:    3220597
L2C WQ MERGED:          0
L2C WQ FORWARD:         52
LLC TOTAL     ACCESS:   14743065  HIT:    5108819  MISS:    9634246
LLC LOAD      ACCESS:     462539  HIT:     272373  MISS:     190166
LLC RFO       ACCESS:    2515133  HIT:    1251195  MISS:    1263938
LLC PREFETCH  ACCESS:    8864886  HIT:    2059026  MISS:    6805860
LLC WRITEBACK ACCESS:    2900507  HIT:    1526225  MISS:    1374282
LLC PREFETCH  REQUESTED:          0  ISSUED:          0  USEFUL:       2871  USELESS:    6805650
LLC TOTAL MSHR MERGED:         13
LLC LOAD MSHR MERGED:          1
LLC RFO MSHR MERGED:          0
LLC PREFETCH MSHR MERGED:         12
LLC WRITEBACK MSHR MERGED:          0
LLC TOTAL ACCESSES:   14743144 HITS:    5108885 MISSES:    9634259
LLC LOAD ACCESSES:     462541 HITS:     272375 MISSES:     190166
LLC RFO ACCESSES:    2515150 HITS:    1251212 MISSES:    1263938
LLC PREFETCH ACCESSES:    8864946 HITS:    2059073 MISSES:    6805873
LLC WRITEBACK ACCESSES:    2900507 HITS:    1526225 MISSES:    1374282
LLC 0 RQ ACCESS:    2977691
LLC 0 RQ TO_CACHE:    2977672
LLC 0 RQ MERGED:          0
LLC 0 RQ FORWARD:          0
LLC WQ ACCESS:    2900507
LLC WQ TO_CACHE:    2900507
LLC WQ MERGED:          0
LLC WQ FORWARD:         66
Major fault: 0 Minor fault: 57518
CPU 0 L1D next line prefetcher final stats
CPU 0 L2C PC-based stride prefetcher final stats
All Misses: 10304223
All Hits: 5935023
SD Algo Stats - Switches: 0 SRR-Repls: 198012 BRR-Repls: 0

DRAM Statistics
 CHANNEL 0
 RQ ROW_BUFFER_HIT:    4187698  ROW_BUFFER_MISS:    4070153
 DBUS_CONGESTED:    4315892
 WQ ROW_BUFFER_HIT:     340075  ROW_BUFFER_MISS:    1201592  FULL:          0

 AVG_CONGESTED_CYCLE: 12
LOADS RETIRED: 157818985
INSTR RETIRED: 500000000
