
*** ChampSim Multicore Out-of-Order Simulator ***

Warmup Instructions: 100000000
Simulation Instructions: 500000000
Number of CPUs: 1
LLC sets: 2048
LLC ways: 16
Clean RRIP Policies: 1120102311201023 Dirty RRIP Policies: 2110201321102013 PSEL Width: 10 Track Set: 4294967295 PSEL Mask: 1 Demote Mask: 3010140030101400DS Algo: 0Window size: 0
Off-chip DRAM Size: 4096 MB Channels: 1 Width: 64-bit Data Rate: 1600 MT/s

CPU 0 runs /mnt/beegfs/iconst01/spec2017/Gcc.trace.gz
NOT SORTED
TRACE STRING: /mnt/beegfs/iconst01/spec2017/Gcc.trace.gz
SORTED
TRACE STRING: /mnt/beegfs/iconst01/spec2017/Gcc.trace.gz
INITIAL
TRACE STRING: /mnt/beegfs/iconst01/spec2017/Gcc.trace.gz

champsim_seed used: 269

CPU 0 L1D next line prefetcher
CPU 0 L2C IP-based stride prefetcher
Initialize DRRIP state
Assign rand_sets[0]: 454  LLC: 2048
rand_sets[0]: 454
Assign rand_sets[1]: 1662  LLC: 2048
rand_sets[1]: 1662
Assign rand_sets[2]: 1921  LLC: 2048
rand_sets[2]: 1921
Assign rand_sets[3]: 1131  LLC: 2048
rand_sets[3]: 1131
Assign rand_sets[4]: 331  LLC: 2048
rand_sets[4]: 331
Assign rand_sets[5]: 1531  LLC: 2048
rand_sets[5]: 1531
Assign rand_sets[6]: 482  LLC: 2048
rand_sets[6]: 482
Assign rand_sets[7]: 1275  LLC: 2048
rand_sets[7]: 1275
Assign rand_sets[8]: 1876  LLC: 2048
rand_sets[8]: 1876
Assign rand_sets[9]: 2038  LLC: 2048
rand_sets[9]: 2038
Assign rand_sets[10]: 701  LLC: 2048
rand_sets[10]: 701
Assign rand_sets[11]: 479  LLC: 2048
rand_sets[11]: 479
Assign rand_sets[12]: 892  LLC: 2048
rand_sets[12]: 892
Assign rand_sets[13]: 1820  LLC: 2048
rand_sets[13]: 1820
Assign rand_sets[14]: 1505  LLC: 2048
rand_sets[14]: 1505
Assign rand_sets[15]: 1159  LLC: 2048
rand_sets[15]: 1159
Assign rand_sets[16]: 513  LLC: 2048
rand_sets[16]: 513
Assign rand_sets[17]: 703  LLC: 2048
rand_sets[17]: 703
Assign rand_sets[18]: 561  LLC: 2048
rand_sets[18]: 561
Assign rand_sets[19]: 990  LLC: 2048
rand_sets[19]: 990
Assign rand_sets[20]: 342  LLC: 2048
rand_sets[20]: 342
Assign rand_sets[21]: 882  LLC: 2048
rand_sets[21]: 882
Assign rand_sets[22]: 15  LLC: 2048
rand_sets[22]: 15
Assign rand_sets[23]: 71  LLC: 2048
rand_sets[23]: 71
Assign rand_sets[24]: 1127  LLC: 2048
rand_sets[24]: 1127
Assign rand_sets[25]: 1382  LLC: 2048
rand_sets[25]: 1382
Assign rand_sets[26]: 647  LLC: 2048
rand_sets[26]: 647
Assign rand_sets[27]: 857  LLC: 2048
rand_sets[27]: 857
Assign rand_sets[28]: 1450  LLC: 2048
rand_sets[28]: 1450
Assign rand_sets[29]: 1160  LLC: 2048
rand_sets[29]: 1160
Assign rand_sets[30]: 1852  LLC: 2048
rand_sets[30]: 1852
Assign rand_sets[31]: 1881  LLC: 2048
rand_sets[31]: 1881
Assign rand_sets[32]: 1770  LLC: 2048
rand_sets[32]: 1770
Assign rand_sets[33]: 1622  LLC: 2048
rand_sets[33]: 1622
Assign rand_sets[34]: 275  LLC: 2048
rand_sets[34]: 275
Assign rand_sets[35]: 635  LLC: 2048
rand_sets[35]: 635
Assign rand_sets[36]: 466  LLC: 2048
rand_sets[36]: 466
Assign rand_sets[37]: 1413  LLC: 2048
rand_sets[37]: 1413
Assign rand_sets[38]: 417  LLC: 2048
rand_sets[38]: 417
Assign rand_sets[39]: 472  LLC: 2048
rand_sets[39]: 472
Assign rand_sets[40]: 1340  LLC: 2048
rand_sets[40]: 1340
Assign rand_sets[41]: 852  LLC: 2048
rand_sets[41]: 852
Assign rand_sets[42]: 1365  LLC: 2048
rand_sets[42]: 1365
Assign rand_sets[43]: 47  LLC: 2048
rand_sets[43]: 47
Assign rand_sets[44]: 823  LLC: 2048
rand_sets[44]: 823
Assign rand_sets[45]: 686  LLC: 2048
rand_sets[45]: 686
Assign rand_sets[46]: 1637  LLC: 2048
rand_sets[46]: 1637
Assign rand_sets[47]: 1115  LLC: 2048
rand_sets[47]: 1115
Assign rand_sets[48]: 986  LLC: 2048
rand_sets[48]: 986
Assign rand_sets[49]: 258  LLC: 2048
rand_sets[49]: 258
Assign rand_sets[50]: 633  LLC: 2048
rand_sets[50]: 633
Assign rand_sets[51]: 920  LLC: 2048
rand_sets[51]: 920
Assign rand_sets[52]: 204  LLC: 2048
rand_sets[52]: 204
Assign rand_sets[53]: 227  LLC: 2048
rand_sets[53]: 227
Assign rand_sets[54]: 1818  LLC: 2048
rand_sets[54]: 1818
Assign rand_sets[55]: 886  LLC: 2048
rand_sets[55]: 886
Assign rand_sets[56]: 1422  LLC: 2048
rand_sets[56]: 1422
Assign rand_sets[57]: 607  LLC: 2048
rand_sets[57]: 607
Assign rand_sets[58]: 217  LLC: 2048
rand_sets[58]: 217
Assign rand_sets[59]: 1945  LLC: 2048
rand_sets[59]: 1945
Assign rand_sets[60]: 143  LLC: 2048
rand_sets[60]: 143
Assign rand_sets[61]: 1311  LLC: 2048
rand_sets[61]: 1311
Assign rand_sets[62]: 319  LLC: 2048
rand_sets[62]: 319
Assign rand_sets[63]: 1846  LLC: 2048
rand_sets[63]: 1846
 CLEAN-RRIP-POLICY-1: 1-1-2-0-1-0-2-3- CLEAN-RRIP-POLICY-2: 1-1-2-0-1-0-2-3-
 DIRTY-RRIP-POLICY-1: 2-1-1-0-2-0-1-3- DIRTY-RRIP-POLICY-2: 2-1-1-0-2-0-1-3-
 PSEL width: 10
Heartbeat CPU 0 instructions: 10000001 cycles: 7320815 heartbeat IPC: 1.36597 cumulative IPC: 1.36597 (Simulation time: 0 hr 0 min 15 sec) 
Heartbeat CPU 0 instructions: 20000000 cycles: 14325320 heartbeat IPC: 1.42765 cumulative IPC: 1.39613 (Simulation time: 0 hr 0 min 30 sec) 
Heartbeat CPU 0 instructions: 30000001 cycles: 21041738 heartbeat IPC: 1.48889 cumulative IPC: 1.42574 (Simulation time: 0 hr 0 min 46 sec) 
Heartbeat CPU 0 instructions: 40000000 cycles: 27503604 heartbeat IPC: 1.54754 cumulative IPC: 1.45435 (Simulation time: 0 hr 1 min 2 sec) 
Heartbeat CPU 0 instructions: 50000001 cycles: 33606453 heartbeat IPC: 1.63858 cumulative IPC: 1.48781 (Simulation time: 0 hr 1 min 17 sec) 
Heartbeat CPU 0 instructions: 60000000 cycles: 40088694 heartbeat IPC: 1.54268 cumulative IPC: 1.49668 (Simulation time: 0 hr 1 min 33 sec) 
Heartbeat CPU 0 instructions: 70000000 cycles: 47132896 heartbeat IPC: 1.41961 cumulative IPC: 1.48516 (Simulation time: 0 hr 1 min 48 sec) 
Heartbeat CPU 0 instructions: 80000000 cycles: 54228945 heartbeat IPC: 1.40923 cumulative IPC: 1.47523 (Simulation time: 0 hr 2 min 3 sec) 
Heartbeat CPU 0 instructions: 90000003 cycles: 61239539 heartbeat IPC: 1.42641 cumulative IPC: 1.46964 (Simulation time: 0 hr 2 min 17 sec) 
Heartbeat CPU 0 instructions: 100000000 cycles: 68412917 heartbeat IPC: 1.39404 cumulative IPC: 1.46171 (Simulation time: 0 hr 2 min 32 sec) 

Warmup complete CPU 0 instructions: 100000004 cycles: 68412918 (Simulation time: 0 hr 2 min 32 sec) 

Heartbeat CPU 0 instructions: 110000003 cycles: 96966417 heartbeat IPC: 0.35022 cumulative IPC: 0.35022 (Simulation time: 0 hr 3 min 1 sec) 
Heartbeat CPU 0 instructions: 120000000 cycles: 124701111 heartbeat IPC: 0.360559 cumulative IPC: 0.355314 (Simulation time: 0 hr 3 min 30 sec) 
Heartbeat CPU 0 instructions: 130000000 cycles: 149945098 heartbeat IPC: 0.396134 cumulative IPC: 0.367953 (Simulation time: 0 hr 3 min 58 sec) 
Heartbeat CPU 0 instructions: 140000000 cycles: 181091503 heartbeat IPC: 0.321064 cumulative IPC: 0.354992 (Simulation time: 0 hr 4 min 27 sec) 
Heartbeat CPU 0 instructions: 150000000 cycles: 212012579 heartbeat IPC: 0.323404 cumulative IPC: 0.34819 (Simulation time: 0 hr 4 min 56 sec) 
Heartbeat CPU 0 instructions: 160000000 cycles: 239740598 heartbeat IPC: 0.360646 cumulative IPC: 0.350206 (Simulation time: 0 hr 5 min 23 sec) 
Heartbeat CPU 0 instructions: 170000001 cycles: 268203627 heartbeat IPC: 0.351333 cumulative IPC: 0.350367 (Simulation time: 0 hr 5 min 53 sec) 
Heartbeat CPU 0 instructions: 180000000 cycles: 297161264 heartbeat IPC: 0.345332 cumulative IPC: 0.349729 (Simulation time: 0 hr 6 min 22 sec) 
Heartbeat CPU 0 instructions: 190000002 cycles: 325740044 heartbeat IPC: 0.34991 cumulative IPC: 0.349749 (Simulation time: 0 hr 6 min 51 sec) 
Heartbeat CPU 0 instructions: 200000000 cycles: 354655219 heartbeat IPC: 0.345839 cumulative IPC: 0.349354 (Simulation time: 0 hr 7 min 20 sec) 
Heartbeat CPU 0 instructions: 210000002 cycles: 383017926 heartbeat IPC: 0.352576 cumulative IPC: 0.349645 (Simulation time: 0 hr 7 min 49 sec) 
Heartbeat CPU 0 instructions: 220000000 cycles: 413620536 heartbeat IPC: 0.326769 cumulative IPC: 0.347617 (Simulation time: 0 hr 8 min 17 sec) 
Heartbeat CPU 0 instructions: 230000000 cycles: 441839117 heartbeat IPC: 0.354376 cumulative IPC: 0.348128 (Simulation time: 0 hr 8 min 45 sec) 
Heartbeat CPU 0 instructions: 240000000 cycles: 468167036 heartbeat IPC: 0.379825 cumulative IPC: 0.350215 (Simulation time: 0 hr 9 min 12 sec) 
Heartbeat CPU 0 instructions: 250000000 cycles: 498648826 heartbeat IPC: 0.328065 cumulative IPC: 0.348646 (Simulation time: 0 hr 9 min 42 sec) 
Heartbeat CPU 0 instructions: 260000000 cycles: 525923564 heartbeat IPC: 0.36664 cumulative IPC: 0.349719 (Simulation time: 0 hr 10 min 10 sec) 
Heartbeat CPU 0 instructions: 270000003 cycles: 554771822 heartbeat IPC: 0.346641 cumulative IPC: 0.349536 (Simulation time: 0 hr 10 min 40 sec) 
Heartbeat CPU 0 instructions: 280000000 cycles: 583464772 heartbeat IPC: 0.348518 cumulative IPC: 0.349479 (Simulation time: 0 hr 11 min 9 sec) 
Heartbeat CPU 0 instructions: 290000000 cycles: 612738579 heartbeat IPC: 0.341602 cumulative IPC: 0.349056 (Simulation time: 0 hr 11 min 39 sec) 
Heartbeat CPU 0 instructions: 300000000 cycles: 643918838 heartbeat IPC: 0.320716 cumulative IPC: 0.34752 (Simulation time: 0 hr 12 min 8 sec) 
Heartbeat CPU 0 instructions: 310000001 cycles: 674155593 heartbeat IPC: 0.330723 cumulative IPC: 0.346682 (Simulation time: 0 hr 12 min 36 sec) 
Heartbeat CPU 0 instructions: 320000000 cycles: 703336327 heartbeat IPC: 0.342692 cumulative IPC: 0.346498 (Simulation time: 0 hr 13 min 5 sec) 
Heartbeat CPU 0 instructions: 330000000 cycles: 732612401 heartbeat IPC: 0.341576 cumulative IPC: 0.346281 (Simulation time: 0 hr 13 min 33 sec) 
Heartbeat CPU 0 instructions: 340000000 cycles: 762637549 heartbeat IPC: 0.333054 cumulative IPC: 0.345709 (Simulation time: 0 hr 14 min 2 sec) 
Heartbeat CPU 0 instructions: 350000003 cycles: 790104119 heartbeat IPC: 0.364079 cumulative IPC: 0.346409 (Simulation time: 0 hr 14 min 30 sec) 
Heartbeat CPU 0 instructions: 360000000 cycles: 820547097 heartbeat IPC: 0.328483 cumulative IPC: 0.345683 (Simulation time: 0 hr 14 min 58 sec) 
Heartbeat CPU 0 instructions: 370000000 cycles: 851032353 heartbeat IPC: 0.328027 cumulative IPC: 0.344995 (Simulation time: 0 hr 15 min 26 sec) 
Heartbeat CPU 0 instructions: 380000000 cycles: 881906241 heartbeat IPC: 0.323898 cumulative IPC: 0.344195 (Simulation time: 0 hr 15 min 54 sec) 
Heartbeat CPU 0 instructions: 390000001 cycles: 911873131 heartbeat IPC: 0.333702 cumulative IPC: 0.343822 (Simulation time: 0 hr 16 min 22 sec) 
Heartbeat CPU 0 instructions: 400000000 cycles: 942745004 heartbeat IPC: 0.323919 cumulative IPC: 0.343119 (Simulation time: 0 hr 16 min 50 sec) 
Heartbeat CPU 0 instructions: 410000001 cycles: 972344517 heartbeat IPC: 0.337843 cumulative IPC: 0.342946 (Simulation time: 0 hr 17 min 18 sec) 
Heartbeat CPU 0 instructions: 420000000 cycles: 1001975179 heartbeat IPC: 0.337488 cumulative IPC: 0.342773 (Simulation time: 0 hr 17 min 46 sec) 
Heartbeat CPU 0 instructions: 430000002 cycles: 1032069507 heartbeat IPC: 0.332289 cumulative IPC: 0.342446 (Simulation time: 0 hr 18 min 14 sec) 
Heartbeat CPU 0 instructions: 440000000 cycles: 1063556304 heartbeat IPC: 0.317593 cumulative IPC: 0.341659 (Simulation time: 0 hr 18 min 42 sec) 
Heartbeat CPU 0 instructions: 450000002 cycles: 1094771407 heartbeat IPC: 0.320358 cumulative IPC: 0.341011 (Simulation time: 0 hr 19 min 10 sec) 
Heartbeat CPU 0 instructions: 460000000 cycles: 1124701281 heartbeat IPC: 0.334114 cumulative IPC: 0.340816 (Simulation time: 0 hr 19 min 38 sec) 
Heartbeat CPU 0 instructions: 470000000 cycles: 1154334351 heartbeat IPC: 0.337461 cumulative IPC: 0.340724 (Simulation time: 0 hr 20 min 6 sec) 
Heartbeat CPU 0 instructions: 480000000 cycles: 1184200967 heartbeat IPC: 0.334822 cumulative IPC: 0.340566 (Simulation time: 0 hr 20 min 34 sec) 
Heartbeat CPU 0 instructions: 490000000 cycles: 1213760548 heartbeat IPC: 0.3383 cumulative IPC: 0.340508 (Simulation time: 0 hr 21 min 1 sec) 
Heartbeat CPU 0 instructions: 500000000 cycles: 1243861986 heartbeat IPC: 0.33221 cumulative IPC: 0.340295 (Simulation time: 0 hr 21 min 29 sec) 
Heartbeat CPU 0 instructions: 510000000 cycles: 1279475826 heartbeat IPC: 0.28079 cumulative IPC: 0.338546 (Simulation time: 0 hr 22 min 0 sec) 
Heartbeat CPU 0 instructions: 520000000 cycles: 1308226746 heartbeat IPC: 0.347815 cumulative IPC: 0.338761 (Simulation time: 0 hr 22 min 29 sec) 
Heartbeat CPU 0 instructions: 530000001 cycles: 1339490161 heartbeat IPC: 0.319863 cumulative IPC: 0.338296 (Simulation time: 0 hr 22 min 58 sec) 
Heartbeat CPU 0 instructions: 540000000 cycles: 1368762563 heartbeat IPC: 0.341619 cumulative IPC: 0.338371 (Simulation time: 0 hr 23 min 26 sec) 
Heartbeat CPU 0 instructions: 550000001 cycles: 1398327228 heartbeat IPC: 0.338242 cumulative IPC: 0.338368 (Simulation time: 0 hr 23 min 56 sec) 
Heartbeat CPU 0 instructions: 560000000 cycles: 1423996971 heartbeat IPC: 0.389564 cumulative IPC: 0.339337 (Simulation time: 0 hr 24 min 24 sec) 
Heartbeat CPU 0 instructions: 570000000 cycles: 1454558729 heartbeat IPC: 0.327206 cumulative IPC: 0.33907 (Simulation time: 0 hr 24 min 53 sec) 
Heartbeat CPU 0 instructions: 580000000 cycles: 1483228490 heartbeat IPC: 0.3488 cumulative IPC: 0.339267 (Simulation time: 0 hr 25 min 21 sec) 
Heartbeat CPU 0 instructions: 590000001 cycles: 1508267076 heartbeat IPC: 0.399384 cumulative IPC: 0.340312 (Simulation time: 0 hr 25 min 48 sec) 
Heartbeat CPU 0 instructions: 600000000 cycles: 1534836536 heartbeat IPC: 0.376372 cumulative IPC: 0.340966 (Simulation time: 0 hr 26 min 16 sec) 
Finished CPU 0 instructions: 500000000 cycles: 1466423640 cumulative IPC: 0.340966 (Simulation time: 0 hr 26 min 16 sec) 

CPU 0 Branch Prediction Accuracy: 86.4311% MPKI: 26.2662
Number of Branches: 96788573 Number of Mispredictions: 13133102
Number of LOAD Instructions: 164682285
Number of LOAD Instructions (ROI): 164682285
Number of STORE Instructions: 78194750
Number of STORE Instructions (ROI): 78194750
Total Destination Memory Operands: 83268534
Total Destination Memory Operands (ROI): 83268534
Total Source Memory Operands: 164712438
Total Source Memory Operands (ROI): 164712438
Number of DEPENDED LOADS: 7052722
Number of DEPENDED LOADS (ROI): 7052722
Number of SQ_ADDED: 83268522
Number of SQ_ADDED (ROI): 83268522
Number of LQ_ADDED: 236337736
Number of LQ_ADDED (ROI): 236337736
Number of Instructions read from trace: 600000066

ChampSim completed all CPUs

Region of Interest Statistics

CPU 0 cumulative IPC: 0.340966 instructions: 500000000 cycles: 1466423640
ITLB TOTAL     ACCESS:  100528180  HIT:  100323734  MISS:     204446
ITLB LOAD      ACCESS:  100528180  HIT:  100323734  MISS:     204446
ITLB RFO       ACCESS:          0  HIT:          0  MISS:          0
ITLB PREFETCH  ACCESS:          0  HIT:          0  MISS:          0
ITLB WRITEBACK ACCESS:          0  HIT:          0  MISS:          0
ITLB PREFETCH  REQUESTED:          0  ISSUED:          0  USEFUL:          0  USELESS:          0
ITLB TOTAL MSHR MERGED:     172423
ITLB LOAD MSHR MERGED:     172423
ITLB RFO MSHR MERGED:          0
ITLB PREFETCH MSHR MERGED:          0
ITLB WRITEBACK MSHR MERGED:          0
ITLB TOTAL ACCESSES:  100700603 HITS:  100323734 MISSES:     376869
ITLB LOAD ACCESSES:  100700603 HITS:  100323734 MISSES:     376869
ITLB RFO ACCESSES:          0 HITS:          0 MISSES:          0
ITLB PREFETCH ACCESSES:          0 HITS:          0 MISSES:          0
ITLB WRITEBACK ACCESSES:          0 HITS:          0 MISSES:          0
ITLB RQ ACCESS:  500000057
ITLB RQ TO_CACHE:  100700603
ITLB RQ MERGED:  399299454
ITLB RQ FORWARD:          0
ITLB WQ ACCESS:          0
ITLB WQ TO_CACHE:          0
ITLB WQ MERGED:          0
ITLB WQ FORWARD:          0
DTLB TOTAL     ACCESS:  165357181  HIT:  164722832  MISS:     634349
DTLB LOAD      ACCESS:  106306570  HIT:  105736578  MISS:     569992
DTLB RFO       ACCESS:   59050611  HIT:   58986254  MISS:      64357
DTLB PREFETCH  ACCESS:          0  HIT:          0  MISS:          0
DTLB WRITEBACK ACCESS:          0  HIT:          0  MISS:          0
DTLB PREFETCH  REQUESTED:          0  ISSUED:          0  USEFUL:          0  USELESS:          0
DTLB TOTAL MSHR MERGED:      99376
DTLB LOAD MSHR MERGED:      59114
DTLB RFO MSHR MERGED:      40262
DTLB PREFETCH MSHR MERGED:          0
DTLB WRITEBACK MSHR MERGED:          0
DTLB TOTAL ACCESSES:  165456557 HITS:  164722832 MISSES:     733725
DTLB LOAD ACCESSES:  106365684 HITS:  105736578 MISSES:     629106
DTLB RFO ACCESSES:   59090873 HITS:   58986254 MISSES:     104619
DTLB PREFETCH ACCESSES:          0 HITS:          0 MISSES:          0
DTLB WRITEBACK ACCESSES:          0 HITS:          0 MISSES:          0
DTLB RQ ACCESS:  200318157
DTLB RQ TO_CACHE:  165456557
DTLB RQ MERGED:   34861600
DTLB RQ FORWARD:          0
DTLB WQ ACCESS:          0
DTLB WQ TO_CACHE:          0
DTLB WQ MERGED:          0
DTLB WQ FORWARD:          0
L1D TOTAL     ACCESS:  281949210  HIT:  274039655  MISS:    7909555
L1D LOAD      ACCESS:  110451603  HIT:  107179576  MISS:    3272027
L1D RFO       ACCESS:   67139311  HIT:   66249466  MISS:     889845
L1D PREFETCH  ACCESS:  104358296  HIT:  100610613  MISS:    3747683
L1D WRITEBACK ACCESS:          0  HIT:          0  MISS:          0
L1D PREFETCH  REQUESTED:  110835404  ISSUED:  109135837  USEFUL:    1668181  USELESS:    2079466
L1D TOTAL MSHR MERGED:    2797889
L1D LOAD MSHR MERGED:     475743
L1D RFO MSHR MERGED:    1846075
L1D PREFETCH MSHR MERGED:     476071
L1D WRITEBACK MSHR MERGED:          0
L1D TOTAL ACCESSES:  284774481 HITS:  274067037 MISSES:   10707444
L1D LOAD ACCESSES:  110836801 HITS:  107180973 MISSES:    3655828
L1D RFO ACCESSES:   68974290 HITS:   66249466 MISSES:    2724824
L1D PREFETCH ACCESSES:  104963390 HITS:  100636598 MISSES:    4326792
L1D WRITEBACK ACCESSES:          0 HITS:          0 MISSES:          0
L1D RQ ACCESS:  130765554
L1D RQ TO_CACHE:  110835407
L1D RQ MERGED:   19928750
L1D RQ FORWARD:          0
L1D WQ ACCESS:   69552603
L1D WQ TO_CACHE:   68974291
L1D WQ MERGED:     578312
L1D WQ FORWARD:      27382
L1I TOTAL     ACCESS:  126571280  HIT:  122332755  MISS:    4238525
L1I LOAD      ACCESS:  126571280  HIT:  122332755  MISS:    4238525
L1I RFO       ACCESS:          0  HIT:          0  MISS:          0
L1I PREFETCH  ACCESS:          0  HIT:          0  MISS:          0
L1I WRITEBACK ACCESS:          0  HIT:          0  MISS:          0
L1I PREFETCH  REQUESTED:          0  ISSUED:          0  USEFUL:          0  USELESS:          0
L1I TOTAL MSHR MERGED:    1838906
L1I LOAD MSHR MERGED:    1838906
L1I RFO MSHR MERGED:          0
L1I PREFETCH MSHR MERGED:          0
L1I WRITEBACK MSHR MERGED:          0
L1I TOTAL ACCESSES:  128410189 HITS:  122332755 MISSES:    6077434
L1I LOAD ACCESSES:  128410189 HITS:  122332755 MISSES:    6077434
L1I RFO ACCESSES:          0 HITS:          0 MISSES:          0
L1I PREFETCH ACCESSES:          0 HITS:          0 MISSES:          0
L1I WRITEBACK ACCESSES:          0 HITS:          0 MISSES:          0
L1I RQ ACCESS:  500000057
L1I RQ TO_CACHE:  128410189
L1I RQ MERGED:  371589868
L1I RQ FORWARD:          0
L1I WQ ACCESS:          0
L1I WQ TO_CACHE:          0
L1I WQ MERGED:          0
L1I WQ FORWARD:          0
L2C TOTAL     ACCESS:   14906047  HIT:   11159559  MISS:    3746488
L2C LOAD      ACCESS:    7418404  HIT:    5098807  MISS:    2319597
L2C RFO       ACCESS:     878652  HIT:     409959  MISS:     468693
L2C PREFETCH  ACCESS:    4569712  HIT:    3628768  MISS:     940944
L2C WRITEBACK ACCESS:    2039279  HIT:    2022025  MISS:      17254
L2C PREFETCH  REQUESTED:     842871  ISSUED:     842871  USEFUL:     203573  USELESS:     737077
L2C TOTAL MSHR MERGED:       6577
L2C LOAD MSHR MERGED:        713
L2C RFO MSHR MERGED:          0
L2C PREFETCH MSHR MERGED:       5864
L2C WRITEBACK MSHR MERGED:          0
L2C TOTAL ACCESSES:   14913475 HITS:   11160007 MISSES:    3753468
L2C LOAD ACCESSES:    7418610 HITS:    5099013 MISSES:    2319597
L2C RFO ACCESSES:     878749 HITS:     410056 MISSES:     468693
L2C PREFETCH ACCESSES:    4576837 HITS:    3628913 MISSES:     947924
L2C WRITEBACK ACCESSES:    2039279 HITS:    2022025 MISSES:      17254
L2C RQ ACCESS:    8297362
L2C RQ TO_CACHE:    8297059
L2C RQ MERGED:          0
L2C RQ FORWARD:          0
L2C WQ ACCESS:    2039279
L2C WQ TO_CACHE:    2039279
L2C WQ MERGED:          0
L2C WQ FORWARD:        448
LLC TOTAL     ACCESS:    4609787  HIT:    3494711  MISS:    1115076
LLC LOAD      ACCESS:    2318872  HIT:    1458012  MISS:     860860
LLC RFO       ACCESS:     468682  HIT:     429249  MISS:      39433
LLC PREFETCH  ACCESS:     941946  HIT:     752276  MISS:     189670
LLC WRITEBACK ACCESS:     880287  HIT:     855174  MISS:      25113
LLC PREFETCH  REQUESTED:          0  ISSUED:          0  USEFUL:      39515  USELESS:     151832
LLC TOTAL MSHR MERGED:         90
LLC LOAD MSHR MERGED:         30
LLC RFO MSHR MERGED:          0
LLC PREFETCH MSHR MERGED:         60
LLC WRITEBACK MSHR MERGED:          0
LLC TOTAL ACCESSES:    4609914 HITS:    3494748 MISSES:    1115166
LLC LOAD ACCESSES:    2318884 HITS:    1458024 MISSES:     860860
LLC RFO ACCESSES:     468693 HITS:     429260 MISSES:      39433
LLC PREFETCH ACCESSES:     942050 HITS:     752290 MISSES:     189760
LLC WRITEBACK ACCESSES:     880287 HITS:     855174 MISSES:      25113
LLC 0 RQ ACCESS:    2787577
LLC 0 RQ TO_CACHE:    2787554
LLC 0 RQ MERGED:          0
LLC 0 RQ FORWARD:          0
LLC WQ ACCESS:     880287
LLC WQ TO_CACHE:     880287
LLC WQ MERGED:          0
LLC WQ FORWARD:         37
Major fault: 0 Minor fault: 12862
CPU 0 L1D next line prefetcher final stats
CPU 0 L2C PC-based stride prefetcher final stats
All Misses: 1324774
All Hits: 4102015
SD Algo Stats - Switches: 0 SRR-Repls: 995470 BRR-Repls: 0

DRAM Statistics
 CHANNEL 0
 RQ ROW_BUFFER_HIT:     368100  ROW_BUFFER_MISS:     721338
 DBUS_CONGESTED:     390912
 WQ ROW_BUFFER_HIT:       6281  ROW_BUFFER_MISS:     138796  FULL:          0

 AVG_CONGESTED_CYCLE: 13
LOADS RETIRED: 136549171
INSTR RETIRED: 500000000
