
*** ChampSim Multicore Out-of-Order Simulator ***

Warmup Instructions: 100000000
Simulation Instructions: 500000000
Number of CPUs: 1
LLC sets: 2048
LLC ways: 16
Clean RRIP Policies: 2213230222132302 Dirty RRIP Policies: 1203130212031302 PSEL Width: 10 Track Set: 4294967295 PSEL Mask: 1 Demote Mask: 1040440010404400DS Algo: 0Window size: 0
Off-chip DRAM Size: 4096 MB Channels: 1 Width: 64-bit Data Rate: 1600 MT/s

CPU 0 runs /mnt/beegfs/iconst01/spec2017/Gcc.trace.gz
NOT SORTED
TRACE STRING: /mnt/beegfs/iconst01/spec2017/Gcc.trace.gz
SORTED
TRACE STRING: /mnt/beegfs/iconst01/spec2017/Gcc.trace.gz
INITIAL
TRACE STRING: /mnt/beegfs/iconst01/spec2017/Gcc.trace.gz

champsim_seed used: 269

CPU 0 L1D next line prefetcher
CPU 0 L2C IP-based stride prefetcher
Initialize DRRIP state
Assign rand_sets[0]: 454  LLC: 2048
rand_sets[0]: 454
Assign rand_sets[1]: 1662  LLC: 2048
rand_sets[1]: 1662
Assign rand_sets[2]: 1921  LLC: 2048
rand_sets[2]: 1921
Assign rand_sets[3]: 1131  LLC: 2048
rand_sets[3]: 1131
Assign rand_sets[4]: 331  LLC: 2048
rand_sets[4]: 331
Assign rand_sets[5]: 1531  LLC: 2048
rand_sets[5]: 1531
Assign rand_sets[6]: 482  LLC: 2048
rand_sets[6]: 482
Assign rand_sets[7]: 1275  LLC: 2048
rand_sets[7]: 1275
Assign rand_sets[8]: 1876  LLC: 2048
rand_sets[8]: 1876
Assign rand_sets[9]: 2038  LLC: 2048
rand_sets[9]: 2038
Assign rand_sets[10]: 701  LLC: 2048
rand_sets[10]: 701
Assign rand_sets[11]: 479  LLC: 2048
rand_sets[11]: 479
Assign rand_sets[12]: 892  LLC: 2048
rand_sets[12]: 892
Assign rand_sets[13]: 1820  LLC: 2048
rand_sets[13]: 1820
Assign rand_sets[14]: 1505  LLC: 2048
rand_sets[14]: 1505
Assign rand_sets[15]: 1159  LLC: 2048
rand_sets[15]: 1159
Assign rand_sets[16]: 513  LLC: 2048
rand_sets[16]: 513
Assign rand_sets[17]: 703  LLC: 2048
rand_sets[17]: 703
Assign rand_sets[18]: 561  LLC: 2048
rand_sets[18]: 561
Assign rand_sets[19]: 990  LLC: 2048
rand_sets[19]: 990
Assign rand_sets[20]: 342  LLC: 2048
rand_sets[20]: 342
Assign rand_sets[21]: 882  LLC: 2048
rand_sets[21]: 882
Assign rand_sets[22]: 15  LLC: 2048
rand_sets[22]: 15
Assign rand_sets[23]: 71  LLC: 2048
rand_sets[23]: 71
Assign rand_sets[24]: 1127  LLC: 2048
rand_sets[24]: 1127
Assign rand_sets[25]: 1382  LLC: 2048
rand_sets[25]: 1382
Assign rand_sets[26]: 647  LLC: 2048
rand_sets[26]: 647
Assign rand_sets[27]: 857  LLC: 2048
rand_sets[27]: 857
Assign rand_sets[28]: 1450  LLC: 2048
rand_sets[28]: 1450
Assign rand_sets[29]: 1160  LLC: 2048
rand_sets[29]: 1160
Assign rand_sets[30]: 1852  LLC: 2048
rand_sets[30]: 1852
Assign rand_sets[31]: 1881  LLC: 2048
rand_sets[31]: 1881
Assign rand_sets[32]: 1770  LLC: 2048
rand_sets[32]: 1770
Assign rand_sets[33]: 1622  LLC: 2048
rand_sets[33]: 1622
Assign rand_sets[34]: 275  LLC: 2048
rand_sets[34]: 275
Assign rand_sets[35]: 635  LLC: 2048
rand_sets[35]: 635
Assign rand_sets[36]: 466  LLC: 2048
rand_sets[36]: 466
Assign rand_sets[37]: 1413  LLC: 2048
rand_sets[37]: 1413
Assign rand_sets[38]: 417  LLC: 2048
rand_sets[38]: 417
Assign rand_sets[39]: 472  LLC: 2048
rand_sets[39]: 472
Assign rand_sets[40]: 1340  LLC: 2048
rand_sets[40]: 1340
Assign rand_sets[41]: 852  LLC: 2048
rand_sets[41]: 852
Assign rand_sets[42]: 1365  LLC: 2048
rand_sets[42]: 1365
Assign rand_sets[43]: 47  LLC: 2048
rand_sets[43]: 47
Assign rand_sets[44]: 823  LLC: 2048
rand_sets[44]: 823
Assign rand_sets[45]: 686  LLC: 2048
rand_sets[45]: 686
Assign rand_sets[46]: 1637  LLC: 2048
rand_sets[46]: 1637
Assign rand_sets[47]: 1115  LLC: 2048
rand_sets[47]: 1115
Assign rand_sets[48]: 986  LLC: 2048
rand_sets[48]: 986
Assign rand_sets[49]: 258  LLC: 2048
rand_sets[49]: 258
Assign rand_sets[50]: 633  LLC: 2048
rand_sets[50]: 633
Assign rand_sets[51]: 920  LLC: 2048
rand_sets[51]: 920
Assign rand_sets[52]: 204  LLC: 2048
rand_sets[52]: 204
Assign rand_sets[53]: 227  LLC: 2048
rand_sets[53]: 227
Assign rand_sets[54]: 1818  LLC: 2048
rand_sets[54]: 1818
Assign rand_sets[55]: 886  LLC: 2048
rand_sets[55]: 886
Assign rand_sets[56]: 1422  LLC: 2048
rand_sets[56]: 1422
Assign rand_sets[57]: 607  LLC: 2048
rand_sets[57]: 607
Assign rand_sets[58]: 217  LLC: 2048
rand_sets[58]: 217
Assign rand_sets[59]: 1945  LLC: 2048
rand_sets[59]: 1945
Assign rand_sets[60]: 143  LLC: 2048
rand_sets[60]: 143
Assign rand_sets[61]: 1311  LLC: 2048
rand_sets[61]: 1311
Assign rand_sets[62]: 319  LLC: 2048
rand_sets[62]: 319
Assign rand_sets[63]: 1846  LLC: 2048
rand_sets[63]: 1846
 CLEAN-RRIP-POLICY-1: 2-2-1-3-2-3-0-2- CLEAN-RRIP-POLICY-2: 2-2-1-3-2-3-0-2-
 DIRTY-RRIP-POLICY-1: 1-2-0-3-1-3-0-2- DIRTY-RRIP-POLICY-2: 1-2-0-3-1-3-0-2-
 PSEL width: 10
Heartbeat CPU 0 instructions: 10000001 cycles: 7315979 heartbeat IPC: 1.36687 cumulative IPC: 1.36687 (Simulation time: 0 hr 0 min 13 sec) 
Heartbeat CPU 0 instructions: 20000000 cycles: 14307648 heartbeat IPC: 1.43027 cumulative IPC: 1.39785 (Simulation time: 0 hr 0 min 27 sec) 
Heartbeat CPU 0 instructions: 30000001 cycles: 21020506 heartbeat IPC: 1.48968 cumulative IPC: 1.42718 (Simulation time: 0 hr 0 min 42 sec) 
Heartbeat CPU 0 instructions: 40000000 cycles: 27481265 heartbeat IPC: 1.54781 cumulative IPC: 1.45554 (Simulation time: 0 hr 0 min 56 sec) 
Heartbeat CPU 0 instructions: 50000001 cycles: 33582969 heartbeat IPC: 1.63889 cumulative IPC: 1.48885 (Simulation time: 0 hr 1 min 11 sec) 
Heartbeat CPU 0 instructions: 60000000 cycles: 40064125 heartbeat IPC: 1.54293 cumulative IPC: 1.4976 (Simulation time: 0 hr 1 min 26 sec) 
Heartbeat CPU 0 instructions: 70000000 cycles: 47102721 heartbeat IPC: 1.42074 cumulative IPC: 1.48611 (Simulation time: 0 hr 1 min 40 sec) 
Heartbeat CPU 0 instructions: 80000000 cycles: 54192811 heartbeat IPC: 1.41042 cumulative IPC: 1.47621 (Simulation time: 0 hr 1 min 53 sec) 
Heartbeat CPU 0 instructions: 90000003 cycles: 61197396 heartbeat IPC: 1.42764 cumulative IPC: 1.47065 (Simulation time: 0 hr 2 min 7 sec) 
Heartbeat CPU 0 instructions: 100000000 cycles: 68364781 heartbeat IPC: 1.39521 cumulative IPC: 1.46274 (Simulation time: 0 hr 2 min 21 sec) 

Warmup complete CPU 0 instructions: 100000004 cycles: 68364782 (Simulation time: 0 hr 2 min 21 sec) 

Heartbeat CPU 0 instructions: 110000003 cycles: 95968442 heartbeat IPC: 0.362271 cumulative IPC: 0.362271 (Simulation time: 0 hr 2 min 46 sec) 
Heartbeat CPU 0 instructions: 120000000 cycles: 123403990 heartbeat IPC: 0.364491 cumulative IPC: 0.363377 (Simulation time: 0 hr 3 min 13 sec) 
Heartbeat CPU 0 instructions: 130000000 cycles: 148354789 heartbeat IPC: 0.400789 cumulative IPC: 0.375047 (Simulation time: 0 hr 3 min 39 sec) 
Heartbeat CPU 0 instructions: 140000000 cycles: 177852182 heartbeat IPC: 0.339013 cumulative IPC: 0.365339 (Simulation time: 0 hr 4 min 4 sec) 
Heartbeat CPU 0 instructions: 150000000 cycles: 207702833 heartbeat IPC: 0.335001 cumulative IPC: 0.358839 (Simulation time: 0 hr 4 min 30 sec) 
Heartbeat CPU 0 instructions: 160000000 cycles: 235110981 heartbeat IPC: 0.364855 cumulative IPC: 0.359828 (Simulation time: 0 hr 4 min 55 sec) 
Heartbeat CPU 0 instructions: 170000001 cycles: 263076178 heartbeat IPC: 0.357587 cumulative IPC: 0.359506 (Simulation time: 0 hr 5 min 22 sec) 
Heartbeat CPU 0 instructions: 180000000 cycles: 291497025 heartbeat IPC: 0.351854 cumulative IPC: 0.358532 (Simulation time: 0 hr 5 min 49 sec) 
Heartbeat CPU 0 instructions: 190000002 cycles: 319470218 heartbeat IPC: 0.357485 cumulative IPC: 0.358415 (Simulation time: 0 hr 6 min 15 sec) 
Heartbeat CPU 0 instructions: 200000000 cycles: 347806411 heartbeat IPC: 0.352905 cumulative IPC: 0.357856 (Simulation time: 0 hr 6 min 41 sec) 
Heartbeat CPU 0 instructions: 210000002 cycles: 375622452 heartbeat IPC: 0.359505 cumulative IPC: 0.358006 (Simulation time: 0 hr 7 min 7 sec) 
Heartbeat CPU 0 instructions: 220000000 cycles: 404758821 heartbeat IPC: 0.343214 cumulative IPC: 0.356725 (Simulation time: 0 hr 7 min 32 sec) 
Heartbeat CPU 0 instructions: 230000000 cycles: 432245187 heartbeat IPC: 0.363817 cumulative IPC: 0.35726 (Simulation time: 0 hr 7 min 57 sec) 
Heartbeat CPU 0 instructions: 240000000 cycles: 458157320 heartbeat IPC: 0.38592 cumulative IPC: 0.359165 (Simulation time: 0 hr 8 min 22 sec) 
Heartbeat CPU 0 instructions: 250000000 cycles: 488234523 heartbeat IPC: 0.332478 cumulative IPC: 0.357254 (Simulation time: 0 hr 8 min 49 sec) 
Heartbeat CPU 0 instructions: 260000000 cycles: 515288858 heartbeat IPC: 0.369627 cumulative IPC: 0.358003 (Simulation time: 0 hr 9 min 15 sec) 
Heartbeat CPU 0 instructions: 270000003 cycles: 543639929 heartbeat IPC: 0.35272 cumulative IPC: 0.357688 (Simulation time: 0 hr 9 min 42 sec) 
Heartbeat CPU 0 instructions: 280000000 cycles: 571782781 heartbeat IPC: 0.35533 cumulative IPC: 0.357556 (Simulation time: 0 hr 10 min 9 sec) 
Heartbeat CPU 0 instructions: 290000000 cycles: 600667424 heartbeat IPC: 0.346205 cumulative IPC: 0.35694 (Simulation time: 0 hr 10 min 36 sec) 
Heartbeat CPU 0 instructions: 300000000 cycles: 630611383 heartbeat IPC: 0.333957 cumulative IPC: 0.355716 (Simulation time: 0 hr 11 min 1 sec) 
Heartbeat CPU 0 instructions: 310000001 cycles: 660025354 heartbeat IPC: 0.339975 cumulative IPC: 0.354933 (Simulation time: 0 hr 11 min 27 sec) 
Heartbeat CPU 0 instructions: 320000000 cycles: 688215605 heartbeat IPC: 0.354733 cumulative IPC: 0.354924 (Simulation time: 0 hr 11 min 52 sec) 
Heartbeat CPU 0 instructions: 330000000 cycles: 716823329 heartbeat IPC: 0.349556 cumulative IPC: 0.354687 (Simulation time: 0 hr 12 min 18 sec) 
Heartbeat CPU 0 instructions: 340000000 cycles: 746068423 heartbeat IPC: 0.341938 cumulative IPC: 0.354137 (Simulation time: 0 hr 12 min 43 sec) 
Heartbeat CPU 0 instructions: 350000003 cycles: 773080341 heartbeat IPC: 0.370207 cumulative IPC: 0.354753 (Simulation time: 0 hr 13 min 8 sec) 
Heartbeat CPU 0 instructions: 360000000 cycles: 801204409 heartbeat IPC: 0.355567 cumulative IPC: 0.354784 (Simulation time: 0 hr 13 min 32 sec) 
Heartbeat CPU 0 instructions: 370000000 cycles: 829386075 heartbeat IPC: 0.354841 cumulative IPC: 0.354786 (Simulation time: 0 hr 13 min 57 sec) 
Heartbeat CPU 0 instructions: 380000000 cycles: 857880751 heartbeat IPC: 0.350943 cumulative IPC: 0.354648 (Simulation time: 0 hr 14 min 21 sec) 
Heartbeat CPU 0 instructions: 390000001 cycles: 885484010 heartbeat IPC: 0.362276 cumulative IPC: 0.354905 (Simulation time: 0 hr 14 min 45 sec) 
Heartbeat CPU 0 instructions: 400000000 cycles: 914115086 heartbeat IPC: 0.349271 cumulative IPC: 0.354715 (Simulation time: 0 hr 15 min 10 sec) 
Heartbeat CPU 0 instructions: 410000001 cycles: 941421052 heartbeat IPC: 0.36622 cumulative IPC: 0.355074 (Simulation time: 0 hr 15 min 34 sec) 
Heartbeat CPU 0 instructions: 420000000 cycles: 968746665 heartbeat IPC: 0.365957 cumulative IPC: 0.355405 (Simulation time: 0 hr 15 min 58 sec) 
Heartbeat CPU 0 instructions: 430000002 cycles: 996432136 heartbeat IPC: 0.3612 cumulative IPC: 0.355578 (Simulation time: 0 hr 16 min 22 sec) 
Heartbeat CPU 0 instructions: 440000000 cycles: 1025915621 heartbeat IPC: 0.339173 cumulative IPC: 0.355073 (Simulation time: 0 hr 16 min 46 sec) 
Heartbeat CPU 0 instructions: 450000002 cycles: 1055144558 heartbeat IPC: 0.342127 cumulative IPC: 0.354689 (Simulation time: 0 hr 17 min 10 sec) 
Heartbeat CPU 0 instructions: 460000000 cycles: 1082835484 heartbeat IPC: 0.361129 cumulative IPC: 0.354865 (Simulation time: 0 hr 17 min 34 sec) 
Heartbeat CPU 0 instructions: 470000000 cycles: 1110473127 heartbeat IPC: 0.361825 cumulative IPC: 0.355049 (Simulation time: 0 hr 17 min 58 sec) 
Heartbeat CPU 0 instructions: 480000000 cycles: 1138356536 heartbeat IPC: 0.358636 cumulative IPC: 0.355143 (Simulation time: 0 hr 18 min 22 sec) 
Heartbeat CPU 0 instructions: 490000000 cycles: 1165949524 heartbeat IPC: 0.362411 cumulative IPC: 0.355326 (Simulation time: 0 hr 18 min 46 sec) 
Heartbeat CPU 0 instructions: 500000000 cycles: 1194228184 heartbeat IPC: 0.353624 cumulative IPC: 0.355283 (Simulation time: 0 hr 19 min 11 sec) 
Heartbeat CPU 0 instructions: 510000000 cycles: 1228677313 heartbeat IPC: 0.290283 cumulative IPC: 0.353353 (Simulation time: 0 hr 19 min 38 sec) 
Heartbeat CPU 0 instructions: 520000000 cycles: 1256626018 heartbeat IPC: 0.357798 cumulative IPC: 0.353458 (Simulation time: 0 hr 20 min 3 sec) 
Heartbeat CPU 0 instructions: 530000001 cycles: 1286070442 heartbeat IPC: 0.339623 cumulative IPC: 0.353123 (Simulation time: 0 hr 20 min 29 sec) 
Heartbeat CPU 0 instructions: 540000000 cycles: 1314125413 heartbeat IPC: 0.356443 cumulative IPC: 0.353198 (Simulation time: 0 hr 20 min 54 sec) 
Heartbeat CPU 0 instructions: 550000001 cycles: 1343286116 heartbeat IPC: 0.342927 cumulative IPC: 0.352963 (Simulation time: 0 hr 21 min 20 sec) 
Heartbeat CPU 0 instructions: 560000000 cycles: 1368644978 heartbeat IPC: 0.394339 cumulative IPC: 0.35377 (Simulation time: 0 hr 21 min 45 sec) 
Heartbeat CPU 0 instructions: 570000000 cycles: 1398069590 heartbeat IPC: 0.339852 cumulative IPC: 0.353462 (Simulation time: 0 hr 22 min 10 sec) 
Heartbeat CPU 0 instructions: 580000000 cycles: 1425994958 heartbeat IPC: 0.358097 cumulative IPC: 0.353557 (Simulation time: 0 hr 22 min 36 sec) 
Heartbeat CPU 0 instructions: 590000001 cycles: 1450744400 heartbeat IPC: 0.40405 cumulative IPC: 0.354461 (Simulation time: 0 hr 22 min 59 sec) 
Heartbeat CPU 0 instructions: 600000000 cycles: 1476820935 heartbeat IPC: 0.383487 cumulative IPC: 0.354999 (Simulation time: 0 hr 23 min 24 sec) 
Finished CPU 0 instructions: 500000000 cycles: 1408456175 cumulative IPC: 0.354999 (Simulation time: 0 hr 23 min 24 sec) 

CPU 0 Branch Prediction Accuracy: 86.4311% MPKI: 26.2662
Number of Branches: 96788573 Number of Mispredictions: 13133102
Number of LOAD Instructions: 164682285
Number of LOAD Instructions (ROI): 164682285
Number of STORE Instructions: 78194750
Number of STORE Instructions (ROI): 78194750
Total Destination Memory Operands: 83268534
Total Destination Memory Operands (ROI): 83268534
Total Source Memory Operands: 164712438
Total Source Memory Operands (ROI): 164712438
Number of DEPENDED LOADS: 7059071
Number of DEPENDED LOADS (ROI): 7059071
Number of SQ_ADDED: 83268522
Number of SQ_ADDED (ROI): 83268522
Number of LQ_ADDED: 236700315
Number of LQ_ADDED (ROI): 236700315
Number of Instructions read from trace: 600000066

ChampSim completed all CPUs

Region of Interest Statistics

CPU 0 cumulative IPC: 0.354999 instructions: 500000000 cycles: 1408456175
ITLB TOTAL     ACCESS:  100514101  HIT:  100309655  MISS:     204446
ITLB LOAD      ACCESS:  100514101  HIT:  100309655  MISS:     204446
ITLB RFO       ACCESS:          0  HIT:          0  MISS:          0
ITLB PREFETCH  ACCESS:          0  HIT:          0  MISS:          0
ITLB WRITEBACK ACCESS:          0  HIT:          0  MISS:          0
ITLB PREFETCH  REQUESTED:          0  ISSUED:          0  USEFUL:          0  USELESS:          0
ITLB TOTAL MSHR MERGED:     172424
ITLB LOAD MSHR MERGED:     172424
ITLB RFO MSHR MERGED:          0
ITLB PREFETCH MSHR MERGED:          0
ITLB WRITEBACK MSHR MERGED:          0
ITLB TOTAL ACCESSES:  100686525 HITS:  100309655 MISSES:     376870
ITLB LOAD ACCESSES:  100686525 HITS:  100309655 MISSES:     376870
ITLB RFO ACCESSES:          0 HITS:          0 MISSES:          0
ITLB PREFETCH ACCESSES:          0 HITS:          0 MISSES:          0
ITLB WRITEBACK ACCESSES:          0 HITS:          0 MISSES:          0
ITLB RQ ACCESS:  500000057
ITLB RQ TO_CACHE:  100686525
ITLB RQ MERGED:  399313532
ITLB RQ FORWARD:          0
ITLB WQ ACCESS:          0
ITLB WQ TO_CACHE:          0
ITLB WQ MERGED:          0
ITLB WQ FORWARD:          0
DTLB TOTAL     ACCESS:  165337273  HIT:  164702924  MISS:     634349
DTLB LOAD      ACCESS:  106292285  HIT:  105722358  MISS:     569927
DTLB RFO       ACCESS:   59044988  HIT:   58980566  MISS:      64422
DTLB PREFETCH  ACCESS:          0  HIT:          0  MISS:          0
DTLB WRITEBACK ACCESS:          0  HIT:          0  MISS:          0
DTLB PREFETCH  REQUESTED:          0  ISSUED:          0  USEFUL:          0  USELESS:          0
DTLB TOTAL MSHR MERGED:     100008
DTLB LOAD MSHR MERGED:      59456
DTLB RFO MSHR MERGED:      40552
DTLB PREFETCH MSHR MERGED:          0
DTLB WRITEBACK MSHR MERGED:          0
DTLB TOTAL ACCESSES:  165437281 HITS:  164702924 MISSES:     734357
DTLB LOAD ACCESSES:  106351741 HITS:  105722358 MISSES:     629383
DTLB RFO ACCESSES:   59085540 HITS:   58980566 MISSES:     104974
DTLB PREFETCH ACCESSES:          0 HITS:          0 MISSES:          0
DTLB WRITEBACK ACCESSES:          0 HITS:          0 MISSES:          0
DTLB RQ ACCESS:  200311815
DTLB RQ TO_CACHE:  165437281
DTLB RQ MERGED:   34874534
DTLB RQ FORWARD:          0
DTLB WQ ACCESS:          0
DTLB WQ TO_CACHE:          0
DTLB WQ MERGED:          0
DTLB WQ FORWARD:          0
L1D TOTAL     ACCESS:  281844833  HIT:  273935488  MISS:    7909345
L1D LOAD      ACCESS:  110418549  HIT:  107140743  MISS:    3277806
L1D RFO       ACCESS:   67125498  HIT:   66235210  MISS:     890288
L1D PREFETCH  ACCESS:  104300786  HIT:  100559535  MISS:    3741251
L1D WRITEBACK ACCESS:          0  HIT:          0  MISS:          0
L1D PREFETCH  REQUESTED:  110817456  ISSUED:  109118159  USEFUL:    1661919  USELESS:    2079296
L1D TOTAL MSHR MERGED:    2859711
L1D LOAD MSHR MERGED:     496156
L1D RFO MSHR MERGED:    1860054
L1D PREFETCH MSHR MERGED:     503501
L1D WRITEBACK MSHR MERGED:          0
L1D TOTAL ACCESSES:  284731995 HITS:  273962939 MISSES:   10769056
L1D LOAD ACCESSES:  110818913 HITS:  107142200 MISSES:    3676713
L1D RFO ACCESSES:   68974073 HITS:   66235210 MISSES:    2738863
L1D PREFETCH ACCESSES:  104939009 HITS:  100585529 MISSES:    4353480
L1D WRITEBACK ACCESSES:          0 HITS:          0 MISSES:          0
L1D RQ ACCESS:  130759212
L1D RQ TO_CACHE:  110817459
L1D RQ MERGED:   19940296
L1D RQ FORWARD:          0
L1D WQ ACCESS:   69552603
L1D WQ TO_CACHE:   68974074
L1D WQ MERGED:     578529
L1D WQ FORWARD:      27451
L1I TOTAL     ACCESS:  126561582  HIT:  122323029  MISS:    4238553
L1I LOAD      ACCESS:  126561582  HIT:  122323029  MISS:    4238553
L1I RFO       ACCESS:          0  HIT:          0  MISS:          0
L1I PREFETCH  ACCESS:          0  HIT:          0  MISS:          0
L1I WRITEBACK ACCESS:          0  HIT:          0  MISS:          0
L1I PREFETCH  REQUESTED:          0  ISSUED:          0  USEFUL:          0  USELESS:          0
L1I TOTAL MSHR MERGED:    1834574
L1I LOAD MSHR MERGED:    1834574
L1I RFO MSHR MERGED:          0
L1I PREFETCH MSHR MERGED:          0
L1I WRITEBACK MSHR MERGED:          0
L1I TOTAL ACCESSES:  128396159 HITS:  122323029 MISSES:    6073130
L1I LOAD ACCESSES:  128396159 HITS:  122323029 MISSES:    6073130
L1I RFO ACCESSES:          0 HITS:          0 MISSES:          0
L1I PREFETCH ACCESSES:          0 HITS:          0 MISSES:          0
L1I WRITEBACK ACCESSES:          0 HITS:          0 MISSES:          0
L1I RQ ACCESS:  500000057
L1I RQ TO_CACHE:  128396159
L1I RQ MERGED:  371603898
L1I RQ FORWARD:          0
L1I WQ ACCESS:          0
L1I WQ TO_CACHE:          0
L1I WQ MERGED:          0
L1I WQ FORWARD:          0
L2C TOTAL     ACCESS:   14905284  HIT:   11158768  MISS:    3746516
L2C LOAD      ACCESS:    7418899  HIT:    5098854  MISS:    2320045
L2C RFO       ACCESS:     878711  HIT:     409907  MISS:     468804
L2C PREFETCH  ACCESS:    4568429  HIT:    3628018  MISS:     940411
L2C WRITEBACK ACCESS:    2039245  HIT:    2021989  MISS:      17256
L2C PREFETCH  REQUESTED:     842808  ISSUED:     842808  USEFUL:     203365  USELESS:     736752
L2C TOTAL MSHR MERGED:       7022
L2C LOAD MSHR MERGED:        783
L2C RFO MSHR MERGED:          0
L2C PREFETCH MSHR MERGED:       6239
L2C WRITEBACK MSHR MERGED:          0
L2C TOTAL ACCESSES:   14913209 HITS:   11159221 MISSES:    3753988
L2C LOAD ACCESSES:    7419110 HITS:    5099065 MISSES:    2320045
L2C RFO ACCESSES:     878809 HITS:     410005 MISSES:     468804
L2C PREFETCH ACCESSES:    4576045 HITS:    3628162 MISSES:     947883
L2C WRITEBACK ACCESSES:    2039245 HITS:    2021989 MISSES:      17256
L2C RQ ACCESS:    8297922
L2C RQ TO_CACHE:    8297613
L2C RQ MERGED:          0
L2C RQ FORWARD:          0
L2C WQ ACCESS:    2039245
L2C WQ TO_CACHE:    2039245
L2C WQ MERGED:          0
L2C WQ FORWARD:        453
LLC TOTAL     ACCESS:    4609879  HIT:    3996044  MISS:     613835
LLC LOAD      ACCESS:    2319249  HIT:    2080139  MISS:     239110
LLC RFO       ACCESS:     468794  HIT:     416887  MISS:      51907
LLC PREFETCH  ACCESS:     941528  HIT:     665753  MISS:     275775
LLC WRITEBACK ACCESS:     880308  HIT:     833265  MISS:      47043
LLC PREFETCH  REQUESTED:          0  ISSUED:          0  USEFUL:      14017  USELESS:     262375
LLC TOTAL MSHR MERGED:         95
LLC LOAD MSHR MERGED:         33
LLC RFO MSHR MERGED:          0
LLC PREFETCH MSHR MERGED:         62
LLC WRITEBACK MSHR MERGED:          0
LLC TOTAL ACCESSES:    4610008 HITS:    3996078 MISSES:     613930
LLC LOAD ACCESSES:    2319262 HITS:    2080152 MISSES:     239110
LLC RFO ACCESSES:     468804 HITS:     416897 MISSES:      51907
LLC PREFETCH ACCESSES:     941634 HITS:     665764 MISSES:     275870
LLC WRITEBACK ACCESSES:     880308 HITS:     833265 MISSES:      47043
LLC 0 RQ ACCESS:    2788066
LLC 0 RQ TO_CACHE:    2788043
LLC 0 RQ MERGED:          0
LLC 0 RQ FORWARD:          0
LLC WQ ACCESS:     880308
LLC WQ TO_CACHE:     880308
LLC WQ MERGED:          0
LLC WQ FORWARD:         34
Major fault: 0 Minor fault: 12862
CPU 0 L1D next line prefetcher final stats
CPU 0 L2C PC-based stride prefetcher final stats
All Misses: 733231
All Hits: 4693654
SD Algo Stats - Switches: 0 SRR-Repls: 282775 BRR-Repls: 0

DRAM Statistics
 CHANNEL 0
 RQ ROW_BUFFER_HIT:     111310  ROW_BUFFER_MISS:     454739
 DBUS_CONGESTED:     320504
 WQ ROW_BUFFER_HIT:      10927  ROW_BUFFER_MISS:     152861  FULL:          0

 AVG_CONGESTED_CYCLE: 13
LOADS RETIRED: 136549171
INSTR RETIRED: 500000000
