
*** ChampSim Multicore Out-of-Order Simulator ***

Warmup Instructions: 100000000
Simulation Instructions: 500000000
Number of CPUs: 1
LLC sets: 2048
LLC ways: 16
Clean RRIP Policies: 2213230122132301 Dirty RRIP Policies: 2203130122031301 PSEL Width: 10 Track Set: 4294967295 PSEL Mask: 1 Demote Mask: 3244100032441000DS Algo: 0Window size: 0
Off-chip DRAM Size: 4096 MB Channels: 1 Width: 64-bit Data Rate: 1600 MT/s

CPU 0 runs /mnt/beegfs/iconst01/spec2017/Xz.trace.gz
NOT SORTED
TRACE STRING: /mnt/beegfs/iconst01/spec2017/Xz.trace.gz
SORTED
TRACE STRING: /mnt/beegfs/iconst01/spec2017/Xz.trace.gz
INITIAL
TRACE STRING: /mnt/beegfs/iconst01/spec2017/Xz.trace.gz

champsim_seed used: 210

CPU 0 L1D next line prefetcher
CPU 0 L2C IP-based stride prefetcher
Initialize DRRIP state
Assign rand_sets[0]: 454  LLC: 2048
rand_sets[0]: 454
Assign rand_sets[1]: 1662  LLC: 2048
rand_sets[1]: 1662
Assign rand_sets[2]: 1921  LLC: 2048
rand_sets[2]: 1921
Assign rand_sets[3]: 1131  LLC: 2048
rand_sets[3]: 1131
Assign rand_sets[4]: 331  LLC: 2048
rand_sets[4]: 331
Assign rand_sets[5]: 1531  LLC: 2048
rand_sets[5]: 1531
Assign rand_sets[6]: 482  LLC: 2048
rand_sets[6]: 482
Assign rand_sets[7]: 1275  LLC: 2048
rand_sets[7]: 1275
Assign rand_sets[8]: 1876  LLC: 2048
rand_sets[8]: 1876
Assign rand_sets[9]: 2038  LLC: 2048
rand_sets[9]: 2038
Assign rand_sets[10]: 701  LLC: 2048
rand_sets[10]: 701
Assign rand_sets[11]: 479  LLC: 2048
rand_sets[11]: 479
Assign rand_sets[12]: 892  LLC: 2048
rand_sets[12]: 892
Assign rand_sets[13]: 1820  LLC: 2048
rand_sets[13]: 1820
Assign rand_sets[14]: 1505  LLC: 2048
rand_sets[14]: 1505
Assign rand_sets[15]: 1159  LLC: 2048
rand_sets[15]: 1159
Assign rand_sets[16]: 513  LLC: 2048
rand_sets[16]: 513
Assign rand_sets[17]: 703  LLC: 2048
rand_sets[17]: 703
Assign rand_sets[18]: 561  LLC: 2048
rand_sets[18]: 561
Assign rand_sets[19]: 990  LLC: 2048
rand_sets[19]: 990
Assign rand_sets[20]: 342  LLC: 2048
rand_sets[20]: 342
Assign rand_sets[21]: 882  LLC: 2048
rand_sets[21]: 882
Assign rand_sets[22]: 15  LLC: 2048
rand_sets[22]: 15
Assign rand_sets[23]: 71  LLC: 2048
rand_sets[23]: 71
Assign rand_sets[24]: 1127  LLC: 2048
rand_sets[24]: 1127
Assign rand_sets[25]: 1382  LLC: 2048
rand_sets[25]: 1382
Assign rand_sets[26]: 647  LLC: 2048
rand_sets[26]: 647
Assign rand_sets[27]: 857  LLC: 2048
rand_sets[27]: 857
Assign rand_sets[28]: 1450  LLC: 2048
rand_sets[28]: 1450
Assign rand_sets[29]: 1160  LLC: 2048
rand_sets[29]: 1160
Assign rand_sets[30]: 1852  LLC: 2048
rand_sets[30]: 1852
Assign rand_sets[31]: 1881  LLC: 2048
rand_sets[31]: 1881
Assign rand_sets[32]: 1770  LLC: 2048
rand_sets[32]: 1770
Assign rand_sets[33]: 1622  LLC: 2048
rand_sets[33]: 1622
Assign rand_sets[34]: 275  LLC: 2048
rand_sets[34]: 275
Assign rand_sets[35]: 635  LLC: 2048
rand_sets[35]: 635
Assign rand_sets[36]: 466  LLC: 2048
rand_sets[36]: 466
Assign rand_sets[37]: 1413  LLC: 2048
rand_sets[37]: 1413
Assign rand_sets[38]: 417  LLC: 2048
rand_sets[38]: 417
Assign rand_sets[39]: 472  LLC: 2048
rand_sets[39]: 472
Assign rand_sets[40]: 1340  LLC: 2048
rand_sets[40]: 1340
Assign rand_sets[41]: 852  LLC: 2048
rand_sets[41]: 852
Assign rand_sets[42]: 1365  LLC: 2048
rand_sets[42]: 1365
Assign rand_sets[43]: 47  LLC: 2048
rand_sets[43]: 47
Assign rand_sets[44]: 823  LLC: 2048
rand_sets[44]: 823
Assign rand_sets[45]: 686  LLC: 2048
rand_sets[45]: 686
Assign rand_sets[46]: 1637  LLC: 2048
rand_sets[46]: 1637
Assign rand_sets[47]: 1115  LLC: 2048
rand_sets[47]: 1115
Assign rand_sets[48]: 986  LLC: 2048
rand_sets[48]: 986
Assign rand_sets[49]: 258  LLC: 2048
rand_sets[49]: 258
Assign rand_sets[50]: 633  LLC: 2048
rand_sets[50]: 633
Assign rand_sets[51]: 920  LLC: 2048
rand_sets[51]: 920
Assign rand_sets[52]: 204  LLC: 2048
rand_sets[52]: 204
Assign rand_sets[53]: 227  LLC: 2048
rand_sets[53]: 227
Assign rand_sets[54]: 1818  LLC: 2048
rand_sets[54]: 1818
Assign rand_sets[55]: 886  LLC: 2048
rand_sets[55]: 886
Assign rand_sets[56]: 1422  LLC: 2048
rand_sets[56]: 1422
Assign rand_sets[57]: 607  LLC: 2048
rand_sets[57]: 607
Assign rand_sets[58]: 217  LLC: 2048
rand_sets[58]: 217
Assign rand_sets[59]: 1945  LLC: 2048
rand_sets[59]: 1945
Assign rand_sets[60]: 143  LLC: 2048
rand_sets[60]: 143
Assign rand_sets[61]: 1311  LLC: 2048
rand_sets[61]: 1311
Assign rand_sets[62]: 319  LLC: 2048
rand_sets[62]: 319
Assign rand_sets[63]: 1846  LLC: 2048
rand_sets[63]: 1846
 CLEAN-RRIP-POLICY-1: 2-2-1-3-2-3-0-1- CLEAN-RRIP-POLICY-2: 2-2-1-3-2-3-0-1-
 DIRTY-RRIP-POLICY-1: 2-2-0-3-1-3-0-1- DIRTY-RRIP-POLICY-2: 2-2-0-3-1-3-0-1-
 PSEL width: 10
Heartbeat CPU 0 instructions: 10000000 cycles: 4305270 heartbeat IPC: 2.32273 cumulative IPC: 2.32273 (Simulation time: 0 hr 0 min 11 sec) 
Heartbeat CPU 0 instructions: 20000000 cycles: 8617101 heartbeat IPC: 2.3192 cumulative IPC: 2.32097 (Simulation time: 0 hr 0 min 23 sec) 
Heartbeat CPU 0 instructions: 30000003 cycles: 13160980 heartbeat IPC: 2.20076 cumulative IPC: 2.27947 (Simulation time: 0 hr 0 min 35 sec) 
Heartbeat CPU 0 instructions: 40000000 cycles: 17515472 heartbeat IPC: 2.29648 cumulative IPC: 2.2837 (Simulation time: 0 hr 0 min 47 sec) 
Heartbeat CPU 0 instructions: 50000001 cycles: 21878309 heartbeat IPC: 2.29209 cumulative IPC: 2.28537 (Simulation time: 0 hr 0 min 58 sec) 
Heartbeat CPU 0 instructions: 60000000 cycles: 26178633 heartbeat IPC: 2.32541 cumulative IPC: 2.29195 (Simulation time: 0 hr 1 min 9 sec) 
Heartbeat CPU 0 instructions: 70000001 cycles: 30244649 heartbeat IPC: 2.45941 cumulative IPC: 2.31446 (Simulation time: 0 hr 1 min 20 sec) 
Heartbeat CPU 0 instructions: 80000000 cycles: 34523659 heartbeat IPC: 2.33699 cumulative IPC: 2.31725 (Simulation time: 0 hr 1 min 31 sec) 
Heartbeat CPU 0 instructions: 90000001 cycles: 38740459 heartbeat IPC: 2.37147 cumulative IPC: 2.32315 (Simulation time: 0 hr 1 min 42 sec) 
Heartbeat CPU 0 instructions: 100000000 cycles: 42981136 heartbeat IPC: 2.35811 cumulative IPC: 2.3266 (Simulation time: 0 hr 1 min 53 sec) 

Warmup complete CPU 0 instructions: 100000001 cycles: 42981137 (Simulation time: 0 hr 1 min 53 sec) 

Heartbeat CPU 0 instructions: 110000000 cycles: 53296833 heartbeat IPC: 0.969396 cumulative IPC: 0.969396 (Simulation time: 0 hr 2 min 10 sec) 
Heartbeat CPU 0 instructions: 120000000 cycles: 64193235 heartbeat IPC: 0.917734 cumulative IPC: 0.942858 (Simulation time: 0 hr 2 min 27 sec) 
Heartbeat CPU 0 instructions: 130000001 cycles: 75045663 heartbeat IPC: 0.921453 cumulative IPC: 0.935613 (Simulation time: 0 hr 2 min 44 sec) 
Heartbeat CPU 0 instructions: 140000000 cycles: 84942815 heartbeat IPC: 1.01039 cumulative IPC: 0.953251 (Simulation time: 0 hr 3 min 0 sec) 
Heartbeat CPU 0 instructions: 150000001 cycles: 95524090 heartbeat IPC: 0.945066 cumulative IPC: 0.951602 (Simulation time: 0 hr 3 min 17 sec) 
Heartbeat CPU 0 instructions: 160000000 cycles: 105869346 heartbeat IPC: 0.966627 cumulative IPC: 0.954074 (Simulation time: 0 hr 3 min 34 sec) 
Heartbeat CPU 0 instructions: 170000000 cycles: 115805802 heartbeat IPC: 1.00639 cumulative IPC: 0.961213 (Simulation time: 0 hr 3 min 50 sec) 
Heartbeat CPU 0 instructions: 180000000 cycles: 126691402 heartbeat IPC: 0.918645 cumulative IPC: 0.955677 (Simulation time: 0 hr 4 min 7 sec) 
Heartbeat CPU 0 instructions: 190000001 cycles: 137261426 heartbeat IPC: 0.946072 cumulative IPC: 0.9546 (Simulation time: 0 hr 4 min 24 sec) 
Heartbeat CPU 0 instructions: 200000000 cycles: 148186970 heartbeat IPC: 0.915286 cumulative IPC: 0.950518 (Simulation time: 0 hr 4 min 41 sec) 
Heartbeat CPU 0 instructions: 210000002 cycles: 161205506 heartbeat IPC: 0.768136 cumulative IPC: 0.930434 (Simulation time: 0 hr 4 min 59 sec) 
Heartbeat CPU 0 instructions: 220000000 cycles: 174420380 heartbeat IPC: 0.756723 cumulative IPC: 0.912969 (Simulation time: 0 hr 5 min 17 sec) 
Heartbeat CPU 0 instructions: 230000000 cycles: 187269379 heartbeat IPC: 0.778271 cumulative IPC: 0.900974 (Simulation time: 0 hr 5 min 36 sec) 
Heartbeat CPU 0 instructions: 240000000 cycles: 200112040 heartbeat IPC: 0.778655 cumulative IPC: 0.890977 (Simulation time: 0 hr 5 min 54 sec) 
Heartbeat CPU 0 instructions: 250000000 cycles: 212737920 heartbeat IPC: 0.792024 cumulative IPC: 0.883617 (Simulation time: 0 hr 6 min 12 sec) 
Heartbeat CPU 0 instructions: 260000000 cycles: 224874305 heartbeat IPC: 0.823969 cumulative IPC: 0.879637 (Simulation time: 0 hr 6 min 30 sec) 
Heartbeat CPU 0 instructions: 270000003 cycles: 237442334 heartbeat IPC: 0.79567 cumulative IPC: 0.87421 (Simulation time: 0 hr 6 min 47 sec) 
Heartbeat CPU 0 instructions: 280000000 cycles: 249601164 heartbeat IPC: 0.822447 cumulative IPC: 0.871164 (Simulation time: 0 hr 7 min 5 sec) 
Heartbeat CPU 0 instructions: 290000002 cycles: 261863079 heartbeat IPC: 0.815533 cumulative IPC: 0.868048 (Simulation time: 0 hr 7 min 23 sec) 
Heartbeat CPU 0 instructions: 300000000 cycles: 275023234 heartbeat IPC: 0.759869 cumulative IPC: 0.861913 (Simulation time: 0 hr 7 min 41 sec) 
Heartbeat CPU 0 instructions: 310000000 cycles: 288002748 heartbeat IPC: 0.770445 cumulative IPC: 0.857067 (Simulation time: 0 hr 7 min 59 sec) 
Heartbeat CPU 0 instructions: 320000000 cycles: 301537092 heartbeat IPC: 0.738861 cumulative IPC: 0.85088 (Simulation time: 0 hr 8 min 18 sec) 
Heartbeat CPU 0 instructions: 330000003 cycles: 314310601 heartbeat IPC: 0.78287 cumulative IPC: 0.847678 (Simulation time: 0 hr 8 min 36 sec) 
Heartbeat CPU 0 instructions: 340000000 cycles: 327313093 heartbeat IPC: 0.769083 cumulative IPC: 0.844084 (Simulation time: 0 hr 8 min 54 sec) 
Heartbeat CPU 0 instructions: 350000001 cycles: 338866441 heartbeat IPC: 0.86555 cumulative IPC: 0.844922 (Simulation time: 0 hr 9 min 11 sec) 
Heartbeat CPU 0 instructions: 360000000 cycles: 351456121 heartbeat IPC: 0.794301 cumulative IPC: 0.842856 (Simulation time: 0 hr 9 min 29 sec) 
Heartbeat CPU 0 instructions: 370000001 cycles: 363314320 heartbeat IPC: 0.843298 cumulative IPC: 0.842872 (Simulation time: 0 hr 9 min 47 sec) 
Heartbeat CPU 0 instructions: 380000000 cycles: 374783708 heartbeat IPC: 0.871886 cumulative IPC: 0.843875 (Simulation time: 0 hr 10 min 4 sec) 
Heartbeat CPU 0 instructions: 390000003 cycles: 385964484 heartbeat IPC: 0.894393 cumulative IPC: 0.845522 (Simulation time: 0 hr 10 min 22 sec) 
Heartbeat CPU 0 instructions: 400000000 cycles: 396602889 heartbeat IPC: 0.93999 cumulative IPC: 0.848364 (Simulation time: 0 hr 10 min 39 sec) 
Heartbeat CPU 0 instructions: 410000000 cycles: 407646462 heartbeat IPC: 0.905504 cumulative IPC: 0.850095 (Simulation time: 0 hr 10 min 56 sec) 
Heartbeat CPU 0 instructions: 420000000 cycles: 417234567 heartbeat IPC: 1.04296 cumulative IPC: 0.855036 (Simulation time: 0 hr 11 min 13 sec) 
Heartbeat CPU 0 instructions: 430000002 cycles: 426433038 heartbeat IPC: 1.08714 cumulative IPC: 0.860603 (Simulation time: 0 hr 11 min 29 sec) 
Heartbeat CPU 0 instructions: 440000000 cycles: 437211888 heartbeat IPC: 0.927743 cumulative IPC: 0.862439 (Simulation time: 0 hr 11 min 47 sec) 
Heartbeat CPU 0 instructions: 450000002 cycles: 448920338 heartbeat IPC: 0.854084 cumulative IPC: 0.862198 (Simulation time: 0 hr 12 min 4 sec) 
Heartbeat CPU 0 instructions: 460000000 cycles: 461129448 heartbeat IPC: 0.81906 cumulative IPC: 0.860939 (Simulation time: 0 hr 12 min 22 sec) 
Heartbeat CPU 0 instructions: 470000003 cycles: 471688890 heartbeat IPC: 0.94702 cumulative IPC: 0.863059 (Simulation time: 0 hr 12 min 39 sec) 
Heartbeat CPU 0 instructions: 480000000 cycles: 482683084 heartbeat IPC: 0.909571 cumulative IPC: 0.864222 (Simulation time: 0 hr 12 min 56 sec) 
Heartbeat CPU 0 instructions: 490000000 cycles: 492934208 heartbeat IPC: 0.975503 cumulative IPC: 0.866757 (Simulation time: 0 hr 13 min 13 sec) 
Heartbeat CPU 0 instructions: 500000000 cycles: 505439809 heartbeat IPC: 0.799642 cumulative IPC: 0.864942 (Simulation time: 0 hr 13 min 30 sec) 
Heartbeat CPU 0 instructions: 510000002 cycles: 518554362 heartbeat IPC: 0.762512 cumulative IPC: 0.862118 (Simulation time: 0 hr 13 min 48 sec) 
Heartbeat CPU 0 instructions: 520000000 cycles: 531008538 heartbeat IPC: 0.802943 cumulative IPC: 0.860607 (Simulation time: 0 hr 14 min 6 sec) 
Heartbeat CPU 0 instructions: 530000001 cycles: 543468200 heartbeat IPC: 0.80259 cumulative IPC: 0.859163 (Simulation time: 0 hr 14 min 24 sec) 
Heartbeat CPU 0 instructions: 540000000 cycles: 555688457 heartbeat IPC: 0.818313 cumulative IPC: 0.858189 (Simulation time: 0 hr 14 min 42 sec) 
Heartbeat CPU 0 instructions: 550000001 cycles: 567711383 heartbeat IPC: 0.831744 cumulative IPC: 0.857584 (Simulation time: 0 hr 14 min 59 sec) 
Heartbeat CPU 0 instructions: 560000000 cycles: 579895468 heartbeat IPC: 0.820743 cumulative IPC: 0.856747 (Simulation time: 0 hr 15 min 17 sec) 
Heartbeat CPU 0 instructions: 570000000 cycles: 591882524 heartbeat IPC: 0.834233 cumulative IPC: 0.856256 (Simulation time: 0 hr 15 min 35 sec) 
Heartbeat CPU 0 instructions: 580000000 cycles: 603116657 heartbeat IPC: 0.890144 cumulative IPC: 0.856936 (Simulation time: 0 hr 15 min 52 sec) 
Heartbeat CPU 0 instructions: 590000003 cycles: 615143567 heartbeat IPC: 0.831469 cumulative IPC: 0.8564 (Simulation time: 0 hr 16 min 9 sec) 
Heartbeat CPU 0 instructions: 600000000 cycles: 626182695 heartbeat IPC: 0.905868 cumulative IPC: 0.857337 (Simulation time: 0 hr 16 min 26 sec) 
Finished CPU 0 instructions: 500000001 cycles: 583201566 cumulative IPC: 0.857337 (Simulation time: 0 hr 16 min 26 sec) 

CPU 0 Branch Prediction Accuracy: 93.0095% MPKI: 10.0046
Number of Branches: 71558147 Number of Mispredictions: 5002285
Number of LOAD Instructions: 145708893
Number of LOAD Instructions (ROI): 145708893
Number of STORE Instructions: 40463820
Number of STORE Instructions (ROI): 40463820
Total Destination Memory Operands: 45240498
Total Destination Memory Operands (ROI): 45240498
Total Source Memory Operands: 145708893
Total Source Memory Operands (ROI): 145708893
Number of DEPENDED LOADS: 10672850
Number of DEPENDED LOADS (ROI): 10672850
Number of SQ_ADDED: 45240498
Number of SQ_ADDED (ROI): 45240498
Number of LQ_ADDED: 193452942
Number of LQ_ADDED (ROI): 193452942
Number of Instructions read from trace: 600000002

ChampSim completed all CPUs

Region of Interest Statistics

CPU 0 cumulative IPC: 0.857337 instructions: 500000001 cycles: 583201566
ITLB TOTAL     ACCESS:   77979029  HIT:   77979028  MISS:          1
ITLB LOAD      ACCESS:   77979029  HIT:   77979028  MISS:          1
ITLB RFO       ACCESS:          0  HIT:          0  MISS:          0
ITLB PREFETCH  ACCESS:          0  HIT:          0  MISS:          0
ITLB WRITEBACK ACCESS:          0  HIT:          0  MISS:          0
ITLB PREFETCH  REQUESTED:          0  ISSUED:          0  USEFUL:          0  USELESS:          0
ITLB TOTAL MSHR MERGED:          0
ITLB LOAD MSHR MERGED:          0
ITLB RFO MSHR MERGED:          0
ITLB PREFETCH MSHR MERGED:          0
ITLB WRITEBACK MSHR MERGED:          0
ITLB TOTAL ACCESSES:   77979029 HITS:   77979028 MISSES:          1
ITLB LOAD ACCESSES:   77979029 HITS:   77979028 MISSES:          1
ITLB RFO ACCESSES:          0 HITS:          0 MISSES:          0
ITLB PREFETCH ACCESSES:          0 HITS:          0 MISSES:          0
ITLB WRITEBACK ACCESSES:          0 HITS:          0 MISSES:          0
ITLB RQ ACCESS:  499999995
ITLB RQ TO_CACHE:   77979029
ITLB RQ MERGED:  422020966
ITLB RQ FORWARD:          0
ITLB WQ ACCESS:          0
ITLB WQ TO_CACHE:          0
ITLB WQ MERGED:          0
ITLB WQ FORWARD:          0
DTLB TOTAL     ACCESS:   98680666  HIT:   97799329  MISS:     881337
DTLB LOAD      ACCESS:   70903346  HIT:   70041812  MISS:     861534
DTLB RFO       ACCESS:   27777320  HIT:   27757517  MISS:      19803
DTLB PREFETCH  ACCESS:          0  HIT:          0  MISS:          0
DTLB WRITEBACK ACCESS:          0  HIT:          0  MISS:          0
DTLB PREFETCH  REQUESTED:          0  ISSUED:          0  USEFUL:          0  USELESS:          0
DTLB TOTAL MSHR MERGED:      86974
DTLB LOAD MSHR MERGED:      65142
DTLB RFO MSHR MERGED:      21832
DTLB PREFETCH MSHR MERGED:          0
DTLB WRITEBACK MSHR MERGED:          0
DTLB TOTAL ACCESSES:   98767640 HITS:   97799329 MISSES:     968311
DTLB LOAD ACCESSES:   70968488 HITS:   70041812 MISSES:     926676
DTLB RFO ACCESSES:   27799152 HITS:   27757517 MISSES:      41635
DTLB PREFETCH ACCESSES:          0 HITS:          0 MISSES:          0
DTLB WRITEBACK ACCESSES:          0 HITS:          0 MISSES:          0
DTLB RQ ACCESS:  150272187
DTLB RQ TO_CACHE:   98767640
DTLB RQ MERGED:   51504547
DTLB RQ FORWARD:          0
DTLB WQ ACCESS:          0
DTLB WQ TO_CACHE:          0
DTLB WQ MERGED:          0
DTLB WQ FORWARD:          0
L1D TOTAL     ACCESS:  173296147  HIT:  169127633  MISS:    4168514
L1D LOAD      ACCESS:   75278891  HIT:   73397120  MISS:    1881771
L1D RFO       ACCESS:   36777496  HIT:   36570671  MISS:     206825
L1D PREFETCH  ACCESS:   61239760  HIT:   59159842  MISS:    2079918
L1D WRITEBACK ACCESS:          0  HIT:          0  MISS:          0
L1D PREFETCH  REQUESTED:   75391340  ISSUED:   74827117  USEFUL:     414406  USELESS:    1665501
L1D TOTAL MSHR MERGED:     419762
L1D LOAD MSHR MERGED:     121719
L1D RFO MSHR MERGED:     133367
L1D PREFETCH MSHR MERGED:     164676
L1D WRITEBACK MSHR MERGED:          0
L1D TOTAL ACCESSES:  173867869 HITS:  169279593 MISSES:    4588276
L1D LOAD ACCESSES:   75394028 HITS:   73399808 MISSES:    1994220
L1D RFO ACCESSES:   36909252 HITS:   36570671 MISSES:     338581
L1D PREFETCH ACCESSES:   61564589 HITS:   59309114 MISSES:    2255475
L1D WRITEBACK ACCESSES:          0 HITS:          0 MISSES:          0
L1D RQ ACCESS:  112609784
L1D RQ TO_CACHE:   75391340
L1D RQ MERGED:   37215756
L1D RQ FORWARD:          0
L1D WQ ACCESS:   37662403
L1D WQ TO_CACHE:   36909252
L1D WQ MERGED:     753151
L1D WQ FORWARD:     151960
L1I TOTAL     ACCESS:  100688213  HIT:  100688188  MISS:         25
L1I LOAD      ACCESS:  100688213  HIT:  100688188  MISS:         25
L1I RFO       ACCESS:          0  HIT:          0  MISS:          0
L1I PREFETCH  ACCESS:          0  HIT:          0  MISS:          0
L1I WRITEBACK ACCESS:          0  HIT:          0  MISS:          0
L1I PREFETCH  REQUESTED:          0  ISSUED:          0  USEFUL:          0  USELESS:          0
L1I TOTAL MSHR MERGED:         10
L1I LOAD MSHR MERGED:         10
L1I RFO MSHR MERGED:          0
L1I PREFETCH MSHR MERGED:          0
L1I WRITEBACK MSHR MERGED:          0
L1I TOTAL ACCESSES:  100688223 HITS:  100688188 MISSES:         35
L1I LOAD ACCESSES:  100688223 HITS:  100688188 MISSES:         35
L1I RFO ACCESSES:          0 HITS:          0 MISSES:          0
L1I PREFETCH ACCESSES:          0 HITS:          0 MISSES:          0
L1I WRITEBACK ACCESSES:          0 HITS:          0 MISSES:          0
L1I RQ ACCESS:  499999995
L1I RQ TO_CACHE:  100688223
L1I RQ MERGED:  399311772
L1I RQ FORWARD:          0
L1I WQ ACCESS:          0
L1I WQ TO_CACHE:          0
L1I WQ MERGED:          0
L1I WQ FORWARD:          0
L2C TOTAL     ACCESS:    5852029  HIT:    4008912  MISS:    1843117
L2C LOAD      ACCESS:    1872401  HIT:    1061373  MISS:     811028
L2C RFO       ACCESS:     205198  HIT:     100549  MISS:     104649
L2C PREFETCH  ACCESS:    2168811  HIT:    1245794  MISS:     923017
L2C WRITEBACK ACCESS:    1605619  HIT:    1601196  MISS:       4423
L2C PREFETCH  REQUESTED:      91704  ISSUED:      91704  USEFUL:      86355  USELESS:     836687
L2C TOTAL MSHR MERGED:       1407
L2C LOAD MSHR MERGED:        343
L2C RFO MSHR MERGED:          0
L2C PREFETCH MSHR MERGED:       1064
L2C WRITEBACK MSHR MERGED:          0
L2C TOTAL ACCESSES:    5853882 HITS:    4009091 MISSES:    1844791
L2C LOAD ACCESSES:    1872526 HITS:    1061498 MISSES:     811028
L2C RFO ACCESSES:     205214 HITS:     100565 MISSES:     104649
L2C PREFETCH ACCESSES:    2170523 HITS:    1245832 MISSES:     924691
L2C WRITEBACK ACCESSES:    1605619 HITS:    1601196 MISSES:       4423
L2C RQ ACCESS:    2077740
L2C RQ TO_CACHE:    2077599
L2C RQ MERGED:          0
L2C RQ FORWARD:          0
L2C WQ ACCESS:    1605619
L2C WQ TO_CACHE:    1605619
L2C WQ MERGED:          0
L2C WQ FORWARD:        179
LLC TOTAL     ACCESS:    2673560  HIT:    1615424  MISS:    1058136
LLC LOAD      ACCESS:     810679  HIT:     431349  MISS:     379330
LLC RFO       ACCESS:     104648  HIT:      47949  MISS:      56699
LLC PREFETCH  ACCESS:     923576  HIT:     414844  MISS:     508732
LLC WRITEBACK ACCESS:     834657  HIT:     721282  MISS:     113375
LLC PREFETCH  REQUESTED:          0  ISSUED:          0  USEFUL:      10236  USELESS:     499043
LLC TOTAL MSHR MERGED:         43
LLC LOAD MSHR MERGED:         10
LLC RFO MSHR MERGED:          0
LLC PREFETCH MSHR MERGED:         33
LLC WRITEBACK MSHR MERGED:          0
LLC TOTAL ACCESSES:    2673612 HITS:    1615433 MISSES:    1058179
LLC LOAD ACCESSES:     810685 HITS:     431355 MISSES:     379330
LLC RFO ACCESSES:     104649 HITS:      47950 MISSES:      56699
LLC PREFETCH ACCESSES:     923621 HITS:     414846 MISSES:     508775
LLC WRITEBACK ACCESSES:     834657 HITS:     721282 MISSES:     113375
LLC 0 RQ ACCESS:     915334
LLC 0 RQ TO_CACHE:     915327
LLC 0 RQ MERGED:          0
LLC 0 RQ FORWARD:          0
LLC WQ ACCESS:     834657
LLC WQ TO_CACHE:     834657
LLC WQ MERGED:          0
LLC WQ FORWARD:          9
Major fault: 0 Minor fault: 11278
CPU 0 L1D next line prefetcher final stats
CPU 0 L2C PC-based stride prefetcher final stats
All Misses: 1186983
All Hits: 1867597
SD Algo Stats - Switches: 0 SRR-Repls: 411941 BRR-Repls: 0

DRAM Statistics
 CHANNEL 0
 RQ ROW_BUFFER_HIT:      58367  ROW_BUFFER_MISS:     884442
 DBUS_CONGESTED:     712295
 WQ ROW_BUFFER_HIT:      34303  ROW_BUFFER_MISS:     349262  FULL:          0

 AVG_CONGESTED_CYCLE: 13
LOADS RETIRED: 121769268
INSTR RETIRED: 500000000
