
*** ChampSim Multicore Out-of-Order Simulator ***

Warmup Instructions: 100000000
Simulation Instructions: 500000000
Number of CPUs: 1
LLC sets: 2048
LLC ways: 16
Clean RRIP Policies: 2203030122030301 Dirty RRIP Policies: 1203130112031301 PSEL Width: 10 Track Set: 4294967295 PSEL Mask: 1 Demote Mask: 2402211024022110DS Algo: 0Window size: 0
Off-chip DRAM Size: 4096 MB Channels: 1 Width: 64-bit Data Rate: 1600 MT/s

CPU 0 runs /mnt/beegfs/iconst01/spec2017/Cam4.trace.gz
NOT SORTED
TRACE STRING: /mnt/beegfs/iconst01/spec2017/Cam4.trace.gz
SORTED
TRACE STRING: /mnt/beegfs/iconst01/spec2017/Cam4.trace.gz
INITIAL
TRACE STRING: /mnt/beegfs/iconst01/spec2017/Cam4.trace.gz

champsim_seed used: 325

CPU 0 L1D next line prefetcher
CPU 0 L2C IP-based stride prefetcher
Initialize DRRIP state
Assign rand_sets[0]: 454  LLC: 2048
rand_sets[0]: 454
Assign rand_sets[1]: 1662  LLC: 2048
rand_sets[1]: 1662
Assign rand_sets[2]: 1921  LLC: 2048
rand_sets[2]: 1921
Assign rand_sets[3]: 1131  LLC: 2048
rand_sets[3]: 1131
Assign rand_sets[4]: 331  LLC: 2048
rand_sets[4]: 331
Assign rand_sets[5]: 1531  LLC: 2048
rand_sets[5]: 1531
Assign rand_sets[6]: 482  LLC: 2048
rand_sets[6]: 482
Assign rand_sets[7]: 1275  LLC: 2048
rand_sets[7]: 1275
Assign rand_sets[8]: 1876  LLC: 2048
rand_sets[8]: 1876
Assign rand_sets[9]: 2038  LLC: 2048
rand_sets[9]: 2038
Assign rand_sets[10]: 701  LLC: 2048
rand_sets[10]: 701
Assign rand_sets[11]: 479  LLC: 2048
rand_sets[11]: 479
Assign rand_sets[12]: 892  LLC: 2048
rand_sets[12]: 892
Assign rand_sets[13]: 1820  LLC: 2048
rand_sets[13]: 1820
Assign rand_sets[14]: 1505  LLC: 2048
rand_sets[14]: 1505
Assign rand_sets[15]: 1159  LLC: 2048
rand_sets[15]: 1159
Assign rand_sets[16]: 513  LLC: 2048
rand_sets[16]: 513
Assign rand_sets[17]: 703  LLC: 2048
rand_sets[17]: 703
Assign rand_sets[18]: 561  LLC: 2048
rand_sets[18]: 561
Assign rand_sets[19]: 990  LLC: 2048
rand_sets[19]: 990
Assign rand_sets[20]: 342  LLC: 2048
rand_sets[20]: 342
Assign rand_sets[21]: 882  LLC: 2048
rand_sets[21]: 882
Assign rand_sets[22]: 15  LLC: 2048
rand_sets[22]: 15
Assign rand_sets[23]: 71  LLC: 2048
rand_sets[23]: 71
Assign rand_sets[24]: 1127  LLC: 2048
rand_sets[24]: 1127
Assign rand_sets[25]: 1382  LLC: 2048
rand_sets[25]: 1382
Assign rand_sets[26]: 647  LLC: 2048
rand_sets[26]: 647
Assign rand_sets[27]: 857  LLC: 2048
rand_sets[27]: 857
Assign rand_sets[28]: 1450  LLC: 2048
rand_sets[28]: 1450
Assign rand_sets[29]: 1160  LLC: 2048
rand_sets[29]: 1160
Assign rand_sets[30]: 1852  LLC: 2048
rand_sets[30]: 1852
Assign rand_sets[31]: 1881  LLC: 2048
rand_sets[31]: 1881
Assign rand_sets[32]: 1770  LLC: 2048
rand_sets[32]: 1770
Assign rand_sets[33]: 1622  LLC: 2048
rand_sets[33]: 1622
Assign rand_sets[34]: 275  LLC: 2048
rand_sets[34]: 275
Assign rand_sets[35]: 635  LLC: 2048
rand_sets[35]: 635
Assign rand_sets[36]: 466  LLC: 2048
rand_sets[36]: 466
Assign rand_sets[37]: 1413  LLC: 2048
rand_sets[37]: 1413
Assign rand_sets[38]: 417  LLC: 2048
rand_sets[38]: 417
Assign rand_sets[39]: 472  LLC: 2048
rand_sets[39]: 472
Assign rand_sets[40]: 1340  LLC: 2048
rand_sets[40]: 1340
Assign rand_sets[41]: 852  LLC: 2048
rand_sets[41]: 852
Assign rand_sets[42]: 1365  LLC: 2048
rand_sets[42]: 1365
Assign rand_sets[43]: 47  LLC: 2048
rand_sets[43]: 47
Assign rand_sets[44]: 823  LLC: 2048
rand_sets[44]: 823
Assign rand_sets[45]: 686  LLC: 2048
rand_sets[45]: 686
Assign rand_sets[46]: 1637  LLC: 2048
rand_sets[46]: 1637
Assign rand_sets[47]: 1115  LLC: 2048
rand_sets[47]: 1115
Assign rand_sets[48]: 986  LLC: 2048
rand_sets[48]: 986
Assign rand_sets[49]: 258  LLC: 2048
rand_sets[49]: 258
Assign rand_sets[50]: 633  LLC: 2048
rand_sets[50]: 633
Assign rand_sets[51]: 920  LLC: 2048
rand_sets[51]: 920
Assign rand_sets[52]: 204  LLC: 2048
rand_sets[52]: 204
Assign rand_sets[53]: 227  LLC: 2048
rand_sets[53]: 227
Assign rand_sets[54]: 1818  LLC: 2048
rand_sets[54]: 1818
Assign rand_sets[55]: 886  LLC: 2048
rand_sets[55]: 886
Assign rand_sets[56]: 1422  LLC: 2048
rand_sets[56]: 1422
Assign rand_sets[57]: 607  LLC: 2048
rand_sets[57]: 607
Assign rand_sets[58]: 217  LLC: 2048
rand_sets[58]: 217
Assign rand_sets[59]: 1945  LLC: 2048
rand_sets[59]: 1945
Assign rand_sets[60]: 143  LLC: 2048
rand_sets[60]: 143
Assign rand_sets[61]: 1311  LLC: 2048
rand_sets[61]: 1311
Assign rand_sets[62]: 319  LLC: 2048
rand_sets[62]: 319
Assign rand_sets[63]: 1846  LLC: 2048
rand_sets[63]: 1846
 CLEAN-RRIP-POLICY-1: 2-2-0-3-0-3-0-1- CLEAN-RRIP-POLICY-2: 2-2-0-3-0-3-0-1-
 DIRTY-RRIP-POLICY-1: 1-2-0-3-1-3-0-1- DIRTY-RRIP-POLICY-2: 1-2-0-3-1-3-0-1-
 PSEL width: 10
Heartbeat CPU 0 instructions: 10000000 cycles: 4859184 heartbeat IPC: 2.05796 cumulative IPC: 2.05796 (Simulation time: 0 hr 0 min 17 sec) 
Heartbeat CPU 0 instructions: 20000000 cycles: 9790786 heartbeat IPC: 2.02774 cumulative IPC: 2.04274 (Simulation time: 0 hr 0 min 34 sec) 
Heartbeat CPU 0 instructions: 30000001 cycles: 14563009 heartbeat IPC: 2.09546 cumulative IPC: 2.06001 (Simulation time: 0 hr 0 min 49 sec) 
Heartbeat CPU 0 instructions: 40000000 cycles: 19400095 heartbeat IPC: 2.06736 cumulative IPC: 2.06185 (Simulation time: 0 hr 1 min 7 sec) 
Heartbeat CPU 0 instructions: 50000000 cycles: 24256774 heartbeat IPC: 2.05902 cumulative IPC: 2.06128 (Simulation time: 0 hr 1 min 24 sec) 
Heartbeat CPU 0 instructions: 60000000 cycles: 29182227 heartbeat IPC: 2.03027 cumulative IPC: 2.05605 (Simulation time: 0 hr 1 min 42 sec) 
Heartbeat CPU 0 instructions: 70000001 cycles: 33956901 heartbeat IPC: 2.09438 cumulative IPC: 2.06144 (Simulation time: 0 hr 1 min 57 sec) 
Heartbeat CPU 0 instructions: 80000000 cycles: 38793239 heartbeat IPC: 2.06768 cumulative IPC: 2.06222 (Simulation time: 0 hr 2 min 14 sec) 
Heartbeat CPU 0 instructions: 90000002 cycles: 43647344 heartbeat IPC: 2.06011 cumulative IPC: 2.06198 (Simulation time: 0 hr 2 min 31 sec) 
Heartbeat CPU 0 instructions: 100000000 cycles: 48566148 heartbeat IPC: 2.03301 cumulative IPC: 2.05905 (Simulation time: 0 hr 2 min 49 sec) 

Warmup complete CPU 0 instructions: 100000001 cycles: 48566149 (Simulation time: 0 hr 2 min 49 sec) 

Heartbeat CPU 0 instructions: 110000000 cycles: 61660202 heartbeat IPC: 0.763705 cumulative IPC: 0.763705 (Simulation time: 0 hr 3 min 12 sec) 
Heartbeat CPU 0 instructions: 120000000 cycles: 75443097 heartbeat IPC: 0.725537 cumulative IPC: 0.744132 (Simulation time: 0 hr 3 min 38 sec) 
Heartbeat CPU 0 instructions: 130000000 cycles: 89220846 heartbeat IPC: 0.725808 cumulative IPC: 0.737922 (Simulation time: 0 hr 4 min 3 sec) 
Heartbeat CPU 0 instructions: 140000000 cycles: 103488789 heartbeat IPC: 0.700872 cumulative IPC: 0.728297 (Simulation time: 0 hr 4 min 29 sec) 
Heartbeat CPU 0 instructions: 150000003 cycles: 116648315 heartbeat IPC: 0.759906 cumulative IPC: 0.734407 (Simulation time: 0 hr 4 min 53 sec) 
Heartbeat CPU 0 instructions: 160000000 cycles: 130429823 heartbeat IPC: 0.72561 cumulative IPC: 0.732926 (Simulation time: 0 hr 5 min 19 sec) 
Heartbeat CPU 0 instructions: 170000001 cycles: 144247423 heartbeat IPC: 0.723715 cumulative IPC: 0.731596 (Simulation time: 0 hr 5 min 44 sec) 
Heartbeat CPU 0 instructions: 180000000 cycles: 158501017 heartbeat IPC: 0.701577 cumulative IPC: 0.727704 (Simulation time: 0 hr 6 min 10 sec) 
Heartbeat CPU 0 instructions: 190000003 cycles: 171649349 heartbeat IPC: 0.760553 cumulative IPC: 0.731213 (Simulation time: 0 hr 6 min 34 sec) 
Heartbeat CPU 0 instructions: 200000000 cycles: 185432909 heartbeat IPC: 0.725502 cumulative IPC: 0.730638 (Simulation time: 0 hr 7 min 0 sec) 
Heartbeat CPU 0 instructions: 210000002 cycles: 199246809 heartbeat IPC: 0.723909 cumulative IPC: 0.730021 (Simulation time: 0 hr 7 min 25 sec) 
Heartbeat CPU 0 instructions: 220000000 cycles: 213498332 heartbeat IPC: 0.701679 cumulative IPC: 0.727572 (Simulation time: 0 hr 7 min 51 sec) 
Heartbeat CPU 0 instructions: 230000001 cycles: 226576894 heartbeat IPC: 0.76461 cumulative IPC: 0.730293 (Simulation time: 0 hr 8 min 15 sec) 
Heartbeat CPU 0 instructions: 240000000 cycles: 240341647 heartbeat IPC: 0.726493 cumulative IPC: 0.73002 (Simulation time: 0 hr 8 min 40 sec) 
Heartbeat CPU 0 instructions: 250000001 cycles: 254101380 heartbeat IPC: 0.726758 cumulative IPC: 0.729802 (Simulation time: 0 hr 9 min 6 sec) 
Heartbeat CPU 0 instructions: 260000000 cycles: 268253060 heartbeat IPC: 0.70663 cumulative IPC: 0.728309 (Simulation time: 0 hr 9 min 32 sec) 
Heartbeat CPU 0 instructions: 270000003 cycles: 281465953 heartbeat IPC: 0.756837 cumulative IPC: 0.729928 (Simulation time: 0 hr 9 min 55 sec) 
Heartbeat CPU 0 instructions: 280000000 cycles: 295248003 heartbeat IPC: 0.725581 cumulative IPC: 0.729685 (Simulation time: 0 hr 10 min 21 sec) 
Heartbeat CPU 0 instructions: 290000001 cycles: 309056300 heartbeat IPC: 0.724202 cumulative IPC: 0.729394 (Simulation time: 0 hr 10 min 47 sec) 
Heartbeat CPU 0 instructions: 300000000 cycles: 323148615 heartbeat IPC: 0.709607 cumulative IPC: 0.728379 (Simulation time: 0 hr 11 min 13 sec) 
Heartbeat CPU 0 instructions: 310000000 cycles: 336393130 heartbeat IPC: 0.75503 cumulative IPC: 0.729605 (Simulation time: 0 hr 11 min 36 sec) 
Heartbeat CPU 0 instructions: 320000000 cycles: 350218823 heartbeat IPC: 0.723291 cumulative IPC: 0.729316 (Simulation time: 0 hr 12 min 2 sec) 
Heartbeat CPU 0 instructions: 330000000 cycles: 364046293 heartbeat IPC: 0.723198 cumulative IPC: 0.729047 (Simulation time: 0 hr 12 min 28 sec) 
Heartbeat CPU 0 instructions: 340000000 cycles: 378115940 heartbeat IPC: 0.71075 cumulative IPC: 0.728266 (Simulation time: 0 hr 12 min 53 sec) 
Heartbeat CPU 0 instructions: 350000000 cycles: 391407988 heartbeat IPC: 0.75233 cumulative IPC: 0.729199 (Simulation time: 0 hr 13 min 16 sec) 
Heartbeat CPU 0 instructions: 360000000 cycles: 405270704 heartbeat IPC: 0.721359 cumulative IPC: 0.728895 (Simulation time: 0 hr 13 min 42 sec) 
Heartbeat CPU 0 instructions: 370000003 cycles: 419098580 heartbeat IPC: 0.723177 cumulative IPC: 0.728681 (Simulation time: 0 hr 14 min 7 sec) 
Heartbeat CPU 0 instructions: 380000000 cycles: 433138088 heartbeat IPC: 0.712275 cumulative IPC: 0.728082 (Simulation time: 0 hr 14 min 33 sec) 
Heartbeat CPU 0 instructions: 390000003 cycles: 446428135 heartbeat IPC: 0.752443 cumulative IPC: 0.728896 (Simulation time: 0 hr 14 min 56 sec) 
Heartbeat CPU 0 instructions: 400000000 cycles: 460278654 heartbeat IPC: 0.721994 cumulative IPC: 0.728664 (Simulation time: 0 hr 15 min 21 sec) 
Heartbeat CPU 0 instructions: 410000000 cycles: 474075910 heartbeat IPC: 0.724782 cumulative IPC: 0.728538 (Simulation time: 0 hr 15 min 46 sec) 
Heartbeat CPU 0 instructions: 420000000 cycles: 488104999 heartbeat IPC: 0.712805 cumulative IPC: 0.728036 (Simulation time: 0 hr 16 min 12 sec) 
Heartbeat CPU 0 instructions: 430000003 cycles: 501412375 heartbeat IPC: 0.751463 cumulative IPC: 0.728724 (Simulation time: 0 hr 16 min 35 sec) 
Heartbeat CPU 0 instructions: 440000000 cycles: 515270668 heartbeat IPC: 0.721589 cumulative IPC: 0.728512 (Simulation time: 0 hr 17 min 0 sec) 
Heartbeat CPU 0 instructions: 450000000 cycles: 529091467 heartbeat IPC: 0.723547 cumulative IPC: 0.72837 (Simulation time: 0 hr 17 min 25 sec) 
Heartbeat CPU 0 instructions: 460000000 cycles: 543105477 heartbeat IPC: 0.713572 cumulative IPC: 0.72795 (Simulation time: 0 hr 17 min 50 sec) 
Heartbeat CPU 0 instructions: 470000001 cycles: 556375610 heartbeat IPC: 0.753572 cumulative IPC: 0.72862 (Simulation time: 0 hr 18 min 12 sec) 
Heartbeat CPU 0 instructions: 480000000 cycles: 570206700 heartbeat IPC: 0.723009 cumulative IPC: 0.728471 (Simulation time: 0 hr 18 min 37 sec) 
Heartbeat CPU 0 instructions: 490000002 cycles: 583996886 heartbeat IPC: 0.725154 cumulative IPC: 0.728386 (Simulation time: 0 hr 19 min 2 sec) 
Heartbeat CPU 0 instructions: 500000000 cycles: 598002274 heartbeat IPC: 0.714011 cumulative IPC: 0.728019 (Simulation time: 0 hr 19 min 27 sec) 
Heartbeat CPU 0 instructions: 510000002 cycles: 611277454 heartbeat IPC: 0.753286 cumulative IPC: 0.728615 (Simulation time: 0 hr 19 min 50 sec) 
Heartbeat CPU 0 instructions: 520000000 cycles: 625100404 heartbeat IPC: 0.723434 cumulative IPC: 0.728491 (Simulation time: 0 hr 20 min 15 sec) 
Heartbeat CPU 0 instructions: 530000003 cycles: 638871715 heartbeat IPC: 0.726147 cumulative IPC: 0.728436 (Simulation time: 0 hr 20 min 40 sec) 
Heartbeat CPU 0 instructions: 540000000 cycles: 652903639 heartbeat IPC: 0.71266 cumulative IPC: 0.72807 (Simulation time: 0 hr 21 min 5 sec) 
Heartbeat CPU 0 instructions: 550000003 cycles: 666173842 heartbeat IPC: 0.753568 cumulative IPC: 0.728618 (Simulation time: 0 hr 21 min 27 sec) 
Heartbeat CPU 0 instructions: 560000000 cycles: 679973666 heartbeat IPC: 0.724647 cumulative IPC: 0.728531 (Simulation time: 0 hr 21 min 52 sec) 
Heartbeat CPU 0 instructions: 570000001 cycles: 693769609 heartbeat IPC: 0.724851 cumulative IPC: 0.728452 (Simulation time: 0 hr 22 min 17 sec) 
Heartbeat CPU 0 instructions: 580000000 cycles: 707820578 heartbeat IPC: 0.711695 cumulative IPC: 0.728095 (Simulation time: 0 hr 22 min 42 sec) 
Heartbeat CPU 0 instructions: 590000000 cycles: 721052630 heartbeat IPC: 0.755741 cumulative IPC: 0.728639 (Simulation time: 0 hr 23 min 5 sec) 
Heartbeat CPU 0 instructions: 600000000 cycles: 734855883 heartbeat IPC: 0.724467 cumulative IPC: 0.728555 (Simulation time: 0 hr 23 min 30 sec) 
Finished CPU 0 instructions: 500000001 cycles: 686289742 cumulative IPC: 0.728555 (Simulation time: 0 hr 23 min 30 sec) 

CPU 0 Branch Prediction Accuracy: 97.5275% MPKI: 2.1997
Number of Branches: 44482865 Number of Mispredictions: 1099852
Number of LOAD Instructions: 144955155
Number of LOAD Instructions (ROI): 144955155
Number of STORE Instructions: 55921098
Number of STORE Instructions (ROI): 55921098
Total Destination Memory Operands: 57111147
Total Destination Memory Operands (ROI): 57111147
Total Source Memory Operands: 144955155
Total Source Memory Operands (ROI): 144955155
Number of DEPENDED LOADS: 13454953
Number of DEPENDED LOADS (ROI): 13454953
Number of SQ_ADDED: 57111126
Number of SQ_ADDED (ROI): 57111126
Number of LQ_ADDED: 174849416
Number of LQ_ADDED (ROI): 174849416
Number of Instructions read from trace: 600000256

ChampSim completed all CPUs

Region of Interest Statistics

CPU 0 cumulative IPC: 0.728555 instructions: 500000001 cycles: 686289742
ITLB TOTAL     ACCESS:  136070552  HIT:  136067999  MISS:       2553
ITLB LOAD      ACCESS:  136070552  HIT:  136067999  MISS:       2553
ITLB RFO       ACCESS:          0  HIT:          0  MISS:          0
ITLB PREFETCH  ACCESS:          0  HIT:          0  MISS:          0
ITLB WRITEBACK ACCESS:          0  HIT:          0  MISS:          0
ITLB PREFETCH  REQUESTED:          0  ISSUED:          0  USEFUL:          0  USELESS:          0
ITLB TOTAL MSHR MERGED:       4380
ITLB LOAD MSHR MERGED:       4380
ITLB RFO MSHR MERGED:          0
ITLB PREFETCH MSHR MERGED:          0
ITLB WRITEBACK MSHR MERGED:          0
ITLB TOTAL ACCESSES:  136074932 HITS:  136067999 MISSES:       6933
ITLB LOAD ACCESSES:  136074932 HITS:  136067999 MISSES:       6933
ITLB RFO ACCESSES:          0 HITS:          0 MISSES:          0
ITLB PREFETCH ACCESSES:          0 HITS:          0 MISSES:          0
ITLB WRITEBACK ACCESSES:          0 HITS:          0 MISSES:          0
ITLB RQ ACCESS:  500000202
ITLB RQ TO_CACHE:  136074932
ITLB RQ MERGED:  363925270
ITLB RQ FORWARD:          0
ITLB WQ ACCESS:          0
ITLB WQ TO_CACHE:          0
ITLB WQ MERGED:          0
ITLB WQ FORWARD:          0
DTLB TOTAL     ACCESS:  111544638  HIT:  111408445  MISS:     136193
DTLB LOAD      ACCESS:   78946318  HIT:   78820694  MISS:     125624
DTLB RFO       ACCESS:   32598320  HIT:   32587751  MISS:      10569
DTLB PREFETCH  ACCESS:          0  HIT:          0  MISS:          0
DTLB WRITEBACK ACCESS:          0  HIT:          0  MISS:          0
DTLB PREFETCH  REQUESTED:          0  ISSUED:          0  USEFUL:          0  USELESS:          0
DTLB TOTAL MSHR MERGED:      63953
DTLB LOAD MSHR MERGED:      51070
DTLB RFO MSHR MERGED:      12883
DTLB PREFETCH MSHR MERGED:          0
DTLB WRITEBACK MSHR MERGED:          0
DTLB TOTAL ACCESSES:  111608591 HITS:  111408445 MISSES:     200146
DTLB LOAD ACCESSES:   78997388 HITS:   78820694 MISSES:     176694
DTLB RFO ACCESSES:   32611203 HITS:   32587751 MISSES:      23452
DTLB PREFETCH ACCESSES:          0 HITS:          0 MISSES:          0
DTLB WRITEBACK ACCESSES:          0 HITS:          0 MISSES:          0
DTLB RQ ACCESS:  157180477
DTLB RQ TO_CACHE:  111608591
DTLB RQ MERGED:   45571886
DTLB RQ FORWARD:          0
DTLB WQ ACCESS:          0
DTLB WQ TO_CACHE:          0
DTLB WQ MERGED:          0
DTLB WQ FORWARD:          0
L1D TOTAL     ACCESS:  198163789  HIT:  188322834  MISS:    9840955
L1D LOAD      ACCESS:   79939015  HIT:   75668948  MISS:    4270067
L1D RFO       ACCESS:   44499944  HIT:   43599461  MISS:     900483
L1D PREFETCH  ACCESS:   73724830  HIT:   69054425  MISS:    4670405
L1D WRITEBACK ACCESS:          0  HIT:          0  MISS:          0
L1D PREFETCH  REQUESTED:   80341965  ISSUED:   79886234  USEFUL:    1812192  USELESS:    2858122
L1D TOTAL MSHR MERGED:    2563962
L1D LOAD MSHR MERGED:     534257
L1D RFO MSHR MERGED:    1452606
L1D PREFETCH MSHR MERGED:     577099
L1D WRITEBACK MSHR MERGED:          0
L1D TOTAL ACCESSES:  200749288 HITS:  188344371 MISSES:   12404917
L1D LOAD ACCESSES:   80354856 HITS:   75681839 MISSES:    4673017
L1D RFO ACCESSES:   45949496 HITS:   43599461 MISSES:    2350035
L1D PREFETCH ACCESSES:   74444936 HITS:   69063071 MISSES:    5381865
L1D WRITEBACK ACCESSES:          0 HITS:          0 MISSES:          0
L1D RQ ACCESS:  109538507
L1D RQ TO_CACHE:   80341965
L1D RQ MERGED:   29183651
L1D RQ FORWARD:          0
L1D WQ ACCESS:   47641970
L1D WQ TO_CACHE:   45949496
L1D WQ MERGED:    1692474
L1D WQ FORWARD:      21537
L1I TOTAL     ACCESS:  161541885  HIT:  161277918  MISS:     263967
L1I LOAD      ACCESS:  161541885  HIT:  161277918  MISS:     263967
L1I RFO       ACCESS:          0  HIT:          0  MISS:          0
L1I PREFETCH  ACCESS:          0  HIT:          0  MISS:          0
L1I WRITEBACK ACCESS:          0  HIT:          0  MISS:          0
L1I PREFETCH  REQUESTED:          0  ISSUED:          0  USEFUL:          0  USELESS:          0
L1I TOTAL MSHR MERGED:     260556
L1I LOAD MSHR MERGED:     260556
L1I RFO MSHR MERGED:          0
L1I PREFETCH MSHR MERGED:          0
L1I WRITEBACK MSHR MERGED:          0
L1I TOTAL ACCESSES:  161802441 HITS:  161277918 MISSES:     524523
L1I LOAD ACCESSES:  161802441 HITS:  161277918 MISSES:     524523
L1I RFO ACCESSES:          0 HITS:          0 MISSES:          0
L1I PREFETCH ACCESSES:          0 HITS:          0 MISSES:          0
L1I WRITEBACK ACCESSES:          0 HITS:          0 MISSES:          0
L1I RQ ACCESS:  500000202
L1I RQ TO_CACHE:  161802441
L1I RQ MERGED:  338197761
L1I RQ FORWARD:          0
L1I WQ ACCESS:          0
L1I WQ TO_CACHE:          0
L1I WQ MERGED:          0
L1I WQ FORWARD:          0
L2C TOTAL     ACCESS:   11771733  HIT:   10382432  MISS:    1389301
L2C LOAD      ACCESS:    4402659  HIT:    3906005  MISS:     496654
L2C RFO       ACCESS:     897361  HIT:     536264  MISS:     361097
L2C PREFETCH  ACCESS:    5284203  HIT:    4755589  MISS:     528614
L2C WRITEBACK ACCESS:    1187510  HIT:    1184574  MISS:       2936
L2C PREFETCH  REQUESTED:     504700  ISSUED:     504700  USEFUL:     115046  USELESS:     413761
L2C TOTAL MSHR MERGED:       2148
L2C LOAD MSHR MERGED:        427
L2C RFO MSHR MERGED:          0
L2C PREFETCH MSHR MERGED:       1721
L2C WRITEBACK MSHR MERGED:          0
L2C TOTAL ACCESSES:   11776429 HITS:   10382659 MISSES:    1393770
L2C LOAD ACCESSES:    4402727 HITS:    3906073 MISSES:     496654
L2C RFO ACCESSES:     897429 HITS:     536332 MISSES:     361097
L2C PREFETCH ACCESSES:    5288763 HITS:    4755680 MISSES:     533083
L2C WRITEBACK ACCESSES:    1187510 HITS:    1184574 MISSES:       2936
L2C RQ ACCESS:    5300156
L2C RQ TO_CACHE:    5300020
L2C RQ MERGED:          0
L2C RQ FORWARD:          0
L2C WQ ACCESS:    1187510
L2C WQ TO_CACHE:    1187510
L2C WQ MERGED:          0
L2C WQ FORWARD:        227
LLC TOTAL     ACCESS:    1849297  HIT:    1082161  MISS:     767136
LLC LOAD      ACCESS:     496225  HIT:     271921  MISS:     224304
LLC RFO       ACCESS:     361095  HIT:     196314  MISS:     164781
LLC PREFETCH  ACCESS:     531266  HIT:     297668  MISS:     233598
LLC WRITEBACK ACCESS:     460711  HIT:     316258  MISS:     144453
LLC PREFETCH  REQUESTED:          0  ISSUED:          0  USEFUL:       3645  USELESS:     230073
LLC TOTAL MSHR MERGED:         74
LLC LOAD MSHR MERGED:         29
LLC RFO MSHR MERGED:          0
LLC PREFETCH MSHR MERGED:         45
LLC WRITEBACK MSHR MERGED:          0
LLC TOTAL ACCESSES:    1849393 HITS:    1082183 MISSES:     767210
LLC LOAD ACCESSES:     496227 HITS:     271923 MISSES:     224304
LLC RFO ACCESSES:     361097 HITS:     196316 MISSES:     164781
LLC PREFETCH ACCESSES:     531358 HITS:     297686 MISSES:     233672
LLC WRITEBACK ACCESSES:     460711 HITS:     316258 MISSES:     144453
LLC 0 RQ ACCESS:     857324
LLC 0 RQ TO_CACHE:     857320
LLC 0 RQ MERGED:          0
LLC 0 RQ FORWARD:          0
LLC WQ ACCESS:     460711
LLC WQ TO_CACHE:     460711
LLC WQ MERGED:          0
LLC WQ FORWARD:         22
Major fault: 0 Minor fault: 3073
CPU 0 L1D next line prefetcher final stats
CPU 0 L2C PC-based stride prefetcher final stats
All Misses: 934628
All Hits: 1241364
SD Algo Stats - Switches: 0 SRR-Repls: 261062 BRR-Repls: 0

DRAM Statistics
 CHANNEL 0
 RQ ROW_BUFFER_HIT:     388013  ROW_BUFFER_MISS:     234148
 DBUS_CONGESTED:     441672
 WQ ROW_BUFFER_HIT:      24515  ROW_BUFFER_MISS:     156142  FULL:         30

 AVG_CONGESTED_CYCLE: 13
LOADS RETIRED: 120673965
INSTR RETIRED: 500000000
