
*** ChampSim Multicore Out-of-Order Simulator ***

Warmup Instructions: 100000000
Simulation Instructions: 500000000
Number of CPUs: 1
LLC sets: 2048
LLC ways: 16
Clean RRIP Policies: 1113010111130101 Dirty RRIP Policies: 1113210111132101 PSEL Width: 10 Track Set: 4294967295 PSEL Mask: 1 Demote Mask: 3000210430002104DS Algo: 0Window size: 0
Off-chip DRAM Size: 4096 MB Channels: 1 Width: 64-bit Data Rate: 1600 MT/s

CPU 0 runs /mnt/beegfs/iconst01/spec2017/Gcc.trace.gz
NOT SORTED
TRACE STRING: /mnt/beegfs/iconst01/spec2017/Gcc.trace.gz
SORTED
TRACE STRING: /mnt/beegfs/iconst01/spec2017/Gcc.trace.gz
INITIAL
TRACE STRING: /mnt/beegfs/iconst01/spec2017/Gcc.trace.gz

champsim_seed used: 269

CPU 0 L1D next line prefetcher
CPU 0 L2C IP-based stride prefetcher
Initialize DRRIP state
Assign rand_sets[0]: 454  LLC: 2048
rand_sets[0]: 454
Assign rand_sets[1]: 1662  LLC: 2048
rand_sets[1]: 1662
Assign rand_sets[2]: 1921  LLC: 2048
rand_sets[2]: 1921
Assign rand_sets[3]: 1131  LLC: 2048
rand_sets[3]: 1131
Assign rand_sets[4]: 331  LLC: 2048
rand_sets[4]: 331
Assign rand_sets[5]: 1531  LLC: 2048
rand_sets[5]: 1531
Assign rand_sets[6]: 482  LLC: 2048
rand_sets[6]: 482
Assign rand_sets[7]: 1275  LLC: 2048
rand_sets[7]: 1275
Assign rand_sets[8]: 1876  LLC: 2048
rand_sets[8]: 1876
Assign rand_sets[9]: 2038  LLC: 2048
rand_sets[9]: 2038
Assign rand_sets[10]: 701  LLC: 2048
rand_sets[10]: 701
Assign rand_sets[11]: 479  LLC: 2048
rand_sets[11]: 479
Assign rand_sets[12]: 892  LLC: 2048
rand_sets[12]: 892
Assign rand_sets[13]: 1820  LLC: 2048
rand_sets[13]: 1820
Assign rand_sets[14]: 1505  LLC: 2048
rand_sets[14]: 1505
Assign rand_sets[15]: 1159  LLC: 2048
rand_sets[15]: 1159
Assign rand_sets[16]: 513  LLC: 2048
rand_sets[16]: 513
Assign rand_sets[17]: 703  LLC: 2048
rand_sets[17]: 703
Assign rand_sets[18]: 561  LLC: 2048
rand_sets[18]: 561
Assign rand_sets[19]: 990  LLC: 2048
rand_sets[19]: 990
Assign rand_sets[20]: 342  LLC: 2048
rand_sets[20]: 342
Assign rand_sets[21]: 882  LLC: 2048
rand_sets[21]: 882
Assign rand_sets[22]: 15  LLC: 2048
rand_sets[22]: 15
Assign rand_sets[23]: 71  LLC: 2048
rand_sets[23]: 71
Assign rand_sets[24]: 1127  LLC: 2048
rand_sets[24]: 1127
Assign rand_sets[25]: 1382  LLC: 2048
rand_sets[25]: 1382
Assign rand_sets[26]: 647  LLC: 2048
rand_sets[26]: 647
Assign rand_sets[27]: 857  LLC: 2048
rand_sets[27]: 857
Assign rand_sets[28]: 1450  LLC: 2048
rand_sets[28]: 1450
Assign rand_sets[29]: 1160  LLC: 2048
rand_sets[29]: 1160
Assign rand_sets[30]: 1852  LLC: 2048
rand_sets[30]: 1852
Assign rand_sets[31]: 1881  LLC: 2048
rand_sets[31]: 1881
Assign rand_sets[32]: 1770  LLC: 2048
rand_sets[32]: 1770
Assign rand_sets[33]: 1622  LLC: 2048
rand_sets[33]: 1622
Assign rand_sets[34]: 275  LLC: 2048
rand_sets[34]: 275
Assign rand_sets[35]: 635  LLC: 2048
rand_sets[35]: 635
Assign rand_sets[36]: 466  LLC: 2048
rand_sets[36]: 466
Assign rand_sets[37]: 1413  LLC: 2048
rand_sets[37]: 1413
Assign rand_sets[38]: 417  LLC: 2048
rand_sets[38]: 417
Assign rand_sets[39]: 472  LLC: 2048
rand_sets[39]: 472
Assign rand_sets[40]: 1340  LLC: 2048
rand_sets[40]: 1340
Assign rand_sets[41]: 852  LLC: 2048
rand_sets[41]: 852
Assign rand_sets[42]: 1365  LLC: 2048
rand_sets[42]: 1365
Assign rand_sets[43]: 47  LLC: 2048
rand_sets[43]: 47
Assign rand_sets[44]: 823  LLC: 2048
rand_sets[44]: 823
Assign rand_sets[45]: 686  LLC: 2048
rand_sets[45]: 686
Assign rand_sets[46]: 1637  LLC: 2048
rand_sets[46]: 1637
Assign rand_sets[47]: 1115  LLC: 2048
rand_sets[47]: 1115
Assign rand_sets[48]: 986  LLC: 2048
rand_sets[48]: 986
Assign rand_sets[49]: 258  LLC: 2048
rand_sets[49]: 258
Assign rand_sets[50]: 633  LLC: 2048
rand_sets[50]: 633
Assign rand_sets[51]: 920  LLC: 2048
rand_sets[51]: 920
Assign rand_sets[52]: 204  LLC: 2048
rand_sets[52]: 204
Assign rand_sets[53]: 227  LLC: 2048
rand_sets[53]: 227
Assign rand_sets[54]: 1818  LLC: 2048
rand_sets[54]: 1818
Assign rand_sets[55]: 886  LLC: 2048
rand_sets[55]: 886
Assign rand_sets[56]: 1422  LLC: 2048
rand_sets[56]: 1422
Assign rand_sets[57]: 607  LLC: 2048
rand_sets[57]: 607
Assign rand_sets[58]: 217  LLC: 2048
rand_sets[58]: 217
Assign rand_sets[59]: 1945  LLC: 2048
rand_sets[59]: 1945
Assign rand_sets[60]: 143  LLC: 2048
rand_sets[60]: 143
Assign rand_sets[61]: 1311  LLC: 2048
rand_sets[61]: 1311
Assign rand_sets[62]: 319  LLC: 2048
rand_sets[62]: 319
Assign rand_sets[63]: 1846  LLC: 2048
rand_sets[63]: 1846
 CLEAN-RRIP-POLICY-1: 1-1-1-3-0-1-0-1- CLEAN-RRIP-POLICY-2: 1-1-1-3-0-1-0-1-
 DIRTY-RRIP-POLICY-1: 1-1-1-3-2-1-0-1- DIRTY-RRIP-POLICY-2: 1-1-1-3-2-1-0-1-
 PSEL width: 10
Heartbeat CPU 0 instructions: 10000001 cycles: 7315981 heartbeat IPC: 1.36687 cumulative IPC: 1.36687 (Simulation time: 0 hr 0 min 17 sec) 
Heartbeat CPU 0 instructions: 20000000 cycles: 14307442 heartbeat IPC: 1.43032 cumulative IPC: 1.39787 (Simulation time: 0 hr 0 min 35 sec) 
Heartbeat CPU 0 instructions: 30000001 cycles: 21020262 heartbeat IPC: 1.48969 cumulative IPC: 1.42719 (Simulation time: 0 hr 0 min 54 sec) 
Heartbeat CPU 0 instructions: 40000000 cycles: 27481023 heartbeat IPC: 1.54781 cumulative IPC: 1.45555 (Simulation time: 0 hr 1 min 13 sec) 
Heartbeat CPU 0 instructions: 50000001 cycles: 33582701 heartbeat IPC: 1.63889 cumulative IPC: 1.48886 (Simulation time: 0 hr 1 min 31 sec) 
Heartbeat CPU 0 instructions: 60000000 cycles: 40063832 heartbeat IPC: 1.54294 cumulative IPC: 1.49761 (Simulation time: 0 hr 1 min 50 sec) 
Heartbeat CPU 0 instructions: 70000000 cycles: 47101895 heartbeat IPC: 1.42085 cumulative IPC: 1.48614 (Simulation time: 0 hr 2 min 7 sec) 
Heartbeat CPU 0 instructions: 80000000 cycles: 54191352 heartbeat IPC: 1.41055 cumulative IPC: 1.47625 (Simulation time: 0 hr 2 min 24 sec) 
Heartbeat CPU 0 instructions: 90000003 cycles: 61195557 heartbeat IPC: 1.42771 cumulative IPC: 1.4707 (Simulation time: 0 hr 2 min 42 sec) 
Heartbeat CPU 0 instructions: 100000000 cycles: 68362565 heartbeat IPC: 1.39528 cumulative IPC: 1.46279 (Simulation time: 0 hr 2 min 59 sec) 

Warmup complete CPU 0 instructions: 100000004 cycles: 68362566 (Simulation time: 0 hr 2 min 59 sec) 

Heartbeat CPU 0 instructions: 110000003 cycles: 95961031 heartbeat IPC: 0.362339 cumulative IPC: 0.362339 (Simulation time: 0 hr 3 min 33 sec) 
Heartbeat CPU 0 instructions: 120000000 cycles: 123396333 heartbeat IPC: 0.364494 cumulative IPC: 0.363413 (Simulation time: 0 hr 4 min 7 sec) 
Heartbeat CPU 0 instructions: 130000000 cycles: 148353676 heartbeat IPC: 0.400684 cumulative IPC: 0.375042 (Simulation time: 0 hr 4 min 41 sec) 
Heartbeat CPU 0 instructions: 140000000 cycles: 177746388 heartbeat IPC: 0.34022 cumulative IPC: 0.365685 (Simulation time: 0 hr 5 min 14 sec) 
Heartbeat CPU 0 instructions: 150000000 cycles: 207548447 heartbeat IPC: 0.335547 cumulative IPC: 0.359232 (Simulation time: 0 hr 5 min 49 sec) 
Heartbeat CPU 0 instructions: 160000000 cycles: 234938766 heartbeat IPC: 0.365092 cumulative IPC: 0.360195 (Simulation time: 0 hr 6 min 21 sec) 
Heartbeat CPU 0 instructions: 170000001 cycles: 262916690 heartbeat IPC: 0.357425 cumulative IPC: 0.359797 (Simulation time: 0 hr 6 min 57 sec) 
Heartbeat CPU 0 instructions: 180000000 cycles: 291311138 heartbeat IPC: 0.352181 cumulative IPC: 0.358827 (Simulation time: 0 hr 7 min 32 sec) 
Heartbeat CPU 0 instructions: 190000002 cycles: 319259140 heartbeat IPC: 0.357807 cumulative IPC: 0.358714 (Simulation time: 0 hr 8 min 6 sec) 
Heartbeat CPU 0 instructions: 200000000 cycles: 347554975 heartbeat IPC: 0.353409 cumulative IPC: 0.358176 (Simulation time: 0 hr 8 min 40 sec) 
Heartbeat CPU 0 instructions: 210000002 cycles: 375338598 heartbeat IPC: 0.359924 cumulative IPC: 0.358334 (Simulation time: 0 hr 9 min 15 sec) 
Heartbeat CPU 0 instructions: 220000000 cycles: 404381368 heartbeat IPC: 0.34432 cumulative IPC: 0.357123 (Simulation time: 0 hr 9 min 47 sec) 
Heartbeat CPU 0 instructions: 230000000 cycles: 431870373 heartbeat IPC: 0.363782 cumulative IPC: 0.357626 (Simulation time: 0 hr 10 min 21 sec) 
Heartbeat CPU 0 instructions: 240000000 cycles: 457780304 heartbeat IPC: 0.385952 cumulative IPC: 0.359511 (Simulation time: 0 hr 10 min 53 sec) 
Heartbeat CPU 0 instructions: 250000000 cycles: 487870318 heartbeat IPC: 0.332336 cumulative IPC: 0.357562 (Simulation time: 0 hr 11 min 28 sec) 
Heartbeat CPU 0 instructions: 260000000 cycles: 514940346 heartbeat IPC: 0.369412 cumulative IPC: 0.35828 (Simulation time: 0 hr 12 min 2 sec) 
Heartbeat CPU 0 instructions: 270000003 cycles: 543311296 heartbeat IPC: 0.352473 cumulative IPC: 0.357933 (Simulation time: 0 hr 12 min 37 sec) 
Heartbeat CPU 0 instructions: 280000000 cycles: 571438991 heartbeat IPC: 0.355521 cumulative IPC: 0.357799 (Simulation time: 0 hr 13 min 12 sec) 
Heartbeat CPU 0 instructions: 290000000 cycles: 600261790 heartbeat IPC: 0.346948 cumulative IPC: 0.357211 (Simulation time: 0 hr 13 min 48 sec) 
Heartbeat CPU 0 instructions: 300000000 cycles: 630057943 heartbeat IPC: 0.335614 cumulative IPC: 0.356065 (Simulation time: 0 hr 14 min 21 sec) 
Heartbeat CPU 0 instructions: 310000001 cycles: 659378093 heartbeat IPC: 0.341062 cumulative IPC: 0.355321 (Simulation time: 0 hr 14 min 55 sec) 
Heartbeat CPU 0 instructions: 320000000 cycles: 687499738 heartbeat IPC: 0.355598 cumulative IPC: 0.355333 (Simulation time: 0 hr 15 min 28 sec) 
Heartbeat CPU 0 instructions: 330000000 cycles: 716082921 heartbeat IPC: 0.349856 cumulative IPC: 0.355092 (Simulation time: 0 hr 16 min 2 sec) 
Heartbeat CPU 0 instructions: 340000000 cycles: 745290244 heartbeat IPC: 0.34238 cumulative IPC: 0.354543 (Simulation time: 0 hr 16 min 36 sec) 
Heartbeat CPU 0 instructions: 350000003 cycles: 772276409 heartbeat IPC: 0.37056 cumulative IPC: 0.355157 (Simulation time: 0 hr 17 min 9 sec) 
Heartbeat CPU 0 instructions: 360000000 cycles: 800332271 heartbeat IPC: 0.356432 cumulative IPC: 0.355206 (Simulation time: 0 hr 17 min 42 sec) 
Heartbeat CPU 0 instructions: 370000000 cycles: 828503554 heartbeat IPC: 0.354971 cumulative IPC: 0.355197 (Simulation time: 0 hr 18 min 14 sec) 
Heartbeat CPU 0 instructions: 380000000 cycles: 856994576 heartbeat IPC: 0.350988 cumulative IPC: 0.355045 (Simulation time: 0 hr 18 min 47 sec) 
Heartbeat CPU 0 instructions: 390000001 cycles: 884600832 heartbeat IPC: 0.362237 cumulative IPC: 0.355288 (Simulation time: 0 hr 19 min 19 sec) 
Heartbeat CPU 0 instructions: 400000000 cycles: 913231736 heartbeat IPC: 0.349273 cumulative IPC: 0.355085 (Simulation time: 0 hr 19 min 51 sec) 
Heartbeat CPU 0 instructions: 410000001 cycles: 940536288 heartbeat IPC: 0.366239 cumulative IPC: 0.355434 (Simulation time: 0 hr 20 min 24 sec) 
Heartbeat CPU 0 instructions: 420000000 cycles: 967853274 heartbeat IPC: 0.366073 cumulative IPC: 0.355757 (Simulation time: 0 hr 20 min 56 sec) 
Heartbeat CPU 0 instructions: 430000002 cycles: 995528358 heartbeat IPC: 0.361336 cumulative IPC: 0.355923 (Simulation time: 0 hr 21 min 28 sec) 
Heartbeat CPU 0 instructions: 440000000 cycles: 1025003424 heartbeat IPC: 0.33927 cumulative IPC: 0.35541 (Simulation time: 0 hr 22 min 1 sec) 
Heartbeat CPU 0 instructions: 450000002 cycles: 1054219192 heartbeat IPC: 0.342281 cumulative IPC: 0.355021 (Simulation time: 0 hr 22 min 34 sec) 
Heartbeat CPU 0 instructions: 460000000 cycles: 1081899972 heartbeat IPC: 0.361261 cumulative IPC: 0.355192 (Simulation time: 0 hr 23 min 6 sec) 
Heartbeat CPU 0 instructions: 470000000 cycles: 1109532603 heartbeat IPC: 0.361891 cumulative IPC: 0.355369 (Simulation time: 0 hr 23 min 38 sec) 
Heartbeat CPU 0 instructions: 480000000 cycles: 1137409232 heartbeat IPC: 0.358723 cumulative IPC: 0.355457 (Simulation time: 0 hr 24 min 11 sec) 
Heartbeat CPU 0 instructions: 490000000 cycles: 1165002514 heartbeat IPC: 0.362407 cumulative IPC: 0.355632 (Simulation time: 0 hr 24 min 43 sec) 
Heartbeat CPU 0 instructions: 500000000 cycles: 1193276703 heartbeat IPC: 0.353679 cumulative IPC: 0.355583 (Simulation time: 0 hr 25 min 16 sec) 
Heartbeat CPU 0 instructions: 510000000 cycles: 1228454134 heartbeat IPC: 0.284273 cumulative IPC: 0.35342 (Simulation time: 0 hr 25 min 53 sec) 
Heartbeat CPU 0 instructions: 520000000 cycles: 1256380344 heartbeat IPC: 0.358087 cumulative IPC: 0.35353 (Simulation time: 0 hr 26 min 27 sec) 
Heartbeat CPU 0 instructions: 530000001 cycles: 1285651883 heartbeat IPC: 0.341629 cumulative IPC: 0.353244 (Simulation time: 0 hr 27 min 0 sec) 
Heartbeat CPU 0 instructions: 540000000 cycles: 1313639056 heartbeat IPC: 0.357307 cumulative IPC: 0.353335 (Simulation time: 0 hr 27 min 34 sec) 
Heartbeat CPU 0 instructions: 550000001 cycles: 1342809363 heartbeat IPC: 0.342814 cumulative IPC: 0.353094 (Simulation time: 0 hr 28 min 9 sec) 
Heartbeat CPU 0 instructions: 560000000 cycles: 1368157205 heartbeat IPC: 0.394511 cumulative IPC: 0.353902 (Simulation time: 0 hr 28 min 42 sec) 
Heartbeat CPU 0 instructions: 570000000 cycles: 1397559601 heartbeat IPC: 0.340108 cumulative IPC: 0.353597 (Simulation time: 0 hr 29 min 17 sec) 
Heartbeat CPU 0 instructions: 580000000 cycles: 1425446727 heartbeat IPC: 0.358588 cumulative IPC: 0.3537 (Simulation time: 0 hr 29 min 51 sec) 
Heartbeat CPU 0 instructions: 590000001 cycles: 1450183274 heartbeat IPC: 0.40426 cumulative IPC: 0.354605 (Simulation time: 0 hr 30 min 22 sec) 
Heartbeat CPU 0 instructions: 600000000 cycles: 1476242474 heartbeat IPC: 0.383742 cumulative IPC: 0.355144 (Simulation time: 0 hr 30 min 55 sec) 
Finished CPU 0 instructions: 500000000 cycles: 1407879930 cumulative IPC: 0.355144 (Simulation time: 0 hr 30 min 55 sec) 

CPU 0 Branch Prediction Accuracy: 86.4311% MPKI: 26.2662
Number of Branches: 96788573 Number of Mispredictions: 13133102
Number of LOAD Instructions: 164682285
Number of LOAD Instructions (ROI): 164682285
Number of STORE Instructions: 78194750
Number of STORE Instructions (ROI): 78194750
Total Destination Memory Operands: 83268534
Total Destination Memory Operands (ROI): 83268534
Total Source Memory Operands: 164712438
Total Source Memory Operands (ROI): 164712438
Number of DEPENDED LOADS: 7060468
Number of DEPENDED LOADS (ROI): 7060468
Number of SQ_ADDED: 83268522
Number of SQ_ADDED (ROI): 83268522
Number of LQ_ADDED: 236710510
Number of LQ_ADDED (ROI): 236710510
Number of Instructions read from trace: 600000066

ChampSim completed all CPUs

Region of Interest Statistics

CPU 0 cumulative IPC: 0.355144 instructions: 500000000 cycles: 1407879930
ITLB TOTAL     ACCESS:  100510348  HIT:  100305902  MISS:     204446
ITLB LOAD      ACCESS:  100510348  HIT:  100305902  MISS:     204446
ITLB RFO       ACCESS:          0  HIT:          0  MISS:          0
ITLB PREFETCH  ACCESS:          0  HIT:          0  MISS:          0
ITLB WRITEBACK ACCESS:          0  HIT:          0  MISS:          0
ITLB PREFETCH  REQUESTED:          0  ISSUED:          0  USEFUL:          0  USELESS:          0
ITLB TOTAL MSHR MERGED:     172424
ITLB LOAD MSHR MERGED:     172424
ITLB RFO MSHR MERGED:          0
ITLB PREFETCH MSHR MERGED:          0
ITLB WRITEBACK MSHR MERGED:          0
ITLB TOTAL ACCESSES:  100682772 HITS:  100305902 MISSES:     376870
ITLB LOAD ACCESSES:  100682772 HITS:  100305902 MISSES:     376870
ITLB RFO ACCESSES:          0 HITS:          0 MISSES:          0
ITLB PREFETCH ACCESSES:          0 HITS:          0 MISSES:          0
ITLB WRITEBACK ACCESSES:          0 HITS:          0 MISSES:          0
ITLB RQ ACCESS:  500000057
ITLB RQ TO_CACHE:  100682772
ITLB RQ MERGED:  399317285
ITLB RQ FORWARD:          0
ITLB WQ ACCESS:          0
ITLB WQ TO_CACHE:          0
ITLB WQ MERGED:          0
ITLB WQ FORWARD:          0
DTLB TOTAL     ACCESS:  165335375  HIT:  164701026  MISS:     634349
DTLB LOAD      ACCESS:  106291319  HIT:  105721328  MISS:     569991
DTLB RFO       ACCESS:   59044056  HIT:   58979698  MISS:      64358
DTLB PREFETCH  ACCESS:          0  HIT:          0  MISS:          0
DTLB WRITEBACK ACCESS:          0  HIT:          0  MISS:          0
DTLB PREFETCH  REQUESTED:          0  ISSUED:          0  USEFUL:          0  USELESS:          0
DTLB TOTAL MSHR MERGED:      99978
DTLB LOAD MSHR MERGED:      59453
DTLB RFO MSHR MERGED:      40525
DTLB PREFETCH MSHR MERGED:          0
DTLB WRITEBACK MSHR MERGED:          0
DTLB TOTAL ACCESSES:  165435353 HITS:  164701026 MISSES:     734327
DTLB LOAD ACCESSES:  106350772 HITS:  105721328 MISSES:     629444
DTLB RFO ACCESSES:   59084581 HITS:   58979698 MISSES:     104883
DTLB PREFETCH ACCESSES:          0 HITS:          0 MISSES:          0
DTLB WRITEBACK ACCESSES:          0 HITS:          0 MISSES:          0
DTLB RQ ACCESS:  200310414
DTLB RQ TO_CACHE:  165435353
DTLB RQ MERGED:   34875061
DTLB RQ FORWARD:          0
DTLB WQ ACCESS:          0
DTLB WQ TO_CACHE:          0
DTLB WQ MERGED:          0
DTLB WQ FORWARD:          0
L1D TOTAL     ACCESS:  281825159  HIT:  273915848  MISS:    7909311
L1D LOAD      ACCESS:  110415816  HIT:  107137843  MISS:    3277973
L1D RFO       ACCESS:   67114113  HIT:   66223379  MISS:     890734
L1D PREFETCH  ACCESS:  104295230  HIT:  100554626  MISS:    3740604
L1D WRITEBACK ACCESS:          0  HIT:          0  MISS:          0
L1D PREFETCH  REQUESTED:  110815772  ISSUED:  109116491  USEFUL:    1661356  USELESS:    2079212
L1D TOTAL MSHR MERGED:    2876323
L1D LOAD MSHR MERGED:     497345
L1D RFO MSHR MERGED:    1872013
L1D PREFETCH MSHR MERGED:     506965
L1D WRITEBACK MSHR MERGED:          0
L1D TOTAL ACCESSES:  284728979 HITS:  273943345 MISSES:   10785634
L1D LOAD ACCESSES:  110817275 HITS:  107139346 MISSES:    3677929
L1D RFO ACCESSES:   68974193 HITS:   66223379 MISSES:    2750814
L1D PREFETCH ACCESSES:  104937511 HITS:  100580620 MISSES:    4356891
L1D WRITEBACK ACCESSES:          0 HITS:          0 MISSES:          0
L1D RQ ACCESS:  130757811
L1D RQ TO_CACHE:  110815775
L1D RQ MERGED:   19940533
L1D RQ FORWARD:          0
L1D WQ ACCESS:   69552603
L1D WQ TO_CACHE:   68974194
L1D WQ MERGED:     578409
L1D WQ FORWARD:      27497
L1I TOTAL     ACCESS:  126558167  HIT:  122319613  MISS:    4238554
L1I LOAD      ACCESS:  126558167  HIT:  122319613  MISS:    4238554
L1I RFO       ACCESS:          0  HIT:          0  MISS:          0
L1I PREFETCH  ACCESS:          0  HIT:          0  MISS:          0
L1I WRITEBACK ACCESS:          0  HIT:          0  MISS:          0
L1I PREFETCH  REQUESTED:          0  ISSUED:          0  USEFUL:          0  USELESS:          0
L1I TOTAL MSHR MERGED:    1834431
L1I LOAD MSHR MERGED:    1834431
L1I RFO MSHR MERGED:          0
L1I PREFETCH MSHR MERGED:          0
L1I WRITEBACK MSHR MERGED:          0
L1I TOTAL ACCESSES:  128392601 HITS:  122319613 MISSES:    6072988
L1I LOAD ACCESSES:  128392601 HITS:  122319613 MISSES:    6072988
L1I RFO ACCESSES:          0 HITS:          0 MISSES:          0
L1I PREFETCH ACCESSES:          0 HITS:          0 MISSES:          0
L1I WRITEBACK ACCESSES:          0 HITS:          0 MISSES:          0
L1I RQ ACCESS:  500000057
L1I RQ TO_CACHE:  128392601
L1I RQ MERGED:  371607456
L1I RQ FORWARD:          0
L1I WQ ACCESS:          0
L1I WQ TO_CACHE:          0
L1I WQ MERGED:          0
L1I WQ FORWARD:          0
L2C TOTAL     ACCESS:   14905119  HIT:   11158633  MISS:    3746486
L2C LOAD      ACCESS:    7418931  HIT:    5098855  MISS:    2320076
L2C RFO       ACCESS:     878703  HIT:     409910  MISS:     468793
L2C PREFETCH  ACCESS:    4568253  HIT:    3627892  MISS:     940361
L2C WRITEBACK ACCESS:    2039232  HIT:    2021976  MISS:      17256
L2C PREFETCH  REQUESTED:     842769  ISSUED:     842769  USEFUL:     203349  USELESS:     736718
L2C TOTAL MSHR MERGED:       7154
L2C LOAD MSHR MERGED:        819
L2C RFO MSHR MERGED:          0
L2C PREFETCH MSHR MERGED:       6335
L2C WRITEBACK MSHR MERGED:          0
L2C TOTAL ACCESSES:   14913176 HITS:   11159082 MISSES:    3754094
L2C LOAD ACCESSES:    7419138 HITS:    5099062 MISSES:    2320076
L2C RFO ACCESSES:     878801 HITS:     410008 MISSES:     468793
L2C PREFETCH ACCESSES:    4576005 HITS:    3628036 MISSES:     947969
L2C WRITEBACK ACCESSES:    2039232 HITS:    2021976 MISSES:      17256
L2C RQ ACCESS:    8297942
L2C RQ TO_CACHE:    8297637
L2C RQ MERGED:          0
L2C RQ FORWARD:          0
L2C WQ ACCESS:    2039232
L2C WQ TO_CACHE:    2039232
L2C WQ MERGED:          0
L2C WQ FORWARD:        449
LLC TOTAL     ACCESS:    4609828  HIT:    3973957  MISS:     635871
LLC LOAD      ACCESS:    2319243  HIT:    2093598  MISS:     225645
LLC RFO       ACCESS:     468783  HIT:     397838  MISS:      70945
LLC PREFETCH  ACCESS:     941512  HIT:     649414  MISS:     292098
LLC WRITEBACK ACCESS:     880290  HIT:     833107  MISS:      47183
LLC PREFETCH  REQUESTED:          0  ISSUED:          0  USEFUL:      15603  USELESS:     277175
LLC TOTAL MSHR MERGED:        107
LLC LOAD MSHR MERGED:         36
LLC RFO MSHR MERGED:          0
LLC PREFETCH MSHR MERGED:         71
LLC WRITEBACK MSHR MERGED:          0
LLC TOTAL ACCESSES:    4609969 HITS:    3973991 MISSES:     635978
LLC LOAD ACCESSES:    2319257 HITS:    2093612 MISSES:     225645
LLC RFO ACCESSES:     468793 HITS:     397848 MISSES:      70945
LLC PREFETCH ACCESSES:     941629 HITS:     649424 MISSES:     292205
LLC WRITEBACK ACCESSES:     880290 HITS:     833107 MISSES:      47183
LLC 0 RQ ACCESS:    2788050
LLC 0 RQ TO_CACHE:    2788026
LLC 0 RQ MERGED:          0
LLC 0 RQ FORWARD:          0
LLC WQ ACCESS:     880290
LLC WQ TO_CACHE:     880290
LLC WQ MERGED:          0
LLC WQ FORWARD:         34
Major fault: 0 Minor fault: 12862
CPU 0 L1D next line prefetcher final stats
CPU 0 L2C PC-based stride prefetcher final stats
All Misses: 750005
All Hits: 4676829
SD Algo Stats - Switches: 0 SRR-Repls: 264592 BRR-Repls: 0

DRAM Statistics
 CHANNEL 0
 RQ ROW_BUFFER_HIT:     113534  ROW_BUFFER_MISS:     474235
 DBUS_CONGESTED:     377177
 WQ ROW_BUFFER_HIT:      17450  ROW_BUFFER_MISS:     196219  FULL:          0

 AVG_CONGESTED_CYCLE: 13
LOADS RETIRED: 136549171
INSTR RETIRED: 500000000
