
*** ChampSim Multicore Out-of-Order Simulator ***

Warmup Instructions: 100000000
Simulation Instructions: 500000000
Number of CPUs: 1
LLC sets: 2048
LLC ways: 16
Clean RRIP Policies: 2202030022020300 Dirty RRIP Policies: 2202030022020300 PSEL Width: 10 Track Set: 4294967295 PSEL Mask: 1 Demote Mask: 441021404410214DS Algo: 0Window size: 0
Off-chip DRAM Size: 4096 MB Channels: 1 Width: 64-bit Data Rate: 1600 MT/s

CPU 0 runs /mnt/beegfs/iconst01/spec2017/Roms.trace.gz
NOT SORTED
TRACE STRING: /mnt/beegfs/iconst01/spec2017/Roms.trace.gz
SORTED
TRACE STRING: /mnt/beegfs/iconst01/spec2017/Roms.trace.gz
INITIAL
TRACE STRING: /mnt/beegfs/iconst01/spec2017/Roms.trace.gz

champsim_seed used: 417

CPU 0 L1D next line prefetcher
CPU 0 L2C IP-based stride prefetcher
Initialize DRRIP state
Assign rand_sets[0]: 454  LLC: 2048
rand_sets[0]: 454
Assign rand_sets[1]: 1662  LLC: 2048
rand_sets[1]: 1662
Assign rand_sets[2]: 1921  LLC: 2048
rand_sets[2]: 1921
Assign rand_sets[3]: 1131  LLC: 2048
rand_sets[3]: 1131
Assign rand_sets[4]: 331  LLC: 2048
rand_sets[4]: 331
Assign rand_sets[5]: 1531  LLC: 2048
rand_sets[5]: 1531
Assign rand_sets[6]: 482  LLC: 2048
rand_sets[6]: 482
Assign rand_sets[7]: 1275  LLC: 2048
rand_sets[7]: 1275
Assign rand_sets[8]: 1876  LLC: 2048
rand_sets[8]: 1876
Assign rand_sets[9]: 2038  LLC: 2048
rand_sets[9]: 2038
Assign rand_sets[10]: 701  LLC: 2048
rand_sets[10]: 701
Assign rand_sets[11]: 479  LLC: 2048
rand_sets[11]: 479
Assign rand_sets[12]: 892  LLC: 2048
rand_sets[12]: 892
Assign rand_sets[13]: 1820  LLC: 2048
rand_sets[13]: 1820
Assign rand_sets[14]: 1505  LLC: 2048
rand_sets[14]: 1505
Assign rand_sets[15]: 1159  LLC: 2048
rand_sets[15]: 1159
Assign rand_sets[16]: 513  LLC: 2048
rand_sets[16]: 513
Assign rand_sets[17]: 703  LLC: 2048
rand_sets[17]: 703
Assign rand_sets[18]: 561  LLC: 2048
rand_sets[18]: 561
Assign rand_sets[19]: 990  LLC: 2048
rand_sets[19]: 990
Assign rand_sets[20]: 342  LLC: 2048
rand_sets[20]: 342
Assign rand_sets[21]: 882  LLC: 2048
rand_sets[21]: 882
Assign rand_sets[22]: 15  LLC: 2048
rand_sets[22]: 15
Assign rand_sets[23]: 71  LLC: 2048
rand_sets[23]: 71
Assign rand_sets[24]: 1127  LLC: 2048
rand_sets[24]: 1127
Assign rand_sets[25]: 1382  LLC: 2048
rand_sets[25]: 1382
Assign rand_sets[26]: 647  LLC: 2048
rand_sets[26]: 647
Assign rand_sets[27]: 857  LLC: 2048
rand_sets[27]: 857
Assign rand_sets[28]: 1450  LLC: 2048
rand_sets[28]: 1450
Assign rand_sets[29]: 1160  LLC: 2048
rand_sets[29]: 1160
Assign rand_sets[30]: 1852  LLC: 2048
rand_sets[30]: 1852
Assign rand_sets[31]: 1881  LLC: 2048
rand_sets[31]: 1881
Assign rand_sets[32]: 1770  LLC: 2048
rand_sets[32]: 1770
Assign rand_sets[33]: 1622  LLC: 2048
rand_sets[33]: 1622
Assign rand_sets[34]: 275  LLC: 2048
rand_sets[34]: 275
Assign rand_sets[35]: 635  LLC: 2048
rand_sets[35]: 635
Assign rand_sets[36]: 466  LLC: 2048
rand_sets[36]: 466
Assign rand_sets[37]: 1413  LLC: 2048
rand_sets[37]: 1413
Assign rand_sets[38]: 417  LLC: 2048
rand_sets[38]: 417
Assign rand_sets[39]: 472  LLC: 2048
rand_sets[39]: 472
Assign rand_sets[40]: 1340  LLC: 2048
rand_sets[40]: 1340
Assign rand_sets[41]: 852  LLC: 2048
rand_sets[41]: 852
Assign rand_sets[42]: 1365  LLC: 2048
rand_sets[42]: 1365
Assign rand_sets[43]: 47  LLC: 2048
rand_sets[43]: 47
Assign rand_sets[44]: 823  LLC: 2048
rand_sets[44]: 823
Assign rand_sets[45]: 686  LLC: 2048
rand_sets[45]: 686
Assign rand_sets[46]: 1637  LLC: 2048
rand_sets[46]: 1637
Assign rand_sets[47]: 1115  LLC: 2048
rand_sets[47]: 1115
Assign rand_sets[48]: 986  LLC: 2048
rand_sets[48]: 986
Assign rand_sets[49]: 258  LLC: 2048
rand_sets[49]: 258
Assign rand_sets[50]: 633  LLC: 2048
rand_sets[50]: 633
Assign rand_sets[51]: 920  LLC: 2048
rand_sets[51]: 920
Assign rand_sets[52]: 204  LLC: 2048
rand_sets[52]: 204
Assign rand_sets[53]: 227  LLC: 2048
rand_sets[53]: 227
Assign rand_sets[54]: 1818  LLC: 2048
rand_sets[54]: 1818
Assign rand_sets[55]: 886  LLC: 2048
rand_sets[55]: 886
Assign rand_sets[56]: 1422  LLC: 2048
rand_sets[56]: 1422
Assign rand_sets[57]: 607  LLC: 2048
rand_sets[57]: 607
Assign rand_sets[58]: 217  LLC: 2048
rand_sets[58]: 217
Assign rand_sets[59]: 1945  LLC: 2048
rand_sets[59]: 1945
Assign rand_sets[60]: 143  LLC: 2048
rand_sets[60]: 143
Assign rand_sets[61]: 1311  LLC: 2048
rand_sets[61]: 1311
Assign rand_sets[62]: 319  LLC: 2048
rand_sets[62]: 319
Assign rand_sets[63]: 1846  LLC: 2048
rand_sets[63]: 1846
 CLEAN-RRIP-POLICY-1: 2-2-0-2-0-3-0-0- CLEAN-RRIP-POLICY-2: 2-2-0-2-0-3-0-0-
 DIRTY-RRIP-POLICY-1: 2-2-0-2-0-3-0-0- DIRTY-RRIP-POLICY-2: 2-2-0-2-0-3-0-0-
 PSEL width: 10
Heartbeat CPU 0 instructions: 10000000 cycles: 4688091 heartbeat IPC: 2.13306 cumulative IPC: 2.13306 (Simulation time: 0 hr 0 min 17 sec) 
Heartbeat CPU 0 instructions: 20000000 cycles: 9325361 heartbeat IPC: 2.15644 cumulative IPC: 2.14469 (Simulation time: 0 hr 0 min 34 sec) 
Heartbeat CPU 0 instructions: 30000003 cycles: 14019758 heartbeat IPC: 2.1302 cumulative IPC: 2.13984 (Simulation time: 0 hr 0 min 52 sec) 
Heartbeat CPU 0 instructions: 40000000 cycles: 18670181 heartbeat IPC: 2.15034 cumulative IPC: 2.14245 (Simulation time: 0 hr 1 min 9 sec) 
Heartbeat CPU 0 instructions: 50000003 cycles: 23323549 heartbeat IPC: 2.14898 cumulative IPC: 2.14376 (Simulation time: 0 hr 1 min 26 sec) 
Heartbeat CPU 0 instructions: 60000000 cycles: 27976189 heartbeat IPC: 2.14932 cumulative IPC: 2.14468 (Simulation time: 0 hr 1 min 43 sec) 
Heartbeat CPU 0 instructions: 70000002 cycles: 32367356 heartbeat IPC: 2.2773 cumulative IPC: 2.16267 (Simulation time: 0 hr 1 min 59 sec) 
Heartbeat CPU 0 instructions: 80000000 cycles: 36304124 heartbeat IPC: 2.54015 cumulative IPC: 2.20361 (Simulation time: 0 hr 2 min 11 sec) 
Heartbeat CPU 0 instructions: 90000000 cycles: 40249392 heartbeat IPC: 2.53468 cumulative IPC: 2.23606 (Simulation time: 0 hr 2 min 23 sec) 
Heartbeat CPU 0 instructions: 100000000 cycles: 44211661 heartbeat IPC: 2.52381 cumulative IPC: 2.26185 (Simulation time: 0 hr 2 min 35 sec) 

Warmup complete CPU 0 instructions: 100000002 cycles: 44211662 (Simulation time: 0 hr 2 min 35 sec) 

Heartbeat CPU 0 instructions: 110000000 cycles: 52341380 heartbeat IPC: 1.23005 cumulative IPC: 1.23005 (Simulation time: 0 hr 2 min 54 sec) 
Heartbeat CPU 0 instructions: 120000000 cycles: 60617604 heartbeat IPC: 1.20828 cumulative IPC: 1.21907 (Simulation time: 0 hr 3 min 13 sec) 
Heartbeat CPU 0 instructions: 130000002 cycles: 69005227 heartbeat IPC: 1.19223 cumulative IPC: 1.20999 (Simulation time: 0 hr 3 min 32 sec) 
Heartbeat CPU 0 instructions: 140000000 cycles: 77239394 heartbeat IPC: 1.21445 cumulative IPC: 1.2111 (Simulation time: 0 hr 3 min 50 sec) 
Heartbeat CPU 0 instructions: 150000003 cycles: 85610648 heartbeat IPC: 1.19456 cumulative IPC: 1.20776 (Simulation time: 0 hr 4 min 9 sec) 
Heartbeat CPU 0 instructions: 160000000 cycles: 95696993 heartbeat IPC: 0.991439 cumulative IPC: 1.16538 (Simulation time: 0 hr 4 min 31 sec) 
Heartbeat CPU 0 instructions: 170000000 cycles: 108154888 heartbeat IPC: 0.802704 cumulative IPC: 1.09472 (Simulation time: 0 hr 4 min 55 sec) 
Heartbeat CPU 0 instructions: 180000000 cycles: 120455821 heartbeat IPC: 0.812946 cumulative IPC: 1.04926 (Simulation time: 0 hr 5 min 19 sec) 
Heartbeat CPU 0 instructions: 190000000 cycles: 132928022 heartbeat IPC: 0.801783 cumulative IPC: 1.01447 (Simulation time: 0 hr 5 min 43 sec) 
Heartbeat CPU 0 instructions: 200000000 cycles: 145993894 heartbeat IPC: 0.765353 cumulative IPC: 0.98249 (Simulation time: 0 hr 6 min 7 sec) 
Heartbeat CPU 0 instructions: 210000003 cycles: 159057810 heartbeat IPC: 0.765467 cumulative IPC: 0.957803 (Simulation time: 0 hr 6 min 31 sec) 
Heartbeat CPU 0 instructions: 220000000 cycles: 171862751 heartbeat IPC: 0.780948 cumulative IPC: 0.940062 (Simulation time: 0 hr 6 min 55 sec) 
Heartbeat CPU 0 instructions: 230000000 cycles: 184188584 heartbeat IPC: 0.811304 cumulative IPC: 0.928725 (Simulation time: 0 hr 7 min 19 sec) 
Heartbeat CPU 0 instructions: 240000000 cycles: 196575677 heartbeat IPC: 0.807292 cumulative IPC: 0.918852 (Simulation time: 0 hr 7 min 44 sec) 
Heartbeat CPU 0 instructions: 250000002 cycles: 206895967 heartbeat IPC: 0.968965 cumulative IPC: 0.922031 (Simulation time: 0 hr 8 min 6 sec) 
Heartbeat CPU 0 instructions: 260000000 cycles: 214621679 heartbeat IPC: 1.29438 cumulative IPC: 0.938912 (Simulation time: 0 hr 8 min 26 sec) 
Heartbeat CPU 0 instructions: 270000003 cycles: 222806901 heartbeat IPC: 1.22171 cumulative IPC: 0.951873 (Simulation time: 0 hr 8 min 47 sec) 
Heartbeat CPU 0 instructions: 280000000 cycles: 231265167 heartbeat IPC: 1.18228 cumulative IPC: 0.962291 (Simulation time: 0 hr 9 min 7 sec) 
Heartbeat CPU 0 instructions: 290000000 cycles: 239778779 heartbeat IPC: 1.17459 cumulative IPC: 0.971533 (Simulation time: 0 hr 9 min 28 sec) 
Heartbeat CPU 0 instructions: 300000000 cycles: 248257466 heartbeat IPC: 1.17943 cumulative IPC: 0.980172 (Simulation time: 0 hr 9 min 49 sec) 
Heartbeat CPU 0 instructions: 310000000 cycles: 256738775 heartbeat IPC: 1.17906 cumulative IPC: 0.988109 (Simulation time: 0 hr 10 min 11 sec) 
Heartbeat CPU 0 instructions: 320000000 cycles: 265197138 heartbeat IPC: 1.18226 cumulative IPC: 0.995541 (Simulation time: 0 hr 10 min 33 sec) 
Heartbeat CPU 0 instructions: 330000002 cycles: 273654396 heartbeat IPC: 1.18242 cumulative IPC: 1.00243 (Simulation time: 0 hr 10 min 54 sec) 
Heartbeat CPU 0 instructions: 340000000 cycles: 283273170 heartbeat IPC: 1.03963 cumulative IPC: 1.00393 (Simulation time: 0 hr 11 min 17 sec) 
Heartbeat CPU 0 instructions: 350000001 cycles: 291936238 heartbeat IPC: 1.15433 cumulative IPC: 1.00919 (Simulation time: 0 hr 11 min 39 sec) 
Heartbeat CPU 0 instructions: 360000000 cycles: 300598602 heartbeat IPC: 1.15442 cumulative IPC: 1.01409 (Simulation time: 0 hr 12 min 0 sec) 
Heartbeat CPU 0 instructions: 370000001 cycles: 309236364 heartbeat IPC: 1.15771 cumulative IPC: 1.01877 (Simulation time: 0 hr 12 min 21 sec) 
Heartbeat CPU 0 instructions: 380000000 cycles: 317854984 heartbeat IPC: 1.16028 cumulative IPC: 1.02323 (Simulation time: 0 hr 12 min 42 sec) 
Heartbeat CPU 0 instructions: 390000001 cycles: 326329628 heartbeat IPC: 1.17999 cumulative IPC: 1.02794 (Simulation time: 0 hr 13 min 3 sec) 
Heartbeat CPU 0 instructions: 400000000 cycles: 334863409 heartbeat IPC: 1.17181 cumulative IPC: 1.03216 (Simulation time: 0 hr 13 min 23 sec) 
Heartbeat CPU 0 instructions: 410000003 cycles: 343325571 heartbeat IPC: 1.18173 cumulative IPC: 1.03639 (Simulation time: 0 hr 13 min 44 sec) 
Heartbeat CPU 0 instructions: 420000000 cycles: 351845428 heartbeat IPC: 1.17373 cumulative IPC: 1.0402 (Simulation time: 0 hr 14 min 5 sec) 
Heartbeat CPU 0 instructions: 430000001 cycles: 360318165 heartbeat IPC: 1.18026 cumulative IPC: 1.04395 (Simulation time: 0 hr 14 min 25 sec) 
Heartbeat CPU 0 instructions: 440000000 cycles: 368751065 heartbeat IPC: 1.18583 cumulative IPC: 1.04764 (Simulation time: 0 hr 14 min 46 sec) 
Heartbeat CPU 0 instructions: 450000001 cycles: 378559387 heartbeat IPC: 1.01954 cumulative IPC: 1.04681 (Simulation time: 0 hr 15 min 9 sec) 
Heartbeat CPU 0 instructions: 460000000 cycles: 387068993 heartbeat IPC: 1.17514 cumulative IPC: 1.05 (Simulation time: 0 hr 15 min 29 sec) 
Heartbeat CPU 0 instructions: 470000003 cycles: 395462620 heartbeat IPC: 1.19138 cumulative IPC: 1.05338 (Simulation time: 0 hr 15 min 50 sec) 
Heartbeat CPU 0 instructions: 480000000 cycles: 403868158 heartbeat IPC: 1.18969 cumulative IPC: 1.05656 (Simulation time: 0 hr 16 min 10 sec) 
Heartbeat CPU 0 instructions: 490000000 cycles: 412260307 heartbeat IPC: 1.19159 cumulative IPC: 1.05964 (Simulation time: 0 hr 16 min 31 sec) 
Heartbeat CPU 0 instructions: 500000000 cycles: 420649836 heartbeat IPC: 1.19196 cumulative IPC: 1.06259 (Simulation time: 0 hr 16 min 51 sec) 
Heartbeat CPU 0 instructions: 510000001 cycles: 429000707 heartbeat IPC: 1.19748 cumulative IPC: 1.06552 (Simulation time: 0 hr 17 min 12 sec) 
Heartbeat CPU 0 instructions: 520000000 cycles: 437369175 heartbeat IPC: 1.19496 cumulative IPC: 1.06827 (Simulation time: 0 hr 17 min 32 sec) 
Heartbeat CPU 0 instructions: 530000001 cycles: 445754450 heartbeat IPC: 1.19257 cumulative IPC: 1.07087 (Simulation time: 0 hr 17 min 53 sec) 
Heartbeat CPU 0 instructions: 540000000 cycles: 454310507 heartbeat IPC: 1.16876 cumulative IPC: 1.07291 (Simulation time: 0 hr 18 min 13 sec) 
Heartbeat CPU 0 instructions: 550000001 cycles: 462919315 heartbeat IPC: 1.1616 cumulative IPC: 1.07474 (Simulation time: 0 hr 18 min 34 sec) 
Heartbeat CPU 0 instructions: 560000000 cycles: 471276448 heartbeat IPC: 1.19658 cumulative IPC: 1.07712 (Simulation time: 0 hr 18 min 54 sec) 
Heartbeat CPU 0 instructions: 570000001 cycles: 482455739 heartbeat IPC: 0.894511 cumulative IPC: 1.07246 (Simulation time: 0 hr 19 min 17 sec) 
Heartbeat CPU 0 instructions: 580000000 cycles: 493154935 heartbeat IPC: 0.93465 cumulative IPC: 1.06918 (Simulation time: 0 hr 19 min 38 sec) 
Heartbeat CPU 0 instructions: 590000001 cycles: 504309222 heartbeat IPC: 0.896516 cumulative IPC: 1.06499 (Simulation time: 0 hr 20 min 1 sec) 
Heartbeat CPU 0 instructions: 600000000 cycles: 514982603 heartbeat IPC: 0.93691 cumulative IPC: 1.06209 (Simulation time: 0 hr 20 min 22 sec) 
Finished CPU 0 instructions: 500000001 cycles: 470770954 cumulative IPC: 1.06209 (Simulation time: 0 hr 20 min 22 sec) 

CPU 0 Branch Prediction Accuracy: 99.7422% MPKI: 0.173296
Number of Branches: 33608403 Number of Mispredictions: 86648
Number of LOAD Instructions: 180215231
Number of LOAD Instructions (ROI): 180215231
Number of STORE Instructions: 36067263
Number of STORE Instructions (ROI): 36067263
Total Destination Memory Operands: 38428915
Total Destination Memory Operands (ROI): 38428915
Total Source Memory Operands: 180215231
Total Source Memory Operands (ROI): 180215231
Number of DEPENDED LOADS: 3041930
Number of DEPENDED LOADS (ROI): 3041930
Number of SQ_ADDED: 38428892
Number of SQ_ADDED (ROI): 38428892
Number of LQ_ADDED: 207331272
Number of LQ_ADDED (ROI): 207331272
Number of Instructions read from trace: 600000257

ChampSim completed all CPUs

Region of Interest Statistics

CPU 0 cumulative IPC: 1.06209 instructions: 500000001 cycles: 470770954
ITLB TOTAL     ACCESS:   91538963  HIT:   91538944  MISS:         19
ITLB LOAD      ACCESS:   91538963  HIT:   91538944  MISS:         19
ITLB RFO       ACCESS:          0  HIT:          0  MISS:          0
ITLB PREFETCH  ACCESS:          0  HIT:          0  MISS:          0
ITLB WRITEBACK ACCESS:          0  HIT:          0  MISS:          0
ITLB PREFETCH  REQUESTED:          0  ISSUED:          0  USEFUL:          0  USELESS:          0
ITLB TOTAL MSHR MERGED:         40
ITLB LOAD MSHR MERGED:         40
ITLB RFO MSHR MERGED:          0
ITLB PREFETCH MSHR MERGED:          0
ITLB WRITEBACK MSHR MERGED:          0
ITLB TOTAL ACCESSES:   91539003 HITS:   91538944 MISSES:         59
ITLB LOAD ACCESSES:   91539003 HITS:   91538944 MISSES:         59
ITLB RFO ACCESSES:          0 HITS:          0 MISSES:          0
ITLB PREFETCH ACCESSES:          0 HITS:          0 MISSES:          0
ITLB WRITEBACK ACCESSES:          0 HITS:          0 MISSES:          0
ITLB RQ ACCESS:  500000003
ITLB RQ TO_CACHE:   91539003
ITLB RQ MERGED:  408461000
ITLB RQ FORWARD:          0
ITLB WQ ACCESS:          0
ITLB WQ TO_CACHE:          0
ITLB WQ MERGED:          0
ITLB WQ FORWARD:          0
DTLB TOTAL     ACCESS:  142345622  HIT:  141979160  MISS:     366462
DTLB LOAD      ACCESS:  119632270  HIT:  119318684  MISS:     313586
DTLB RFO       ACCESS:   22713352  HIT:   22660476  MISS:      52876
DTLB PREFETCH  ACCESS:          0  HIT:          0  MISS:          0
DTLB WRITEBACK ACCESS:          0  HIT:          0  MISS:          0
DTLB PREFETCH  REQUESTED:          0  ISSUED:          0  USEFUL:          0  USELESS:          0
DTLB TOTAL MSHR MERGED:     291696
DTLB LOAD MSHR MERGED:     242627
DTLB RFO MSHR MERGED:      49069
DTLB PREFETCH MSHR MERGED:          0
DTLB WRITEBACK MSHR MERGED:          0
DTLB TOTAL ACCESSES:  142637318 HITS:  141979160 MISSES:     658158
DTLB LOAD ACCESSES:  119874897 HITS:  119318684 MISSES:     556213
DTLB RFO ACCESSES:   22762421 HITS:   22660476 MISSES:     101945
DTLB PREFETCH ACCESSES:          0 HITS:          0 MISSES:          0
DTLB WRITEBACK ACCESSES:          0 HITS:          0 MISSES:          0
DTLB RQ ACCESS:  184791047
DTLB RQ TO_CACHE:  142637318
DTLB RQ MERGED:   42153729
DTLB RQ FORWARD:          0
DTLB WQ ACCESS:          0
DTLB WQ TO_CACHE:          0
DTLB WQ MERGED:          0
DTLB WQ FORWARD:          0
L1D TOTAL     ACCESS:  191250353  HIT:  177781171  MISS:   13469182
L1D LOAD      ACCESS:  112670332  HIT:  109778287  MISS:    2892045
L1D RFO       ACCESS:   18261926  HIT:   15480185  MISS:    2781741
L1D PREFETCH  ACCESS:   60318095  HIT:   52522699  MISS:    7795396
L1D WRITEBACK ACCESS:          0  HIT:          0  MISS:          0
L1D PREFETCH  REQUESTED:  116709037  ISSUED:  115347869  USEFUL:    7585068  USELESS:     210328
L1D TOTAL MSHR MERGED:   30306487
L1D LOAD MSHR MERGED:    6366714
L1D RFO MSHR MERGED:    9990804
L1D PREFETCH MSHR MERGED:   13948969
L1D WRITEBACK MSHR MERGED:          0
L1D TOTAL ACCESSES:  221557312 HITS:  177781642 MISSES:   43775670
L1D LOAD ACCESSES:  116709128 HITS:  109778378 MISSES:    6930750
L1D RFO ACCESSES:   28252682 HITS:   15480185 MISSES:   12772497
L1D PREFETCH ACCESSES:   76595502 HITS:   52523079 MISSES:   24072423
L1D WRITEBACK ACCESSES:          0 HITS:          0 MISSES:          0
L1D RQ ACCESS:  156534981
L1D RQ TO_CACHE:  116709040
L1D RQ MERGED:   39825850
L1D RQ FORWARD:          0
L1D WQ ACCESS:   28256066
L1D WQ TO_CACHE:   28252682
L1D WQ MERGED:       3384
L1D WQ FORWARD:        471
L1I TOTAL     ACCESS:  115555695  HIT:  115554747  MISS:        948
L1I LOAD      ACCESS:  115555695  HIT:  115554747  MISS:        948
L1I RFO       ACCESS:          0  HIT:          0  MISS:          0
L1I PREFETCH  ACCESS:          0  HIT:          0  MISS:          0
L1I WRITEBACK ACCESS:          0  HIT:          0  MISS:          0
L1I PREFETCH  REQUESTED:          0  ISSUED:          0  USEFUL:          0  USELESS:          0
L1I TOTAL MSHR MERGED:       1558
L1I LOAD MSHR MERGED:       1558
L1I RFO MSHR MERGED:          0
L1I PREFETCH MSHR MERGED:          0
L1I WRITEBACK MSHR MERGED:          0
L1I TOTAL ACCESSES:  115557253 HITS:  115554747 MISSES:       2506
L1I LOAD ACCESSES:  115557253 HITS:  115554747 MISSES:       2506
L1I RFO ACCESSES:          0 HITS:          0 MISSES:          0
L1I PREFETCH ACCESSES:          0 HITS:          0 MISSES:          0
L1I WRITEBACK ACCESSES:          0 HITS:          0 MISSES:          0
L1I RQ ACCESS:  500000007
L1I RQ TO_CACHE:  115557253
L1I RQ MERGED:  384442754
L1I RQ FORWARD:          0
L1I WQ ACCESS:          0
L1I WQ TO_CACHE:          0
L1I WQ MERGED:          0
L1I WQ FORWARD:          0
L2C TOTAL     ACCESS:   16715856  HIT:    4871876  MISS:   11843980
L2C LOAD      ACCESS:     564960  HIT:      97870  MISS:     467090
L2C RFO       ACCESS:    2781693  HIT:     266706  MISS:    2514987
L2C PREFETCH  ACCESS:   10148563  HIT:    1288930  MISS:    8859633
L2C WRITEBACK ACCESS:    3220640  HIT:    3218370  MISS:       2270
L2C PREFETCH  REQUESTED:      27148  ISSUED:      27148  USEFUL:      94878  USELESS:    8762813
L2C TOTAL MSHR MERGED:        378
L2C LOAD MSHR MERGED:          4
L2C RFO MSHR MERGED:          0
L2C PREFETCH MSHR MERGED:        374
L2C WRITEBACK MSHR MERGED:          0
L2C TOTAL ACCESSES:   16716436 HITS:    4871931 MISSES:   11844505
L2C LOAD ACCESSES:     564984 HITS:      97894 MISSES:     467090
L2C RFO ACCESSES:    2781693 HITS:     266706 MISSES:    2514987
L2C PREFETCH ACCESSES:   10149119 HITS:    1288961 MISSES:    8860158
L2C WRITEBACK ACCESSES:    3220640 HITS:    3218370 MISSES:       2270
L2C RQ ACCESS:    3346677
L2C RQ TO_CACHE:    3346653
L2C RQ MERGED:          0
L2C RQ FORWARD:          0
L2C WQ ACCESS:    3220640
L2C WQ TO_CACHE:    3220640
L2C WQ MERGED:          0
L2C WQ FORWARD:         55
LLC TOTAL     ACCESS:   14742305  HIT:    8217811  MISS:    6524494
LLC LOAD      ACCESS:     467082  HIT:     216773  MISS:     250309
LLC RFO       ACCESS:    2514960  HIT:    1690457  MISS:     824503
LLC PREFETCH  ACCESS:    8859698  HIT:    4120333  MISS:    4739365
LLC WRITEBACK ACCESS:    2900565  HIT:    2190248  MISS:     710317
LLC PREFETCH  REQUESTED:          0  ISSUED:          0  USEFUL:     109589  USELESS:    4640933
LLC TOTAL MSHR MERGED:          5
LLC LOAD MSHR MERGED:          0
LLC RFO MSHR MERGED:          0
LLC PREFETCH MSHR MERGED:          5
LLC WRITEBACK MSHR MERGED:          0
LLC TOTAL ACCESSES:   14742401 HITS:    8217901 MISSES:    6524500
LLC LOAD ACCESSES:     467086 HITS:     216777 MISSES:     250309
LLC RFO ACCESSES:    2514987 HITS:    1690484 MISSES:     824503
LLC PREFETCH ACCESSES:    8859763 HITS:    4120392 MISSES:    4739371
LLC WRITEBACK ACCESSES:    2900565 HITS:    2190248 MISSES:     710317
LLC 0 RQ ACCESS:    2982073
LLC 0 RQ TO_CACHE:    2982042
LLC 0 RQ MERGED:          0
LLC 0 RQ FORWARD:          0
LLC WQ ACCESS:    2900565
LLC WQ TO_CACHE:    2900565
LLC WQ MERGED:          0
LLC WQ FORWARD:         90
Major fault: 0 Minor fault: 57518
CPU 0 L1D next line prefetcher final stats
CPU 0 L2C PC-based stride prefetcher final stats
All Misses: 6944164
All Hits: 9294323
SD Algo Stats - Switches: 0 SRR-Repls: 257264 BRR-Repls: 0

DRAM Statistics
 CHANNEL 0
 RQ ROW_BUFFER_HIT:    3147197  ROW_BUFFER_MISS:    2663199
 DBUS_CONGESTED:    2746658
 WQ ROW_BUFFER_HIT:     140512  ROW_BUFFER_MISS:    1049439  FULL:          0

 AVG_CONGESTED_CYCLE: 13
LOADS RETIRED: 157818985
INSTR RETIRED: 500000000
