
*** ChampSim Multicore Out-of-Order Simulator ***

Warmup Instructions: 100000000
Simulation Instructions: 500000000
Number of CPUs: 1
LLC sets: 2048
LLC ways: 16
Clean RRIP Policies: 2202030022020300 Dirty RRIP Policies: 2202030022020300 PSEL Width: 10 Track Set: 4294967295 PSEL Mask: 1 Demote Mask: 441021404410214DS Algo: 0Window size: 0
Off-chip DRAM Size: 4096 MB Channels: 1 Width: 64-bit Data Rate: 1600 MT/s

CPU 0 runs /mnt/beegfs/iconst01/spec2017/x264.trace.gz
NOT SORTED
TRACE STRING: /mnt/beegfs/iconst01/spec2017/x264.trace.gz
SORTED
TRACE STRING: /mnt/beegfs/iconst01/spec2017/x264.trace.gz
INITIAL
TRACE STRING: /mnt/beegfs/iconst01/spec2017/x264.trace.gz

champsim_seed used: 276

CPU 0 L1D next line prefetcher
CPU 0 L2C IP-based stride prefetcher
Initialize DRRIP state
Assign rand_sets[0]: 454  LLC: 2048
rand_sets[0]: 454
Assign rand_sets[1]: 1662  LLC: 2048
rand_sets[1]: 1662
Assign rand_sets[2]: 1921  LLC: 2048
rand_sets[2]: 1921
Assign rand_sets[3]: 1131  LLC: 2048
rand_sets[3]: 1131
Assign rand_sets[4]: 331  LLC: 2048
rand_sets[4]: 331
Assign rand_sets[5]: 1531  LLC: 2048
rand_sets[5]: 1531
Assign rand_sets[6]: 482  LLC: 2048
rand_sets[6]: 482
Assign rand_sets[7]: 1275  LLC: 2048
rand_sets[7]: 1275
Assign rand_sets[8]: 1876  LLC: 2048
rand_sets[8]: 1876
Assign rand_sets[9]: 2038  LLC: 2048
rand_sets[9]: 2038
Assign rand_sets[10]: 701  LLC: 2048
rand_sets[10]: 701
Assign rand_sets[11]: 479  LLC: 2048
rand_sets[11]: 479
Assign rand_sets[12]: 892  LLC: 2048
rand_sets[12]: 892
Assign rand_sets[13]: 1820  LLC: 2048
rand_sets[13]: 1820
Assign rand_sets[14]: 1505  LLC: 2048
rand_sets[14]: 1505
Assign rand_sets[15]: 1159  LLC: 2048
rand_sets[15]: 1159
Assign rand_sets[16]: 513  LLC: 2048
rand_sets[16]: 513
Assign rand_sets[17]: 703  LLC: 2048
rand_sets[17]: 703
Assign rand_sets[18]: 561  LLC: 2048
rand_sets[18]: 561
Assign rand_sets[19]: 990  LLC: 2048
rand_sets[19]: 990
Assign rand_sets[20]: 342  LLC: 2048
rand_sets[20]: 342
Assign rand_sets[21]: 882  LLC: 2048
rand_sets[21]: 882
Assign rand_sets[22]: 15  LLC: 2048
rand_sets[22]: 15
Assign rand_sets[23]: 71  LLC: 2048
rand_sets[23]: 71
Assign rand_sets[24]: 1127  LLC: 2048
rand_sets[24]: 1127
Assign rand_sets[25]: 1382  LLC: 2048
rand_sets[25]: 1382
Assign rand_sets[26]: 647  LLC: 2048
rand_sets[26]: 647
Assign rand_sets[27]: 857  LLC: 2048
rand_sets[27]: 857
Assign rand_sets[28]: 1450  LLC: 2048
rand_sets[28]: 1450
Assign rand_sets[29]: 1160  LLC: 2048
rand_sets[29]: 1160
Assign rand_sets[30]: 1852  LLC: 2048
rand_sets[30]: 1852
Assign rand_sets[31]: 1881  LLC: 2048
rand_sets[31]: 1881
Assign rand_sets[32]: 1770  LLC: 2048
rand_sets[32]: 1770
Assign rand_sets[33]: 1622  LLC: 2048
rand_sets[33]: 1622
Assign rand_sets[34]: 275  LLC: 2048
rand_sets[34]: 275
Assign rand_sets[35]: 635  LLC: 2048
rand_sets[35]: 635
Assign rand_sets[36]: 466  LLC: 2048
rand_sets[36]: 466
Assign rand_sets[37]: 1413  LLC: 2048
rand_sets[37]: 1413
Assign rand_sets[38]: 417  LLC: 2048
rand_sets[38]: 417
Assign rand_sets[39]: 472  LLC: 2048
rand_sets[39]: 472
Assign rand_sets[40]: 1340  LLC: 2048
rand_sets[40]: 1340
Assign rand_sets[41]: 852  LLC: 2048
rand_sets[41]: 852
Assign rand_sets[42]: 1365  LLC: 2048
rand_sets[42]: 1365
Assign rand_sets[43]: 47  LLC: 2048
rand_sets[43]: 47
Assign rand_sets[44]: 823  LLC: 2048
rand_sets[44]: 823
Assign rand_sets[45]: 686  LLC: 2048
rand_sets[45]: 686
Assign rand_sets[46]: 1637  LLC: 2048
rand_sets[46]: 1637
Assign rand_sets[47]: 1115  LLC: 2048
rand_sets[47]: 1115
Assign rand_sets[48]: 986  LLC: 2048
rand_sets[48]: 986
Assign rand_sets[49]: 258  LLC: 2048
rand_sets[49]: 258
Assign rand_sets[50]: 633  LLC: 2048
rand_sets[50]: 633
Assign rand_sets[51]: 920  LLC: 2048
rand_sets[51]: 920
Assign rand_sets[52]: 204  LLC: 2048
rand_sets[52]: 204
Assign rand_sets[53]: 227  LLC: 2048
rand_sets[53]: 227
Assign rand_sets[54]: 1818  LLC: 2048
rand_sets[54]: 1818
Assign rand_sets[55]: 886  LLC: 2048
rand_sets[55]: 886
Assign rand_sets[56]: 1422  LLC: 2048
rand_sets[56]: 1422
Assign rand_sets[57]: 607  LLC: 2048
rand_sets[57]: 607
Assign rand_sets[58]: 217  LLC: 2048
rand_sets[58]: 217
Assign rand_sets[59]: 1945  LLC: 2048
rand_sets[59]: 1945
Assign rand_sets[60]: 143  LLC: 2048
rand_sets[60]: 143
Assign rand_sets[61]: 1311  LLC: 2048
rand_sets[61]: 1311
Assign rand_sets[62]: 319  LLC: 2048
rand_sets[62]: 319
Assign rand_sets[63]: 1846  LLC: 2048
rand_sets[63]: 1846
 CLEAN-RRIP-POLICY-1: 2-2-0-2-0-3-0-0- CLEAN-RRIP-POLICY-2: 2-2-0-2-0-3-0-0-
 DIRTY-RRIP-POLICY-1: 2-2-0-2-0-3-0-0- DIRTY-RRIP-POLICY-2: 2-2-0-2-0-3-0-0-
 PSEL width: 10
Heartbeat CPU 0 instructions: 10000000 cycles: 4124769 heartbeat IPC: 2.42438 cumulative IPC: 2.42438 (Simulation time: 0 hr 0 min 13 sec) 
Heartbeat CPU 0 instructions: 20000000 cycles: 8234006 heartbeat IPC: 2.43354 cumulative IPC: 2.42895 (Simulation time: 0 hr 0 min 27 sec) 
Heartbeat CPU 0 instructions: 30000003 cycles: 12464994 heartbeat IPC: 2.36351 cumulative IPC: 2.40674 (Simulation time: 0 hr 0 min 39 sec) 
Heartbeat CPU 0 instructions: 40000000 cycles: 16637031 heartbeat IPC: 2.39691 cumulative IPC: 2.40428 (Simulation time: 0 hr 0 min 53 sec) 
Heartbeat CPU 0 instructions: 50000000 cycles: 20699481 heartbeat IPC: 2.46157 cumulative IPC: 2.41552 (Simulation time: 0 hr 1 min 6 sec) 
Heartbeat CPU 0 instructions: 60000000 cycles: 25023006 heartbeat IPC: 2.31293 cumulative IPC: 2.39779 (Simulation time: 0 hr 1 min 20 sec) 
Heartbeat CPU 0 instructions: 70000000 cycles: 29371248 heartbeat IPC: 2.29978 cumulative IPC: 2.38328 (Simulation time: 0 hr 1 min 33 sec) 
Heartbeat CPU 0 instructions: 80000000 cycles: 33721398 heartbeat IPC: 2.29877 cumulative IPC: 2.37238 (Simulation time: 0 hr 1 min 46 sec) 
Heartbeat CPU 0 instructions: 90000002 cycles: 38032406 heartbeat IPC: 2.31964 cumulative IPC: 2.3664 (Simulation time: 0 hr 1 min 59 sec) 
Heartbeat CPU 0 instructions: 100000000 cycles: 42329308 heartbeat IPC: 2.32726 cumulative IPC: 2.36243 (Simulation time: 0 hr 2 min 12 sec) 

Warmup complete CPU 0 instructions: 100000001 cycles: 42329309 (Simulation time: 0 hr 2 min 12 sec) 

Heartbeat CPU 0 instructions: 110000001 cycles: 49370117 heartbeat IPC: 1.42029 cumulative IPC: 1.42029 (Simulation time: 0 hr 2 min 29 sec) 
Heartbeat CPU 0 instructions: 120000000 cycles: 58912632 heartbeat IPC: 1.04794 cumulative IPC: 1.20603 (Simulation time: 0 hr 2 min 49 sec) 
Heartbeat CPU 0 instructions: 130000000 cycles: 63730683 heartbeat IPC: 2.07553 cumulative IPC: 1.40178 (Simulation time: 0 hr 3 min 5 sec) 
Heartbeat CPU 0 instructions: 140000000 cycles: 68642918 heartbeat IPC: 2.03573 cumulative IPC: 1.52013 (Simulation time: 0 hr 3 min 22 sec) 
Heartbeat CPU 0 instructions: 150000002 cycles: 75496790 heartbeat IPC: 1.45903 cumulative IPC: 1.5075 (Simulation time: 0 hr 3 min 40 sec) 
Heartbeat CPU 0 instructions: 160000000 cycles: 83314840 heartbeat IPC: 1.27909 cumulative IPC: 1.46393 (Simulation time: 0 hr 3 min 57 sec) 
Heartbeat CPU 0 instructions: 170000000 cycles: 90678650 heartbeat IPC: 1.35799 cumulative IPC: 1.4478 (Simulation time: 0 hr 4 min 15 sec) 
Heartbeat CPU 0 instructions: 180000000 cycles: 97942896 heartbeat IPC: 1.37661 cumulative IPC: 1.4385 (Simulation time: 0 hr 4 min 32 sec) 
Heartbeat CPU 0 instructions: 190000002 cycles: 105080663 heartbeat IPC: 1.401 cumulative IPC: 1.43423 (Simulation time: 0 hr 4 min 49 sec) 
Heartbeat CPU 0 instructions: 200000000 cycles: 112284663 heartbeat IPC: 1.38812 cumulative IPC: 1.42948 (Simulation time: 0 hr 5 min 6 sec) 
Heartbeat CPU 0 instructions: 210000000 cycles: 119135578 heartbeat IPC: 1.45966 cumulative IPC: 1.43217 (Simulation time: 0 hr 5 min 23 sec) 
Heartbeat CPU 0 instructions: 220000000 cycles: 125889485 heartbeat IPC: 1.48062 cumulative IPC: 1.43609 (Simulation time: 0 hr 5 min 39 sec) 
Heartbeat CPU 0 instructions: 230000003 cycles: 132599774 heartbeat IPC: 1.49025 cumulative IPC: 1.44012 (Simulation time: 0 hr 5 min 56 sec) 
Heartbeat CPU 0 instructions: 240000000 cycles: 139327721 heartbeat IPC: 1.48634 cumulative IPC: 1.44332 (Simulation time: 0 hr 6 min 12 sec) 
Heartbeat CPU 0 instructions: 250000001 cycles: 146016448 heartbeat IPC: 1.49505 cumulative IPC: 1.44666 (Simulation time: 0 hr 6 min 29 sec) 
Heartbeat CPU 0 instructions: 260000000 cycles: 152696393 heartbeat IPC: 1.49702 cumulative IPC: 1.44971 (Simulation time: 0 hr 6 min 45 sec) 
Heartbeat CPU 0 instructions: 270000001 cycles: 159646888 heartbeat IPC: 1.43875 cumulative IPC: 1.44906 (Simulation time: 0 hr 7 min 2 sec) 
Heartbeat CPU 0 instructions: 280000000 cycles: 167158190 heartbeat IPC: 1.33133 cumulative IPC: 1.44197 (Simulation time: 0 hr 7 min 20 sec) 
Heartbeat CPU 0 instructions: 290000000 cycles: 175074193 heartbeat IPC: 1.26326 cumulative IPC: 1.43132 (Simulation time: 0 hr 7 min 37 sec) 
Heartbeat CPU 0 instructions: 300000000 cycles: 183247564 heartbeat IPC: 1.22349 cumulative IPC: 1.41926 (Simulation time: 0 hr 7 min 55 sec) 
Heartbeat CPU 0 instructions: 310000002 cycles: 191542658 heartbeat IPC: 1.20553 cumulative IPC: 1.40738 (Simulation time: 0 hr 8 min 13 sec) 
Heartbeat CPU 0 instructions: 320000000 cycles: 201577265 heartbeat IPC: 0.996551 cumulative IPC: 1.38149 (Simulation time: 0 hr 8 min 33 sec) 
Heartbeat CPU 0 instructions: 330000002 cycles: 206217733 heartbeat IPC: 2.15496 cumulative IPC: 1.40339 (Simulation time: 0 hr 8 min 50 sec) 
Heartbeat CPU 0 instructions: 340000000 cycles: 211454888 heartbeat IPC: 1.90943 cumulative IPC: 1.41906 (Simulation time: 0 hr 9 min 7 sec) 
Heartbeat CPU 0 instructions: 350000000 cycles: 218690641 heartbeat IPC: 1.38203 cumulative IPC: 1.41754 (Simulation time: 0 hr 9 min 25 sec) 
Heartbeat CPU 0 instructions: 360000000 cycles: 226335219 heartbeat IPC: 1.30812 cumulative IPC: 1.413 (Simulation time: 0 hr 9 min 42 sec) 
Heartbeat CPU 0 instructions: 370000000 cycles: 233703261 heartbeat IPC: 1.35721 cumulative IPC: 1.41085 (Simulation time: 0 hr 10 min 0 sec) 
Heartbeat CPU 0 instructions: 380000000 cycles: 240933204 heartbeat IPC: 1.38314 cumulative IPC: 1.40984 (Simulation time: 0 hr 10 min 17 sec) 
Heartbeat CPU 0 instructions: 390000000 cycles: 249029509 heartbeat IPC: 1.23513 cumulative IPC: 1.403 (Simulation time: 0 hr 10 min 35 sec) 
Heartbeat CPU 0 instructions: 400000000 cycles: 257233087 heartbeat IPC: 1.21898 cumulative IPC: 1.39597 (Simulation time: 0 hr 10 min 53 sec) 
Heartbeat CPU 0 instructions: 410000001 cycles: 265039219 heartbeat IPC: 1.28104 cumulative IPC: 1.39195 (Simulation time: 0 hr 11 min 10 sec) 
Heartbeat CPU 0 instructions: 420000000 cycles: 273089592 heartbeat IPC: 1.24218 cumulative IPC: 1.38672 (Simulation time: 0 hr 11 min 28 sec) 
Heartbeat CPU 0 instructions: 430000001 cycles: 281343553 heartbeat IPC: 1.21154 cumulative IPC: 1.38067 (Simulation time: 0 hr 11 min 46 sec) 
Heartbeat CPU 0 instructions: 440000000 cycles: 289375556 heartbeat IPC: 1.24502 cumulative IPC: 1.37626 (Simulation time: 0 hr 12 min 4 sec) 
Heartbeat CPU 0 instructions: 450000001 cycles: 297244052 heartbeat IPC: 1.27089 cumulative IPC: 1.37301 (Simulation time: 0 hr 12 min 22 sec) 
Heartbeat CPU 0 instructions: 460000000 cycles: 307102784 heartbeat IPC: 1.01433 cumulative IPC: 1.35965 (Simulation time: 0 hr 12 min 42 sec) 
Heartbeat CPU 0 instructions: 470000002 cycles: 311735372 heartbeat IPC: 2.15862 cumulative IPC: 1.37339 (Simulation time: 0 hr 12 min 58 sec) 
Heartbeat CPU 0 instructions: 480000000 cycles: 316983127 heartbeat IPC: 1.90558 cumulative IPC: 1.38356 (Simulation time: 0 hr 13 min 15 sec) 
Heartbeat CPU 0 instructions: 490000001 cycles: 324317747 heartbeat IPC: 1.3634 cumulative IPC: 1.38304 (Simulation time: 0 hr 13 min 33 sec) 
Heartbeat CPU 0 instructions: 500000000 cycles: 333051154 heartbeat IPC: 1.14503 cumulative IPC: 1.37589 (Simulation time: 0 hr 13 min 53 sec) 
Heartbeat CPU 0 instructions: 510000002 cycles: 341783841 heartbeat IPC: 1.14512 cumulative IPC: 1.36916 (Simulation time: 0 hr 14 min 13 sec) 
Heartbeat CPU 0 instructions: 520000000 cycles: 350513041 heartbeat IPC: 1.14558 cumulative IPC: 1.36282 (Simulation time: 0 hr 14 min 33 sec) 
Heartbeat CPU 0 instructions: 530000000 cycles: 359221780 heartbeat IPC: 1.14827 cumulative IPC: 1.35693 (Simulation time: 0 hr 14 min 52 sec) 
Heartbeat CPU 0 instructions: 540000000 cycles: 367474928 heartbeat IPC: 1.21166 cumulative IPC: 1.35324 (Simulation time: 0 hr 15 min 11 sec) 
Heartbeat CPU 0 instructions: 550000000 cycles: 374520193 heartbeat IPC: 1.41939 cumulative IPC: 1.35464 (Simulation time: 0 hr 15 min 29 sec) 
Heartbeat CPU 0 instructions: 560000000 cycles: 381123789 heartbeat IPC: 1.51433 cumulative IPC: 1.35776 (Simulation time: 0 hr 15 min 46 sec) 
Heartbeat CPU 0 instructions: 570000002 cycles: 387686843 heartbeat IPC: 1.52368 cumulative IPC: 1.36091 (Simulation time: 0 hr 16 min 3 sec) 
Heartbeat CPU 0 instructions: 580000000 cycles: 394306522 heartbeat IPC: 1.51065 cumulative IPC: 1.36372 (Simulation time: 0 hr 16 min 20 sec) 
Heartbeat CPU 0 instructions: 590000002 cycles: 400964732 heartbeat IPC: 1.50191 cumulative IPC: 1.36629 (Simulation time: 0 hr 16 min 37 sec) 
Heartbeat CPU 0 instructions: 600000000 cycles: 407741294 heartbeat IPC: 1.47567 cumulative IPC: 1.36832 (Simulation time: 0 hr 16 min 54 sec) 
Finished CPU 0 instructions: 500000000 cycles: 365411993 cumulative IPC: 1.36832 (Simulation time: 0 hr 16 min 54 sec) 

CPU 0 Branch Prediction Accuracy: 93.4682% MPKI: 2.44079
Number of Branches: 18683822 Number of Mispredictions: 1220394
Number of LOAD Instructions: 142551610
Number of LOAD Instructions (ROI): 142551610
Number of STORE Instructions: 44807454
Number of STORE Instructions (ROI): 44807454
Total Destination Memory Operands: 48357071
Total Destination Memory Operands (ROI): 48357071
Total Source Memory Operands: 142551610
Total Source Memory Operands (ROI): 142551610
Number of DEPENDED LOADS: 7394787
Number of DEPENDED LOADS (ROI): 7394787
Number of SQ_ADDED: 48357051
Number of SQ_ADDED (ROI): 48357051
Number of LQ_ADDED: 157228948
Number of LQ_ADDED (ROI): 157228948
Number of Instructions read from trace: 600000256

ChampSim completed all CPUs

Region of Interest Statistics

CPU 0 cumulative IPC: 1.36832 instructions: 500000000 cycles: 365411993
ITLB TOTAL     ACCESS:   88177522  HIT:   88177453  MISS:         69
ITLB LOAD      ACCESS:   88177522  HIT:   88177453  MISS:         69
ITLB RFO       ACCESS:          0  HIT:          0  MISS:          0
ITLB PREFETCH  ACCESS:          0  HIT:          0  MISS:          0
ITLB WRITEBACK ACCESS:          0  HIT:          0  MISS:          0
ITLB PREFETCH  REQUESTED:          0  ISSUED:          0  USEFUL:          0  USELESS:          0
ITLB TOTAL MSHR MERGED:         86
ITLB LOAD MSHR MERGED:         86
ITLB RFO MSHR MERGED:          0
ITLB PREFETCH MSHR MERGED:          0
ITLB WRITEBACK MSHR MERGED:          0
ITLB TOTAL ACCESSES:   88177608 HITS:   88177453 MISSES:        155
ITLB LOAD ACCESSES:   88177608 HITS:   88177453 MISSES:        155
ITLB RFO ACCESSES:          0 HITS:          0 MISSES:          0
ITLB PREFETCH ACCESSES:          0 HITS:          0 MISSES:          0
ITLB WRITEBACK ACCESSES:          0 HITS:          0 MISSES:          0
ITLB RQ ACCESS:  500000000
ITLB RQ TO_CACHE:   88177608
ITLB RQ MERGED:  411822392
ITLB RQ FORWARD:          0
ITLB WQ ACCESS:          0
ITLB WQ TO_CACHE:          0
ITLB WQ MERGED:          0
ITLB WQ FORWARD:          0
DTLB TOTAL     ACCESS:   88202650  HIT:   88075231  MISS:     127419
DTLB LOAD      ACCESS:   59484651  HIT:   59392192  MISS:      92459
DTLB RFO       ACCESS:   28717999  HIT:   28683039  MISS:      34960
DTLB PREFETCH  ACCESS:          0  HIT:          0  MISS:          0
DTLB WRITEBACK ACCESS:          0  HIT:          0  MISS:          0
DTLB PREFETCH  REQUESTED:          0  ISSUED:          0  USEFUL:          0  USELESS:          0
DTLB TOTAL MSHR MERGED:     141227
DTLB LOAD MSHR MERGED:     107710
DTLB RFO MSHR MERGED:      33517
DTLB PREFETCH MSHR MERGED:          0
DTLB WRITEBACK MSHR MERGED:          0
DTLB TOTAL ACCESSES:   88343877 HITS:   88075231 MISSES:     268646
DTLB LOAD ACCESSES:   59592361 HITS:   59392192 MISSES:     200169
DTLB RFO ACCESSES:   28751516 HITS:   28683039 MISSES:      68477
DTLB PREFETCH ACCESSES:          0 HITS:          0 MISSES:          0
DTLB WRITEBACK ACCESSES:          0 HITS:          0 MISSES:          0
DTLB RQ ACCESS:  154559117
DTLB RQ TO_CACHE:   88343877
DTLB RQ MERGED:   66215240
DTLB RQ FORWARD:          0
DTLB WQ ACCESS:          0
DTLB WQ TO_CACHE:          0
DTLB WQ MERGED:          0
DTLB WQ FORWARD:          0
L1D TOTAL     ACCESS:  128091502  HIT:  124866044  MISS:    3225458
L1D LOAD      ACCESS:   53173488  HIT:   51978163  MISS:    1195325
L1D RFO       ACCESS:   37412690  HIT:   36798901  MISS:     613789
L1D PREFETCH  ACCESS:   37505324  HIT:   36088980  MISS:    1416344
L1D WRITEBACK ACCESS:          0  HIT:          0  MISS:          0
L1D PREFETCH  REQUESTED:   53657441  ISSUED:   52457116  USEFUL:     352095  USELESS:    1064214
L1D TOTAL MSHR MERGED:    2755434
L1D LOAD MSHR MERGED:     522684
L1D RFO MSHR MERGED:    1541731
L1D PREFETCH MSHR MERGED:     691019
L1D WRITEBACK MSHR MERGED:          0
L1D TOTAL ACCESSES:  130881762 HITS:  124900870 MISSES:    5980892
L1D LOAD ACCESSES:   53660274 HITS:   51980996 MISSES:    1679278
L1D RFO ACCESSES:   38952880 HITS:   36798901 MISSES:    2153979
L1D PREFETCH ACCESSES:   38268608 HITS:   36120973 MISSES:    2147635
L1D WRITEBACK ACCESSES:          0 HITS:          0 MISSES:          0
L1D RQ ACCESS:  113714225
L1D RQ TO_CACHE:   53657441
L1D RQ MERGED:   60053951
L1D RQ FORWARD:          0
L1D WQ ACCESS:   40844891
L1D WQ TO_CACHE:   38952880
L1D WQ MERGED:    1892011
L1D WQ FORWARD:      34826
L1I TOTAL     ACCESS:  108367074  HIT:  107807938  MISS:     559136
L1I LOAD      ACCESS:  108367074  HIT:  107807938  MISS:     559136
L1I RFO       ACCESS:          0  HIT:          0  MISS:          0
L1I PREFETCH  ACCESS:          0  HIT:          0  MISS:          0
L1I WRITEBACK ACCESS:          0  HIT:          0  MISS:          0
L1I PREFETCH  REQUESTED:          0  ISSUED:          0  USEFUL:          0  USELESS:          0
L1I TOTAL MSHR MERGED:     526654
L1I LOAD MSHR MERGED:     526654
L1I RFO MSHR MERGED:          0
L1I PREFETCH MSHR MERGED:          0
L1I WRITEBACK MSHR MERGED:          0
L1I TOTAL ACCESSES:  108893728 HITS:  107807938 MISSES:    1085790
L1I LOAD ACCESSES:  108893728 HITS:  107807938 MISSES:    1085790
L1I RFO ACCESSES:          0 HITS:          0 MISSES:          0
L1I PREFETCH ACCESSES:          0 HITS:          0 MISSES:          0
L1I WRITEBACK ACCESSES:          0 HITS:          0 MISSES:          0
L1I RQ ACCESS:  500000002
L1I RQ TO_CACHE:  108893728
L1I RQ MERGED:  391106274
L1I RQ FORWARD:          0
L1I WQ ACCESS:          0
L1I WQ TO_CACHE:          0
L1I WQ MERGED:          0
L1I WQ FORWARD:          0
L2C TOTAL     ACCESS:    4693534  HIT:    3867532  MISS:     826002
L2C LOAD      ACCESS:    1715616  HIT:    1563404  MISS:     152212
L2C RFO       ACCESS:     610829  HIT:     421181  MISS:     189648
L2C PREFETCH  ACCESS:    1664174  HIT:    1182226  MISS:     481948
L2C WRITEBACK ACCESS:     702915  HIT:     700721  MISS:       2194
L2C PREFETCH  REQUESTED:     256286  ISSUED:     256286  USEFUL:     173798  USELESS:     308816
L2C TOTAL MSHR MERGED:      11853
L2C LOAD MSHR MERGED:       3327
L2C RFO MSHR MERGED:          0
L2C PREFETCH MSHR MERGED:       8526
L2C WRITEBACK MSHR MERGED:          0
L2C TOTAL ACCESSES:    4711966 HITS:    3869135 MISSES:     842831
L2C LOAD ACCESSES:    1715730 HITS:    1563518 MISSES:     152212
L2C RFO ACCESSES:     612248 HITS:     422600 MISSES:     189648
L2C PREFETCH ACCESSES:    1681073 HITS:    1182296 MISSES:     498777
L2C WRITEBACK ACCESSES:     702915 HITS:     700721 MISSES:       2194
L2C RQ ACCESS:    2327978
L2C RQ TO_CACHE:    2326445
L2C RQ MERGED:          0
L2C RQ FORWARD:          0
L2C WQ ACCESS:     702915
L2C WQ TO_CACHE:     702915
L2C WQ MERGED:          0
L2C WQ FORWARD:       1603
LLC TOTAL     ACCESS:    1047278  HIT:     316733  MISS:     730545
LLC LOAD      ACCESS:     148881  HIT:      88916  MISS:      59965
LLC RFO       ACCESS:     189639  HIT:       7797  MISS:     181842
LLC PREFETCH  ACCESS:     487872  HIT:     162829  MISS:     325043
LLC WRITEBACK ACCESS:     220886  HIT:      57191  MISS:     163695
LLC PREFETCH  REQUESTED:          0  ISSUED:          0  USEFUL:      10170  USELESS:     315973
LLC TOTAL MSHR MERGED:       1691
LLC LOAD MSHR MERGED:        617
LLC RFO MSHR MERGED:          0
LLC PREFETCH MSHR MERGED:       1074
LLC WRITEBACK MSHR MERGED:          0
LLC TOTAL ACCESSES:    1048982 HITS:     316746 MISSES:     732236
LLC LOAD ACCESSES:     148885 HITS:      88920 MISSES:      59965
LLC RFO ACCESSES:     189648 HITS:       7806 MISSES:     181842
LLC PREFETCH ACCESSES:     489563 HITS:     162829 MISSES:     326734
LLC WRITEBACK ACCESSES:     220886 HITS:      57191 MISSES:     163695
LLC 0 RQ ACCESS:     338533
LLC 0 RQ TO_CACHE:     338520
LLC 0 RQ MERGED:          0
LLC 0 RQ FORWARD:          0
LLC WQ ACCESS:     220886
LLC WQ TO_CACHE:     220886
LLC WQ MERGED:          0
LLC WQ FORWARD:         13
Major fault: 0 Minor fault: 6811
CPU 0 L1D next line prefetcher final stats
CPU 0 L2C PC-based stride prefetcher final stats
All Misses: 851787
All Hits: 402475
SD Algo Stats - Switches: 0 SRR-Repls: 66457 BRR-Repls: 0

DRAM Statistics
 CHANNEL 0
 RQ ROW_BUFFER_HIT:     292963  ROW_BUFFER_MISS:     273815
 DBUS_CONGESTED:     409962
 WQ ROW_BUFFER_HIT:      31250  ROW_BUFFER_MISS:     187111  FULL:          0

 AVG_CONGESTED_CYCLE: 13
LOADS RETIRED: 119922929
INSTR RETIRED: 500000000
