
*** ChampSim Multicore Out-of-Order Simulator ***

Warmup Instructions: 100000000
Simulation Instructions: 500000000
Number of CPUs: 1
LLC sets: 2048
LLC ways: 16
Clean RRIP Policies: 321032003210320 Dirty RRIP Policies: 2311032023110320 PSEL Width: 10 Track Set: 4294967295 PSEL Mask: 1 Demote Mask: 4402233444022334DS Algo: 0Window size: 0
Off-chip DRAM Size: 4096 MB Channels: 1 Width: 64-bit Data Rate: 1600 MT/s

CPU 0 runs /mnt/beegfs/iconst01/spec2017/Blender.trace.gz
NOT SORTED
TRACE STRING: /mnt/beegfs/iconst01/spec2017/Blender.trace.gz
SORTED
TRACE STRING: /mnt/beegfs/iconst01/spec2017/Blender.trace.gz
INITIAL
TRACE STRING: /mnt/beegfs/iconst01/spec2017/Blender.trace.gz

champsim_seed used: 700

CPU 0 L1D next line prefetcher
CPU 0 L2C IP-based stride prefetcher
Initialize DRRIP state
Assign rand_sets[0]: 454  LLC: 2048
rand_sets[0]: 454
Assign rand_sets[1]: 1662  LLC: 2048
rand_sets[1]: 1662
Assign rand_sets[2]: 1921  LLC: 2048
rand_sets[2]: 1921
Assign rand_sets[3]: 1131  LLC: 2048
rand_sets[3]: 1131
Assign rand_sets[4]: 331  LLC: 2048
rand_sets[4]: 331
Assign rand_sets[5]: 1531  LLC: 2048
rand_sets[5]: 1531
Assign rand_sets[6]: 482  LLC: 2048
rand_sets[6]: 482
Assign rand_sets[7]: 1275  LLC: 2048
rand_sets[7]: 1275
Assign rand_sets[8]: 1876  LLC: 2048
rand_sets[8]: 1876
Assign rand_sets[9]: 2038  LLC: 2048
rand_sets[9]: 2038
Assign rand_sets[10]: 701  LLC: 2048
rand_sets[10]: 701
Assign rand_sets[11]: 479  LLC: 2048
rand_sets[11]: 479
Assign rand_sets[12]: 892  LLC: 2048
rand_sets[12]: 892
Assign rand_sets[13]: 1820  LLC: 2048
rand_sets[13]: 1820
Assign rand_sets[14]: 1505  LLC: 2048
rand_sets[14]: 1505
Assign rand_sets[15]: 1159  LLC: 2048
rand_sets[15]: 1159
Assign rand_sets[16]: 513  LLC: 2048
rand_sets[16]: 513
Assign rand_sets[17]: 703  LLC: 2048
rand_sets[17]: 703
Assign rand_sets[18]: 561  LLC: 2048
rand_sets[18]: 561
Assign rand_sets[19]: 990  LLC: 2048
rand_sets[19]: 990
Assign rand_sets[20]: 342  LLC: 2048
rand_sets[20]: 342
Assign rand_sets[21]: 882  LLC: 2048
rand_sets[21]: 882
Assign rand_sets[22]: 15  LLC: 2048
rand_sets[22]: 15
Assign rand_sets[23]: 71  LLC: 2048
rand_sets[23]: 71
Assign rand_sets[24]: 1127  LLC: 2048
rand_sets[24]: 1127
Assign rand_sets[25]: 1382  LLC: 2048
rand_sets[25]: 1382
Assign rand_sets[26]: 647  LLC: 2048
rand_sets[26]: 647
Assign rand_sets[27]: 857  LLC: 2048
rand_sets[27]: 857
Assign rand_sets[28]: 1450  LLC: 2048
rand_sets[28]: 1450
Assign rand_sets[29]: 1160  LLC: 2048
rand_sets[29]: 1160
Assign rand_sets[30]: 1852  LLC: 2048
rand_sets[30]: 1852
Assign rand_sets[31]: 1881  LLC: 2048
rand_sets[31]: 1881
Assign rand_sets[32]: 1770  LLC: 2048
rand_sets[32]: 1770
Assign rand_sets[33]: 1622  LLC: 2048
rand_sets[33]: 1622
Assign rand_sets[34]: 275  LLC: 2048
rand_sets[34]: 275
Assign rand_sets[35]: 635  LLC: 2048
rand_sets[35]: 635
Assign rand_sets[36]: 466  LLC: 2048
rand_sets[36]: 466
Assign rand_sets[37]: 1413  LLC: 2048
rand_sets[37]: 1413
Assign rand_sets[38]: 417  LLC: 2048
rand_sets[38]: 417
Assign rand_sets[39]: 472  LLC: 2048
rand_sets[39]: 472
Assign rand_sets[40]: 1340  LLC: 2048
rand_sets[40]: 1340
Assign rand_sets[41]: 852  LLC: 2048
rand_sets[41]: 852
Assign rand_sets[42]: 1365  LLC: 2048
rand_sets[42]: 1365
Assign rand_sets[43]: 47  LLC: 2048
rand_sets[43]: 47
Assign rand_sets[44]: 823  LLC: 2048
rand_sets[44]: 823
Assign rand_sets[45]: 686  LLC: 2048
rand_sets[45]: 686
Assign rand_sets[46]: 1637  LLC: 2048
rand_sets[46]: 1637
Assign rand_sets[47]: 1115  LLC: 2048
rand_sets[47]: 1115
Assign rand_sets[48]: 986  LLC: 2048
rand_sets[48]: 986
Assign rand_sets[49]: 258  LLC: 2048
rand_sets[49]: 258
Assign rand_sets[50]: 633  LLC: 2048
rand_sets[50]: 633
Assign rand_sets[51]: 920  LLC: 2048
rand_sets[51]: 920
Assign rand_sets[52]: 204  LLC: 2048
rand_sets[52]: 204
Assign rand_sets[53]: 227  LLC: 2048
rand_sets[53]: 227
Assign rand_sets[54]: 1818  LLC: 2048
rand_sets[54]: 1818
Assign rand_sets[55]: 886  LLC: 2048
rand_sets[55]: 886
Assign rand_sets[56]: 1422  LLC: 2048
rand_sets[56]: 1422
Assign rand_sets[57]: 607  LLC: 2048
rand_sets[57]: 607
Assign rand_sets[58]: 217  LLC: 2048
rand_sets[58]: 217
Assign rand_sets[59]: 1945  LLC: 2048
rand_sets[59]: 1945
Assign rand_sets[60]: 143  LLC: 2048
rand_sets[60]: 143
Assign rand_sets[61]: 1311  LLC: 2048
rand_sets[61]: 1311
Assign rand_sets[62]: 319  LLC: 2048
rand_sets[62]: 319
Assign rand_sets[63]: 1846  LLC: 2048
rand_sets[63]: 1846
 CLEAN-RRIP-POLICY-1: 0-3-2-1-0-3-2-0- CLEAN-RRIP-POLICY-2: 0-3-2-1-0-3-2-0-
 DIRTY-RRIP-POLICY-1: 2-3-1-1-0-3-2-0- DIRTY-RRIP-POLICY-2: 2-3-1-1-0-3-2-0-
 PSEL width: 10
Heartbeat CPU 0 instructions: 10000002 cycles: 5480898 heartbeat IPC: 1.82452 cumulative IPC: 1.82452 (Simulation time: 0 hr 0 min 13 sec) 
Heartbeat CPU 0 instructions: 20000000 cycles: 10913640 heartbeat IPC: 1.84069 cumulative IPC: 1.83257 (Simulation time: 0 hr 0 min 27 sec) 
Heartbeat CPU 0 instructions: 30000000 cycles: 16449092 heartbeat IPC: 1.80654 cumulative IPC: 1.82381 (Simulation time: 0 hr 0 min 40 sec) 
Heartbeat CPU 0 instructions: 40000000 cycles: 21901716 heartbeat IPC: 1.83398 cumulative IPC: 1.82634 (Simulation time: 0 hr 0 min 53 sec) 
Heartbeat CPU 0 instructions: 50000000 cycles: 27405415 heartbeat IPC: 1.81696 cumulative IPC: 1.82446 (Simulation time: 0 hr 1 min 6 sec) 
Heartbeat CPU 0 instructions: 60000000 cycles: 32785740 heartbeat IPC: 1.85862 cumulative IPC: 1.83006 (Simulation time: 0 hr 1 min 20 sec) 
Heartbeat CPU 0 instructions: 70000001 cycles: 38343592 heartbeat IPC: 1.79926 cumulative IPC: 1.8256 (Simulation time: 0 hr 1 min 33 sec) 
Heartbeat CPU 0 instructions: 80000000 cycles: 43804543 heartbeat IPC: 1.83118 cumulative IPC: 1.82629 (Simulation time: 0 hr 1 min 47 sec) 
Heartbeat CPU 0 instructions: 90000000 cycles: 49253421 heartbeat IPC: 1.83524 cumulative IPC: 1.82728 (Simulation time: 0 hr 2 min 0 sec) 
Heartbeat CPU 0 instructions: 100000000 cycles: 54800351 heartbeat IPC: 1.8028 cumulative IPC: 1.82481 (Simulation time: 0 hr 2 min 14 sec) 

Warmup complete CPU 0 instructions: 100000002 cycles: 54800352 (Simulation time: 0 hr 2 min 14 sec) 

Heartbeat CPU 0 instructions: 110000001 cycles: 69790799 heartbeat IPC: 0.667092 cumulative IPC: 0.667091 (Simulation time: 0 hr 2 min 33 sec) 
Heartbeat CPU 0 instructions: 120000000 cycles: 85624031 heartbeat IPC: 0.631583 cumulative IPC: 0.648852 (Simulation time: 0 hr 2 min 53 sec) 
Heartbeat CPU 0 instructions: 130000000 cycles: 100761526 heartbeat IPC: 0.660611 cumulative IPC: 0.652725 (Simulation time: 0 hr 3 min 13 sec) 
Heartbeat CPU 0 instructions: 140000000 cycles: 115563707 heartbeat IPC: 0.675576 cumulative IPC: 0.658291 (Simulation time: 0 hr 3 min 33 sec) 
Heartbeat CPU 0 instructions: 150000000 cycles: 130941031 heartbeat IPC: 0.650308 cumulative IPC: 0.656679 (Simulation time: 0 hr 3 min 52 sec) 
Heartbeat CPU 0 instructions: 160000000 cycles: 146761678 heartbeat IPC: 0.632085 cumulative IPC: 0.652448 (Simulation time: 0 hr 4 min 13 sec) 
Heartbeat CPU 0 instructions: 170000001 cycles: 162436245 heartbeat IPC: 0.637976 cumulative IPC: 0.650341 (Simulation time: 0 hr 4 min 32 sec) 
Heartbeat CPU 0 instructions: 180000000 cycles: 178140668 heartbeat IPC: 0.636763 cumulative IPC: 0.648612 (Simulation time: 0 hr 4 min 52 sec) 
Heartbeat CPU 0 instructions: 190000002 cycles: 193273624 heartbeat IPC: 0.66081 cumulative IPC: 0.649945 (Simulation time: 0 hr 5 min 12 sec) 
Heartbeat CPU 0 instructions: 200000000 cycles: 208290074 heartbeat IPC: 0.665936 cumulative IPC: 0.651509 (Simulation time: 0 hr 5 min 32 sec) 
Heartbeat CPU 0 instructions: 210000003 cycles: 223485756 heartbeat IPC: 0.658082 cumulative IPC: 0.652101 (Simulation time: 0 hr 5 min 52 sec) 
Heartbeat CPU 0 instructions: 220000000 cycles: 238799906 heartbeat IPC: 0.652991 cumulative IPC: 0.652175 (Simulation time: 0 hr 6 min 12 sec) 
Heartbeat CPU 0 instructions: 230000001 cycles: 254629251 heartbeat IPC: 0.631738 cumulative IPC: 0.650557 (Simulation time: 0 hr 6 min 32 sec) 
Heartbeat CPU 0 instructions: 240000000 cycles: 270335830 heartbeat IPC: 0.636676 cumulative IPC: 0.649545 (Simulation time: 0 hr 6 min 52 sec) 
Heartbeat CPU 0 instructions: 250000003 cycles: 285789467 heartbeat IPC: 0.647097 cumulative IPC: 0.649381 (Simulation time: 0 hr 7 min 11 sec) 
Heartbeat CPU 0 instructions: 260000000 cycles: 302142629 heartbeat IPC: 0.611502 cumulative IPC: 0.646877 (Simulation time: 0 hr 7 min 32 sec) 
Heartbeat CPU 0 instructions: 270000003 cycles: 317419036 heartbeat IPC: 0.654604 cumulative IPC: 0.647326 (Simulation time: 0 hr 7 min 52 sec) 
Heartbeat CPU 0 instructions: 280000000 cycles: 332504692 heartbeat IPC: 0.662881 cumulative IPC: 0.648171 (Simulation time: 0 hr 8 min 11 sec) 
Heartbeat CPU 0 instructions: 290000002 cycles: 347477425 heartbeat IPC: 0.667881 cumulative IPC: 0.64918 (Simulation time: 0 hr 8 min 31 sec) 
Heartbeat CPU 0 instructions: 300000000 cycles: 363664267 heartbeat IPC: 0.617786 cumulative IPC: 0.647534 (Simulation time: 0 hr 8 min 52 sec) 
Heartbeat CPU 0 instructions: 310000000 cycles: 379407768 heartbeat IPC: 0.635183 cumulative IPC: 0.646935 (Simulation time: 0 hr 9 min 12 sec) 
Heartbeat CPU 0 instructions: 320000000 cycles: 394887451 heartbeat IPC: 0.646008 cumulative IPC: 0.646893 (Simulation time: 0 hr 9 min 31 sec) 
Heartbeat CPU 0 instructions: 330000000 cycles: 411622815 heartbeat IPC: 0.597537 cumulative IPC: 0.644578 (Simulation time: 0 hr 9 min 52 sec) 
Heartbeat CPU 0 instructions: 340000000 cycles: 426926587 heartbeat IPC: 0.653434 cumulative IPC: 0.644942 (Simulation time: 0 hr 10 min 11 sec) 
Heartbeat CPU 0 instructions: 350000000 cycles: 442152400 heartbeat IPC: 0.656779 cumulative IPC: 0.645408 (Simulation time: 0 hr 10 min 31 sec) 
Heartbeat CPU 0 instructions: 360000000 cycles: 457416822 heartbeat IPC: 0.655118 cumulative IPC: 0.645776 (Simulation time: 0 hr 10 min 50 sec) 
Heartbeat CPU 0 instructions: 370000002 cycles: 473631723 heartbeat IPC: 0.616717 cumulative IPC: 0.644651 (Simulation time: 0 hr 11 min 11 sec) 
Heartbeat CPU 0 instructions: 380000000 cycles: 489245014 heartbeat IPC: 0.64048 cumulative IPC: 0.644501 (Simulation time: 0 hr 11 min 31 sec) 
Heartbeat CPU 0 instructions: 390000003 cycles: 504874206 heartbeat IPC: 0.639829 cumulative IPC: 0.644339 (Simulation time: 0 hr 11 min 50 sec) 
Heartbeat CPU 0 instructions: 400000000 cycles: 521708507 heartbeat IPC: 0.594025 cumulative IPC: 0.642525 (Simulation time: 0 hr 12 min 11 sec) 
Heartbeat CPU 0 instructions: 410000001 cycles: 537484204 heartbeat IPC: 0.633886 cumulative IPC: 0.642242 (Simulation time: 0 hr 12 min 30 sec) 
Heartbeat CPU 0 instructions: 420000000 cycles: 552912150 heartbeat IPC: 0.648174 cumulative IPC: 0.642426 (Simulation time: 0 hr 12 min 50 sec) 
Heartbeat CPU 0 instructions: 430000000 cycles: 569149404 heartbeat IPC: 0.615868 cumulative IPC: 0.641588 (Simulation time: 0 hr 13 min 10 sec) 
Heartbeat CPU 0 instructions: 440000000 cycles: 584681487 heartbeat IPC: 0.643829 cumulative IPC: 0.641653 (Simulation time: 0 hr 13 min 29 sec) 
Heartbeat CPU 0 instructions: 450000000 cycles: 600383763 heartbeat IPC: 0.63685 cumulative IPC: 0.641515 (Simulation time: 0 hr 13 min 49 sec) 
Heartbeat CPU 0 instructions: 460000000 cycles: 617084269 heartbeat IPC: 0.598784 cumulative IPC: 0.640246 (Simulation time: 0 hr 14 min 8 sec) 
Heartbeat CPU 0 instructions: 470000000 cycles: 632909915 heartbeat IPC: 0.631886 cumulative IPC: 0.640017 (Simulation time: 0 hr 14 min 28 sec) 
Heartbeat CPU 0 instructions: 480000000 cycles: 648467459 heartbeat IPC: 0.642775 cumulative IPC: 0.640089 (Simulation time: 0 hr 14 min 47 sec) 
Heartbeat CPU 0 instructions: 490000002 cycles: 664502237 heartbeat IPC: 0.623645 cumulative IPC: 0.639657 (Simulation time: 0 hr 15 min 7 sec) 
Heartbeat CPU 0 instructions: 500000000 cycles: 680056357 heartbeat IPC: 0.642916 cumulative IPC: 0.639738 (Simulation time: 0 hr 15 min 27 sec) 
Heartbeat CPU 0 instructions: 510000001 cycles: 695896828 heartbeat IPC: 0.631294 cumulative IPC: 0.639529 (Simulation time: 0 hr 15 min 46 sec) 
Heartbeat CPU 0 instructions: 520000000 cycles: 712226169 heartbeat IPC: 0.612395 cumulative IPC: 0.638855 (Simulation time: 0 hr 16 min 6 sec) 
Heartbeat CPU 0 instructions: 530000001 cycles: 728469824 heartbeat IPC: 0.615625 cumulative IPC: 0.638295 (Simulation time: 0 hr 16 min 25 sec) 
Heartbeat CPU 0 instructions: 540000000 cycles: 743692568 heartbeat IPC: 0.656912 cumulative IPC: 0.638707 (Simulation time: 0 hr 16 min 44 sec) 
Heartbeat CPU 0 instructions: 550000001 cycles: 759658348 heartbeat IPC: 0.62634 cumulative IPC: 0.638426 (Simulation time: 0 hr 17 min 3 sec) 
Heartbeat CPU 0 instructions: 560000000 cycles: 775135676 heartbeat IPC: 0.646106 cumulative IPC: 0.638591 (Simulation time: 0 hr 17 min 22 sec) 
Heartbeat CPU 0 instructions: 570000002 cycles: 791135990 heartbeat IPC: 0.624988 cumulative IPC: 0.638296 (Simulation time: 0 hr 17 min 42 sec) 
Heartbeat CPU 0 instructions: 580000000 cycles: 806889793 heartbeat IPC: 0.634767 cumulative IPC: 0.638222 (Simulation time: 0 hr 18 min 0 sec) 
Heartbeat CPU 0 instructions: 590000001 cycles: 822573658 heartbeat IPC: 0.637598 cumulative IPC: 0.638209 (Simulation time: 0 hr 18 min 19 sec) 
Heartbeat CPU 0 instructions: 600000000 cycles: 837864380 heartbeat IPC: 0.653991 cumulative IPC: 0.638517 (Simulation time: 0 hr 18 min 38 sec) 
Finished CPU 0 instructions: 500000000 cycles: 783064036 cumulative IPC: 0.638517 (Simulation time: 0 hr 18 min 38 sec) 

CPU 0 Branch Prediction Accuracy: 93.7783% MPKI: 10.0718
Number of Branches: 80940586 Number of Mispredictions: 5035908
Number of LOAD Instructions: 184238101
Number of LOAD Instructions (ROI): 184238101
Number of STORE Instructions: 33143298
Number of STORE Instructions (ROI): 33143298
Total Destination Memory Operands: 33324321
Total Destination Memory Operands (ROI): 33324321
Total Source Memory Operands: 184238101
Total Source Memory Operands (ROI): 184238101
Number of DEPENDED LOADS: 4460875
Number of DEPENDED LOADS (ROI): 4460875
Number of SQ_ADDED: 33324292
Number of SQ_ADDED (ROI): 33324292
Number of LQ_ADDED: 184884988
Number of LQ_ADDED (ROI): 184884988
Number of Instructions read from trace: 600000256

ChampSim completed all CPUs

Region of Interest Statistics

CPU 0 cumulative IPC: 0.638517 instructions: 500000000 cycles: 783064036
ITLB TOTAL     ACCESS:   77765399  HIT:   77765399  MISS:          0
ITLB LOAD      ACCESS:   77765399  HIT:   77765399  MISS:          0
ITLB RFO       ACCESS:          0  HIT:          0  MISS:          0
ITLB PREFETCH  ACCESS:          0  HIT:          0  MISS:          0
ITLB WRITEBACK ACCESS:          0  HIT:          0  MISS:          0
ITLB PREFETCH  REQUESTED:          0  ISSUED:          0  USEFUL:          0  USELESS:          0
ITLB TOTAL MSHR MERGED:          0
ITLB LOAD MSHR MERGED:          0
ITLB RFO MSHR MERGED:          0
ITLB PREFETCH MSHR MERGED:          0
ITLB WRITEBACK MSHR MERGED:          0
ITLB TOTAL ACCESSES:   77765399 HITS:   77765399 MISSES:          0
ITLB LOAD ACCESSES:   77765399 HITS:   77765399 MISSES:          0
ITLB RFO ACCESSES:          0 HITS:          0 MISSES:          0
ITLB PREFETCH ACCESSES:          0 HITS:          0 MISSES:          0
ITLB WRITEBACK ACCESSES:          0 HITS:          0 MISSES:          0
ITLB RQ ACCESS:  500000245
ITLB RQ TO_CACHE:   77765399
ITLB RQ MERGED:  422234846
ITLB RQ FORWARD:          0
ITLB WQ ACCESS:          0
ITLB WQ TO_CACHE:          0
ITLB WQ MERGED:          0
ITLB WQ FORWARD:          0
DTLB TOTAL     ACCESS:   88446300  HIT:   87309454  MISS:    1136846
DTLB LOAD      ACCESS:   66319549  HIT:   65186943  MISS:    1132606
DTLB RFO       ACCESS:   22126751  HIT:   22122511  MISS:       4240
DTLB PREFETCH  ACCESS:          0  HIT:          0  MISS:          0
DTLB WRITEBACK ACCESS:          0  HIT:          0  MISS:          0
DTLB PREFETCH  REQUESTED:          0  ISSUED:          0  USEFUL:          0  USELESS:          0
DTLB TOTAL MSHR MERGED:     135683
DTLB LOAD MSHR MERGED:     133870
DTLB RFO MSHR MERGED:       1813
DTLB PREFETCH MSHR MERGED:          0
DTLB WRITEBACK MSHR MERGED:          0
DTLB TOTAL ACCESSES:   88581983 HITS:   87309454 MISSES:    1272529
DTLB LOAD ACCESSES:   66453419 HITS:   65186943 MISSES:    1266476
DTLB RFO ACCESSES:   22128564 HITS:   22122511 MISSES:       6053
DTLB PREFETCH ACCESSES:          0 HITS:          0 MISSES:          0
DTLB WRITEBACK ACCESSES:          0 HITS:          0 MISSES:          0
DTLB RQ ACCESS:  177579878
DTLB RQ TO_CACHE:   88581983
DTLB RQ MERGED:   88997895
DTLB RQ FORWARD:          0
DTLB WQ ACCESS:          0
DTLB WQ TO_CACHE:          0
DTLB WQ MERGED:          0
DTLB WQ FORWARD:          0
L1D TOTAL     ACCESS:  142138627  HIT:  136579605  MISS:    5559022
L1D LOAD      ACCESS:   61393216  HIT:   58299276  MISS:    3093940
L1D RFO       ACCESS:   27666893  HIT:   27585154  MISS:      81739
L1D PREFETCH  ACCESS:   53078518  HIT:   50695175  MISS:    2383343
L1D WRITEBACK ACCESS:          0  HIT:          0  MISS:          0
L1D PREFETCH  REQUESTED:   61686711  ISSUED:   60768447  USEFUL:     676485  USELESS:    1706863
L1D TOTAL MSHR MERGED:    1169485
L1D LOAD MSHR MERGED:     381838
L1D RFO MSHR MERGED:     166286
L1D PREFETCH MSHR MERGED:     621361
L1D WRITEBACK MSHR MERGED:          0
L1D TOTAL ACCESSES:  143405727 HITS:  136677220 MISSES:    6728507
L1D LOAD ACCESSES:   61686724 HITS:   58299289 MISSES:    3387435
L1D RFO ACCESSES:   27829364 HITS:   27585154 MISSES:     244210
L1D PREFETCH ACCESSES:   53889639 HITS:   50792777 MISSES:    3096862
L1D WRITEBACK ACCESSES:          0 HITS:          0 MISSES:          0
L1D RQ ACCESS:  149746912
L1D RQ TO_CACHE:   61686711
L1D RQ MERGED:   88060188
L1D RQ FORWARD:          0
L1D WQ ACCESS:   27832966
L1D WQ TO_CACHE:   27829364
L1D WQ MERGED:       3602
L1D WQ FORWARD:      97615
L1I TOTAL     ACCESS:   96239811  HIT:   96080821  MISS:     158990
L1I LOAD      ACCESS:   96239811  HIT:   96080821  MISS:     158990
L1I RFO       ACCESS:          0  HIT:          0  MISS:          0
L1I PREFETCH  ACCESS:          0  HIT:          0  MISS:          0
L1I WRITEBACK ACCESS:          0  HIT:          0  MISS:          0
L1I PREFETCH  REQUESTED:          0  ISSUED:          0  USEFUL:          0  USELESS:          0
L1I TOTAL MSHR MERGED:     131209
L1I LOAD MSHR MERGED:     131209
L1I RFO MSHR MERGED:          0
L1I PREFETCH MSHR MERGED:          0
L1I WRITEBACK MSHR MERGED:          0
L1I TOTAL ACCESSES:   96371020 HITS:   96080821 MISSES:     290199
L1I LOAD ACCESSES:   96371020 HITS:   96080821 MISSES:     290199
L1I RFO ACCESSES:          0 HITS:          0 MISSES:          0
L1I PREFETCH ACCESSES:          0 HITS:          0 MISSES:          0
L1I WRITEBACK ACCESSES:          0 HITS:          0 MISSES:          0
L1I RQ ACCESS:  500000245
L1I RQ TO_CACHE:   96371020
L1I RQ MERGED:  403629225
L1I RQ FORWARD:          0
L1I WQ ACCESS:          0
L1I WQ TO_CACHE:          0
L1I WQ MERGED:          0
L1I WQ FORWARD:          0
L2C TOTAL     ACCESS:    5911876  HIT:    3063481  MISS:    2848395
L2C LOAD      ACCESS:    3164577  HIT:    1583455  MISS:    1581122
L2C RFO       ACCESS:      77848  HIT:      45042  MISS:      32806
L2C PREFETCH  ACCESS:    2525916  HIT:    1297034  MISS:    1228882
L2C WRITEBACK ACCESS:     143535  HIT:     137950  MISS:       5585
L2C PREFETCH  REQUESTED:      52723  ISSUED:      52723  USEFUL:      19181  USELESS:    1209741
L2C TOTAL MSHR MERGED:       1367
L2C LOAD MSHR MERGED:        452
L2C RFO MSHR MERGED:          0
L2C PREFETCH MSHR MERGED:        915
L2C WRITEBACK MSHR MERGED:          0
L2C TOTAL ACCESSES:    5913347 HITS:    3063567 MISSES:    2849780
L2C LOAD ACCESSES:    3164587 HITS:    1583465 MISSES:    1581122
L2C RFO ACCESSES:      77924 HITS:      45118 MISSES:      32806
L2C PREFETCH ACCESSES:    2527301 HITS:    1297034 MISSES:    1230267
L2C WRITEBACK ACCESSES:     143535 HITS:     137950 MISSES:       5585
L2C RQ ACCESS:    3242511
L2C RQ TO_CACHE:    3242425
L2C RQ MERGED:          0
L2C RQ FORWARD:          0
L2C WQ ACCESS:     143535
L2C WQ TO_CACHE:     143535
L2C WQ MERGED:          0
L2C WQ FORWARD:         86
LLC TOTAL     ACCESS:    2892373  HIT:    1541245  MISS:    1351128
LLC LOAD      ACCESS:    1580670  HIT:     843079  MISS:     737591
LLC RFO       ACCESS:      32802  HIT:      28415  MISS:       4387
LLC PREFETCH  ACCESS:    1229352  HIT:     629645  MISS:     599707
LLC WRITEBACK ACCESS:      49549  HIT:      40106  MISS:       9443
LLC PREFETCH  REQUESTED:          0  ISSUED:          0  USEFUL:      17007  USELESS:     583639
LLC TOTAL MSHR MERGED:          0
LLC LOAD MSHR MERGED:          0
LLC RFO MSHR MERGED:          0
LLC PREFETCH MSHR MERGED:          0
LLC WRITEBACK MSHR MERGED:          0
LLC TOTAL ACCESSES:    2892377 HITS:    1541249 MISSES:    1351128
LLC LOAD ACCESSES:    1580670 HITS:     843079 MISSES:     737591
LLC RFO ACCESSES:      32806 HITS:      28419 MISSES:       4387
LLC PREFETCH ACCESSES:    1229352 HITS:     629645 MISSES:     599707
LLC WRITEBACK ACCESSES:      49549 HITS:      40106 MISSES:       9443
LLC 0 RQ ACCESS:    1613476
LLC 0 RQ TO_CACHE:    1613472
LLC 0 RQ MERGED:          0
LLC 0 RQ FORWARD:          0
LLC WQ ACCESS:      49549
LLC WQ TO_CACHE:      49549
LLC WQ MERGED:          0
LLC WQ FORWARD:          4
Major fault: 0 Minor fault: 8460
CPU 0 L1D next line prefetcher final stats
CPU 0 L2C PC-based stride prefetcher final stats
All Misses: 1602158
All Hits: 1826810
SD Algo Stats - Switches: 0 SRR-Repls: 846004 BRR-Repls: 0

DRAM Statistics
 CHANNEL 0
 RQ ROW_BUFFER_HIT:     444194  ROW_BUFFER_MISS:     893140
 DBUS_CONGESTED:     409574
 WQ ROW_BUFFER_HIT:       2635  ROW_BUFFER_MISS:       6342  FULL:          0

 AVG_CONGESTED_CYCLE: 12
LOADS RETIRED: 153532848
INSTR RETIRED: 500000000
