
*** ChampSim Multicore Out-of-Order Simulator ***

Warmup Instructions: 100000000
Simulation Instructions: 500000000
Number of CPUs: 1
LLC sets: 2048
LLC ways: 16
Clean RRIP Policies: 2203030022030300 Dirty RRIP Policies: 1203030012030300 PSEL Width: 10 Track Set: 4294967295 PSEL Mask: 1 Demote Mask: 2102021421020214DS Algo: 0Window size: 0
Off-chip DRAM Size: 4096 MB Channels: 1 Width: 64-bit Data Rate: 1600 MT/s

CPU 0 runs /mnt/beegfs/iconst01/spec2017/Fotonik3d.trace.gz
NOT SORTED
TRACE STRING: /mnt/beegfs/iconst01/spec2017/Fotonik3d.trace.gz
SORTED
TRACE STRING: /mnt/beegfs/iconst01/spec2017/Fotonik3d.trace.gz
INITIAL
TRACE STRING: /mnt/beegfs/iconst01/spec2017/Fotonik3d.trace.gz

champsim_seed used: 881

CPU 0 L1D next line prefetcher
CPU 0 L2C IP-based stride prefetcher
Initialize DRRIP state
Assign rand_sets[0]: 454  LLC: 2048
rand_sets[0]: 454
Assign rand_sets[1]: 1662  LLC: 2048
rand_sets[1]: 1662
Assign rand_sets[2]: 1921  LLC: 2048
rand_sets[2]: 1921
Assign rand_sets[3]: 1131  LLC: 2048
rand_sets[3]: 1131
Assign rand_sets[4]: 331  LLC: 2048
rand_sets[4]: 331
Assign rand_sets[5]: 1531  LLC: 2048
rand_sets[5]: 1531
Assign rand_sets[6]: 482  LLC: 2048
rand_sets[6]: 482
Assign rand_sets[7]: 1275  LLC: 2048
rand_sets[7]: 1275
Assign rand_sets[8]: 1876  LLC: 2048
rand_sets[8]: 1876
Assign rand_sets[9]: 2038  LLC: 2048
rand_sets[9]: 2038
Assign rand_sets[10]: 701  LLC: 2048
rand_sets[10]: 701
Assign rand_sets[11]: 479  LLC: 2048
rand_sets[11]: 479
Assign rand_sets[12]: 892  LLC: 2048
rand_sets[12]: 892
Assign rand_sets[13]: 1820  LLC: 2048
rand_sets[13]: 1820
Assign rand_sets[14]: 1505  LLC: 2048
rand_sets[14]: 1505
Assign rand_sets[15]: 1159  LLC: 2048
rand_sets[15]: 1159
Assign rand_sets[16]: 513  LLC: 2048
rand_sets[16]: 513
Assign rand_sets[17]: 703  LLC: 2048
rand_sets[17]: 703
Assign rand_sets[18]: 561  LLC: 2048
rand_sets[18]: 561
Assign rand_sets[19]: 990  LLC: 2048
rand_sets[19]: 990
Assign rand_sets[20]: 342  LLC: 2048
rand_sets[20]: 342
Assign rand_sets[21]: 882  LLC: 2048
rand_sets[21]: 882
Assign rand_sets[22]: 15  LLC: 2048
rand_sets[22]: 15
Assign rand_sets[23]: 71  LLC: 2048
rand_sets[23]: 71
Assign rand_sets[24]: 1127  LLC: 2048
rand_sets[24]: 1127
Assign rand_sets[25]: 1382  LLC: 2048
rand_sets[25]: 1382
Assign rand_sets[26]: 647  LLC: 2048
rand_sets[26]: 647
Assign rand_sets[27]: 857  LLC: 2048
rand_sets[27]: 857
Assign rand_sets[28]: 1450  LLC: 2048
rand_sets[28]: 1450
Assign rand_sets[29]: 1160  LLC: 2048
rand_sets[29]: 1160
Assign rand_sets[30]: 1852  LLC: 2048
rand_sets[30]: 1852
Assign rand_sets[31]: 1881  LLC: 2048
rand_sets[31]: 1881
Assign rand_sets[32]: 1770  LLC: 2048
rand_sets[32]: 1770
Assign rand_sets[33]: 1622  LLC: 2048
rand_sets[33]: 1622
Assign rand_sets[34]: 275  LLC: 2048
rand_sets[34]: 275
Assign rand_sets[35]: 635  LLC: 2048
rand_sets[35]: 635
Assign rand_sets[36]: 466  LLC: 2048
rand_sets[36]: 466
Assign rand_sets[37]: 1413  LLC: 2048
rand_sets[37]: 1413
Assign rand_sets[38]: 417  LLC: 2048
rand_sets[38]: 417
Assign rand_sets[39]: 472  LLC: 2048
rand_sets[39]: 472
Assign rand_sets[40]: 1340  LLC: 2048
rand_sets[40]: 1340
Assign rand_sets[41]: 852  LLC: 2048
rand_sets[41]: 852
Assign rand_sets[42]: 1365  LLC: 2048
rand_sets[42]: 1365
Assign rand_sets[43]: 47  LLC: 2048
rand_sets[43]: 47
Assign rand_sets[44]: 823  LLC: 2048
rand_sets[44]: 823
Assign rand_sets[45]: 686  LLC: 2048
rand_sets[45]: 686
Assign rand_sets[46]: 1637  LLC: 2048
rand_sets[46]: 1637
Assign rand_sets[47]: 1115  LLC: 2048
rand_sets[47]: 1115
Assign rand_sets[48]: 986  LLC: 2048
rand_sets[48]: 986
Assign rand_sets[49]: 258  LLC: 2048
rand_sets[49]: 258
Assign rand_sets[50]: 633  LLC: 2048
rand_sets[50]: 633
Assign rand_sets[51]: 920  LLC: 2048
rand_sets[51]: 920
Assign rand_sets[52]: 204  LLC: 2048
rand_sets[52]: 204
Assign rand_sets[53]: 227  LLC: 2048
rand_sets[53]: 227
Assign rand_sets[54]: 1818  LLC: 2048
rand_sets[54]: 1818
Assign rand_sets[55]: 886  LLC: 2048
rand_sets[55]: 886
Assign rand_sets[56]: 1422  LLC: 2048
rand_sets[56]: 1422
Assign rand_sets[57]: 607  LLC: 2048
rand_sets[57]: 607
Assign rand_sets[58]: 217  LLC: 2048
rand_sets[58]: 217
Assign rand_sets[59]: 1945  LLC: 2048
rand_sets[59]: 1945
Assign rand_sets[60]: 143  LLC: 2048
rand_sets[60]: 143
Assign rand_sets[61]: 1311  LLC: 2048
rand_sets[61]: 1311
Assign rand_sets[62]: 319  LLC: 2048
rand_sets[62]: 319
Assign rand_sets[63]: 1846  LLC: 2048
rand_sets[63]: 1846
 CLEAN-RRIP-POLICY-1: 2-2-0-3-0-3-0-0- CLEAN-RRIP-POLICY-2: 2-2-0-3-0-3-0-0-
 DIRTY-RRIP-POLICY-1: 1-2-0-3-0-3-0-0- DIRTY-RRIP-POLICY-2: 1-2-0-3-0-3-0-0-
 PSEL width: 10
Heartbeat CPU 0 instructions: 10000002 cycles: 7306795 heartbeat IPC: 1.36859 cumulative IPC: 1.36859 (Simulation time: 0 hr 0 min 25 sec) 
Heartbeat CPU 0 instructions: 20000000 cycles: 14613879 heartbeat IPC: 1.36853 cumulative IPC: 1.36856 (Simulation time: 0 hr 0 min 50 sec) 
Heartbeat CPU 0 instructions: 30000001 cycles: 21920832 heartbeat IPC: 1.36856 cumulative IPC: 1.36856 (Simulation time: 0 hr 1 min 15 sec) 
Heartbeat CPU 0 instructions: 40000000 cycles: 29227671 heartbeat IPC: 1.36858 cumulative IPC: 1.36857 (Simulation time: 0 hr 1 min 40 sec) 
Heartbeat CPU 0 instructions: 50000001 cycles: 36534450 heartbeat IPC: 1.36859 cumulative IPC: 1.36857 (Simulation time: 0 hr 2 min 6 sec) 
Heartbeat CPU 0 instructions: 60000000 cycles: 43841518 heartbeat IPC: 1.36854 cumulative IPC: 1.36857 (Simulation time: 0 hr 2 min 32 sec) 
Heartbeat CPU 0 instructions: 70000002 cycles: 51148358 heartbeat IPC: 1.36858 cumulative IPC: 1.36857 (Simulation time: 0 hr 2 min 57 sec) 
Heartbeat CPU 0 instructions: 80000000 cycles: 58455166 heartbeat IPC: 1.36859 cumulative IPC: 1.36857 (Simulation time: 0 hr 3 min 23 sec) 
Heartbeat CPU 0 instructions: 90000003 cycles: 65765805 heartbeat IPC: 1.36787 cumulative IPC: 1.36849 (Simulation time: 0 hr 3 min 48 sec) 
Heartbeat CPU 0 instructions: 100000000 cycles: 73076482 heartbeat IPC: 1.36786 cumulative IPC: 1.36843 (Simulation time: 0 hr 4 min 14 sec) 

Warmup complete CPU 0 instructions: 100000002 cycles: 73076494 (Simulation time: 0 hr 4 min 14 sec) 

Heartbeat CPU 0 instructions: 110000001 cycles: 85596025 heartbeat IPC: 0.798751 cumulative IPC: 0.798752 (Simulation time: 0 hr 4 min 45 sec) 
Heartbeat CPU 0 instructions: 120000000 cycles: 98052076 heartbeat IPC: 0.802823 cumulative IPC: 0.800782 (Simulation time: 0 hr 5 min 15 sec) 
Heartbeat CPU 0 instructions: 130000000 cycles: 110575810 heartbeat IPC: 0.798484 cumulative IPC: 0.800015 (Simulation time: 0 hr 5 min 46 sec) 
Heartbeat CPU 0 instructions: 140000000 cycles: 123066764 heartbeat IPC: 0.800579 cumulative IPC: 0.800156 (Simulation time: 0 hr 6 min 17 sec) 
Heartbeat CPU 0 instructions: 150000000 cycles: 135505933 heartbeat IPC: 0.803912 cumulative IPC: 0.800904 (Simulation time: 0 hr 6 min 47 sec) 
Heartbeat CPU 0 instructions: 160000000 cycles: 147990273 heartbeat IPC: 0.801004 cumulative IPC: 0.800921 (Simulation time: 0 hr 7 min 18 sec) 
Heartbeat CPU 0 instructions: 170000001 cycles: 160479568 heartbeat IPC: 0.800686 cumulative IPC: 0.800887 (Simulation time: 0 hr 7 min 49 sec) 
Heartbeat CPU 0 instructions: 180000000 cycles: 172969478 heartbeat IPC: 0.800646 cumulative IPC: 0.800857 (Simulation time: 0 hr 8 min 20 sec) 
Heartbeat CPU 0 instructions: 190000000 cycles: 185497628 heartbeat IPC: 0.798202 cumulative IPC: 0.800561 (Simulation time: 0 hr 8 min 50 sec) 
Heartbeat CPU 0 instructions: 200000000 cycles: 197967409 heartbeat IPC: 0.801939 cumulative IPC: 0.800699 (Simulation time: 0 hr 9 min 21 sec) 
Heartbeat CPU 0 instructions: 210000002 cycles: 210494605 heartbeat IPC: 0.798263 cumulative IPC: 0.800477 (Simulation time: 0 hr 9 min 52 sec) 
Heartbeat CPU 0 instructions: 220000000 cycles: 223023601 heartbeat IPC: 0.798148 cumulative IPC: 0.800282 (Simulation time: 0 hr 10 min 22 sec) 
Heartbeat CPU 0 instructions: 230000002 cycles: 235497936 heartbeat IPC: 0.801646 cumulative IPC: 0.800387 (Simulation time: 0 hr 10 min 53 sec) 
Heartbeat CPU 0 instructions: 240000000 cycles: 248686624 heartbeat IPC: 0.758225 cumulative IPC: 0.797221 (Simulation time: 0 hr 11 min 24 sec) 
Heartbeat CPU 0 instructions: 250000002 cycles: 266273879 heartbeat IPC: 0.568594 cumulative IPC: 0.776408 (Simulation time: 0 hr 11 min 58 sec) 
Heartbeat CPU 0 instructions: 260000000 cycles: 283831265 heartbeat IPC: 0.569561 cumulative IPC: 0.759176 (Simulation time: 0 hr 12 min 32 sec) 
Heartbeat CPU 0 instructions: 270000000 cycles: 301462821 heartbeat IPC: 0.567165 cumulative IPC: 0.744353 (Simulation time: 0 hr 13 min 5 sec) 
Heartbeat CPU 0 instructions: 280000000 cycles: 319045053 heartbeat IPC: 0.568756 cumulative IPC: 0.731801 (Simulation time: 0 hr 13 min 38 sec) 
Heartbeat CPU 0 instructions: 290000000 cycles: 347857868 heartbeat IPC: 0.347068 cumulative IPC: 0.691459 (Simulation time: 0 hr 14 min 19 sec) 
Heartbeat CPU 0 instructions: 300000000 cycles: 385152195 heartbeat IPC: 0.268137 cumulative IPC: 0.64087 (Simulation time: 0 hr 15 min 6 sec) 
Heartbeat CPU 0 instructions: 310000000 cycles: 402180810 heartbeat IPC: 0.587247 cumulative IPC: 0.638096 (Simulation time: 0 hr 15 min 39 sec) 
Heartbeat CPU 0 instructions: 320000000 cycles: 419127991 heartbeat IPC: 0.590069 cumulative IPC: 0.635743 (Simulation time: 0 hr 16 min 11 sec) 
Heartbeat CPU 0 instructions: 330000003 cycles: 436199734 heartbeat IPC: 0.585763 cumulative IPC: 0.633394 (Simulation time: 0 hr 16 min 43 sec) 
Heartbeat CPU 0 instructions: 340000000 cycles: 453191567 heartbeat IPC: 0.588518 cumulative IPC: 0.631388 (Simulation time: 0 hr 17 min 15 sec) 
Heartbeat CPU 0 instructions: 350000001 cycles: 468374704 heartbeat IPC: 0.658625 cumulative IPC: 0.632434 (Simulation time: 0 hr 17 min 45 sec) 
Heartbeat CPU 0 instructions: 360000000 cycles: 480214117 heartbeat IPC: 0.844636 cumulative IPC: 0.638605 (Simulation time: 0 hr 18 min 12 sec) 
Heartbeat CPU 0 instructions: 370000002 cycles: 491818517 heartbeat IPC: 0.861742 cumulative IPC: 0.644788 (Simulation time: 0 hr 18 min 39 sec) 
Heartbeat CPU 0 instructions: 380000000 cycles: 503638061 heartbeat IPC: 0.846056 cumulative IPC: 0.650313 (Simulation time: 0 hr 19 min 6 sec) 
Heartbeat CPU 0 instructions: 390000003 cycles: 516923268 heartbeat IPC: 0.752717 cumulative IPC: 0.653379 (Simulation time: 0 hr 19 min 34 sec) 
Heartbeat CPU 0 instructions: 400000000 cycles: 529157715 heartbeat IPC: 0.817364 cumulative IPC: 0.657778 (Simulation time: 0 hr 20 min 2 sec) 
Heartbeat CPU 0 instructions: 410000003 cycles: 541083271 heartbeat IPC: 0.838536 cumulative IPC: 0.662384 (Simulation time: 0 hr 20 min 30 sec) 
Heartbeat CPU 0 instructions: 420000000 cycles: 553878520 heartbeat IPC: 0.78154 cumulative IPC: 0.665555 (Simulation time: 0 hr 20 min 57 sec) 
Heartbeat CPU 0 instructions: 430000003 cycles: 572205890 heartbeat IPC: 0.545632 cumulative IPC: 0.661151 (Simulation time: 0 hr 21 min 22 sec) 
Heartbeat CPU 0 instructions: 440000000 cycles: 590524786 heartbeat IPC: 0.545884 cumulative IPC: 0.65707 (Simulation time: 0 hr 21 min 47 sec) 
Heartbeat CPU 0 instructions: 450000003 cycles: 608866788 heartbeat IPC: 0.545197 cumulative IPC: 0.653241 (Simulation time: 0 hr 22 min 12 sec) 
Heartbeat CPU 0 instructions: 460000000 cycles: 627161064 heartbeat IPC: 0.546619 cumulative IPC: 0.64972 (Simulation time: 0 hr 22 min 37 sec) 
Heartbeat CPU 0 instructions: 470000003 cycles: 645499915 heartbeat IPC: 0.545291 cumulative IPC: 0.646375 (Simulation time: 0 hr 23 min 2 sec) 
Heartbeat CPU 0 instructions: 480000000 cycles: 663820926 heartbeat IPC: 0.545821 cumulative IPC: 0.643256 (Simulation time: 0 hr 23 min 27 sec) 
Heartbeat CPU 0 instructions: 490000003 cycles: 682164388 heartbeat IPC: 0.545153 cumulative IPC: 0.640302 (Simulation time: 0 hr 23 min 52 sec) 
Heartbeat CPU 0 instructions: 500000000 cycles: 700454708 heartbeat IPC: 0.546737 cumulative IPC: 0.637574 (Simulation time: 0 hr 24 min 17 sec) 
Heartbeat CPU 0 instructions: 510000003 cycles: 718799546 heartbeat IPC: 0.545113 cumulative IPC: 0.634947 (Simulation time: 0 hr 24 min 42 sec) 
Heartbeat CPU 0 instructions: 520000000 cycles: 737126376 heartbeat IPC: 0.545648 cumulative IPC: 0.632483 (Simulation time: 0 hr 25 min 7 sec) 
Heartbeat CPU 0 instructions: 530000001 cycles: 755461130 heartbeat IPC: 0.545412 cumulative IPC: 0.630143 (Simulation time: 0 hr 25 min 33 sec) 
Heartbeat CPU 0 instructions: 540000000 cycles: 773727522 heartbeat IPC: 0.547453 cumulative IPC: 0.627987 (Simulation time: 0 hr 25 min 58 sec) 
Heartbeat CPU 0 instructions: 550000001 cycles: 791993746 heartbeat IPC: 0.547459 cumulative IPC: 0.625941 (Simulation time: 0 hr 26 min 23 sec) 
Heartbeat CPU 0 instructions: 560000000 cycles: 810276613 heartbeat IPC: 0.54696 cumulative IPC: 0.623983 (Simulation time: 0 hr 26 min 48 sec) 
Heartbeat CPU 0 instructions: 570000001 cycles: 828524265 heartbeat IPC: 0.548016 cumulative IPC: 0.622148 (Simulation time: 0 hr 27 min 13 sec) 
Heartbeat CPU 0 instructions: 580000000 cycles: 846741045 heartbeat IPC: 0.548944 cumulative IPC: 0.620424 (Simulation time: 0 hr 27 min 38 sec) 
Heartbeat CPU 0 instructions: 590000001 cycles: 865013829 heartbeat IPC: 0.547262 cumulative IPC: 0.618736 (Simulation time: 0 hr 28 min 3 sec) 
Heartbeat CPU 0 instructions: 600000000 cycles: 883270782 heartbeat IPC: 0.547736 cumulative IPC: 0.617136 (Simulation time: 0 hr 28 min 28 sec) 
Finished CPU 0 instructions: 500000002 cycles: 810194302 cumulative IPC: 0.617136 (Simulation time: 0 hr 28 min 28 sec) 

CPU 0 Branch Prediction Accuracy: 99.5931% MPKI: 0.08288
Number of Branches: 10184133 Number of Mispredictions: 41440
Number of LOAD Instructions: 261155957
Number of LOAD Instructions (ROI): 261155957
Number of STORE Instructions: 57884062
Number of STORE Instructions (ROI): 57884062
Total Destination Memory Operands: 83293336
Total Destination Memory Operands (ROI): 83293336
Total Source Memory Operands: 261155957
Total Source Memory Operands (ROI): 261155957
Number of DEPENDED LOADS: 22256955
Number of DEPENDED LOADS (ROI): 22256955
Number of SQ_ADDED: 83293300
Number of SQ_ADDED (ROI): 83293300
Number of LQ_ADDED: 1777036154
Number of LQ_ADDED (ROI): 1777036154
Number of Instructions read from trace: 600000257

ChampSim completed all CPUs

Region of Interest Statistics

CPU 0 cumulative IPC: 0.617136 instructions: 500000002 cycles: 810194302
ITLB TOTAL     ACCESS:   94776088  HIT:   94776050  MISS:         38
ITLB LOAD      ACCESS:   94776088  HIT:   94776050  MISS:         38
ITLB RFO       ACCESS:          0  HIT:          0  MISS:          0
ITLB PREFETCH  ACCESS:          0  HIT:          0  MISS:          0
ITLB WRITEBACK ACCESS:          0  HIT:          0  MISS:          0
ITLB PREFETCH  REQUESTED:          0  ISSUED:          0  USEFUL:          0  USELESS:          0
ITLB TOTAL MSHR MERGED:         93
ITLB LOAD MSHR MERGED:         93
ITLB RFO MSHR MERGED:          0
ITLB PREFETCH MSHR MERGED:          0
ITLB WRITEBACK MSHR MERGED:          0
ITLB TOTAL ACCESSES:   94776181 HITS:   94776050 MISSES:        131
ITLB LOAD ACCESSES:   94776181 HITS:   94776050 MISSES:        131
ITLB RFO ACCESSES:          0 HITS:          0 MISSES:          0
ITLB PREFETCH ACCESSES:          0 HITS:          0 MISSES:          0
ITLB WRITEBACK ACCESSES:          0 HITS:          0 MISSES:          0
ITLB RQ ACCESS:  500000001
ITLB RQ TO_CACHE:   94776182
ITLB RQ MERGED:  405223819
ITLB RQ FORWARD:          0
ITLB WQ ACCESS:          0
ITLB WQ TO_CACHE:          0
ITLB WQ MERGED:          0
ITLB WQ FORWARD:          0
DTLB TOTAL     ACCESS:  149211809  HIT:  148614848  MISS:     596961
DTLB LOAD      ACCESS:  107339674  HIT:  106742724  MISS:     596950
DTLB RFO       ACCESS:   41872135  HIT:   41872124  MISS:         11
DTLB PREFETCH  ACCESS:          0  HIT:          0  MISS:          0
DTLB WRITEBACK ACCESS:          0  HIT:          0  MISS:          0
DTLB PREFETCH  REQUESTED:          0  ISSUED:          0  USEFUL:          0  USELESS:          0
DTLB TOTAL MSHR MERGED:     134130
DTLB LOAD MSHR MERGED:     134130
DTLB RFO MSHR MERGED:          0
DTLB PREFETCH MSHR MERGED:          0
DTLB WRITEBACK MSHR MERGED:          0
DTLB TOTAL ACCESSES:  149345939 HITS:  148614848 MISSES:     731091
DTLB LOAD ACCESSES:  107473804 HITS:  106742724 MISSES:     731080
DTLB RFO ACCESSES:   41872135 HITS:   41872124 MISSES:         11
DTLB PREFETCH ACCESSES:          0 HITS:          0 MISSES:          0
DTLB WRITEBACK ACCESSES:          0 HITS:          0 MISSES:          0
DTLB RQ ACCESS:  259758941
DTLB RQ TO_CACHE:  149345939
DTLB RQ MERGED:  110413002
DTLB RQ FORWARD:          0
DTLB WQ ACCESS:          0
DTLB WQ TO_CACHE:          0
DTLB WQ MERGED:          0
DTLB WQ FORWARD:          0
L1D TOTAL     ACCESS:  261117569  HIT:  245715677  MISS:   15401892
L1D LOAD      ACCESS:  118069097  HIT:  112571031  MISS:    5498066
L1D RFO       ACCESS:   68946742  HIT:   68932335  MISS:      14407
L1D PREFETCH  ACCESS:   74101730  HIT:   64212311  MISS:    9889419
L1D WRITEBACK ACCESS:          0  HIT:          0  MISS:          0
L1D PREFETCH  REQUESTED:  120654192  ISSUED:  119100560  USEFUL:    8014509  USELESS:    1874932
L1D TOTAL MSHR MERGED:   16484368
L1D LOAD MSHR MERGED:    4994246
L1D RFO MSHR MERGED:      21834
L1D PREFETCH MSHR MERGED:   11468288
L1D WRITEBACK MSHR MERGED:          0
L1D TOTAL ACCESSES:  277712059 HITS:  245825799 MISSES:   31886260
L1D LOAD ACCESSES:  120661718 HITS:  112578557 MISSES:    8083161
L1D RFO ACCESSES:   68968575 HITS:   68932335 MISSES:      36240
L1D PREFETCH ACCESSES:   88081766 HITS:   64314907 MISSES:   23766859
L1D WRITEBACK ACCESSES:          0 HITS:          0 MISSES:          0
L1D RQ ACCESS:  190684625
L1D RQ TO_CACHE:  120654192
L1D RQ MERGED:   70022907
L1D RQ FORWARD:          0
L1D WQ ACCESS:   69074336
L1D WQ TO_CACHE:   68968577
L1D WQ MERGED:     105759
L1D WQ FORWARD:     110122
L1I TOTAL     ACCESS:  121667688  HIT:  121666615  MISS:       1073
L1I LOAD      ACCESS:  121667688  HIT:  121666615  MISS:       1073
L1I RFO       ACCESS:          0  HIT:          0  MISS:          0
L1I PREFETCH  ACCESS:          0  HIT:          0  MISS:          0
L1I WRITEBACK ACCESS:          0  HIT:          0  MISS:          0
L1I PREFETCH  REQUESTED:          0  ISSUED:          0  USEFUL:          0  USELESS:          0
L1I TOTAL MSHR MERGED:       1105
L1I LOAD MSHR MERGED:       1105
L1I RFO MSHR MERGED:          0
L1I PREFETCH MSHR MERGED:          0
L1I WRITEBACK MSHR MERGED:          0
L1I TOTAL ACCESSES:  121668793 HITS:  121666615 MISSES:       2178
L1I LOAD ACCESSES:  121668793 HITS:  121666615 MISSES:       2178
L1I RFO ACCESSES:          0 HITS:          0 MISSES:          0
L1I PREFETCH ACCESSES:          0 HITS:          0 MISSES:          0
L1I WRITEBACK ACCESSES:          0 HITS:          0 MISSES:          0
L1I RQ ACCESS:  500000000
L1I RQ TO_CACHE:  121668793
L1I RQ MERGED:  378331207
L1I RQ FORWARD:          0
L1I WQ ACCESS:          0
L1I WQ TO_CACHE:          0
L1I WQ MERGED:          0
L1I WQ FORWARD:          0
L2C TOTAL     ACCESS:   22472901  HIT:    9149825  MISS:   13323076
L2C LOAD      ACCESS:    3089953  HIT:     415527  MISS:    2674426
L2C RFO       ACCESS:      14406  HIT:      13992  MISS:        414
L2C PREFETCH  ACCESS:   12738577  HIT:    2092167  MISS:   10646410
L2C WRITEBACK ACCESS:    6629965  HIT:    6628139  MISS:       1826
L2C PREFETCH  REQUESTED:     692722  ISSUED:     692722  USEFUL:     185271  USELESS:   10461935
L2C TOTAL MSHR MERGED:      71370
L2C LOAD MSHR MERGED:      22487
L2C RFO MSHR MERGED:          0
L2C PREFETCH MSHR MERGED:      48883
L2C WRITEBACK MSHR MERGED:          0
L2C TOTAL ACCESSES:   22685733 HITS:    9149879 MISSES:   13535854
L2C LOAD ACCESSES:    3089988 HITS:     415562 MISSES:    2674426
L2C RFO ACCESSES:      14406 HITS:      13992 MISSES:        414
L2C PREFETCH ACCESSES:   12951374 HITS:    2092186 MISSES:   10859188
L2C WRITEBACK ACCESSES:    6629965 HITS:    6628139 MISSES:       1826
L2C RQ ACCESS:    3104394
L2C RQ TO_CACHE:    3104359
L2C RQ MERGED:          0
L2C RQ FORWARD:          0
L2C WQ ACCESS:    6629965
L2C WQ TO_CACHE:    6629965
L2C WQ MERGED:          0
L2C WQ FORWARD:         54
LLC TOTAL     ACCESS:   20031017  HIT:    1688393  MISS:   18342624
LLC LOAD      ACCESS:    2651939  HIT:     292618  MISS:    2359321
LLC RFO       ACCESS:        414  HIT:         20  MISS:        394
LLC PREFETCH  ACCESS:   10787397  HIT:     100186  MISS:   10687211
LLC WRITEBACK ACCESS:    6591267  HIT:    1295569  MISS:    5295698
LLC PREFETCH  REQUESTED:          0  ISSUED:          0  USEFUL:      47667  USELESS:   10639612
LLC TOTAL MSHR MERGED:      21494
LLC LOAD MSHR MERGED:       9878
LLC RFO MSHR MERGED:          0
LLC PREFETCH MSHR MERGED:      11616
LLC WRITEBACK MSHR MERGED:          0
LLC TOTAL ACCESSES:   20052514 HITS:    1688395 MISSES:   18364119
LLC LOAD ACCESSES:    2651939 HITS:     292618 MISSES:    2359321
LLC RFO ACCESSES:        414 HITS:         20 MISSES:        394
LLC PREFETCH ACCESSES:   10808894 HITS:     100188 MISSES:   10708706
LLC WRITEBACK ACCESSES:    6591267 HITS:    1295569 MISSES:    5295698
LLC 0 RQ ACCESS:    2652353
LLC 0 RQ TO_CACHE:    2652353
LLC 0 RQ MERGED:          0
LLC 0 RQ FORWARD:          0
LLC WQ ACCESS:    6591268
LLC WQ TO_CACHE:    6591268
LLC WQ MERGED:          0
LLC WQ FORWARD:          2
Major fault: 0 Minor fault: 183991
CPU 0 L1D next line prefetcher final stats
CPU 0 L2C PC-based stride prefetcher final stats
All Misses: 21217503
All Hits: 1744560
SD Algo Stats - Switches: 0 SRR-Repls: 2422093 BRR-Repls: 0

DRAM Statistics
 CHANNEL 0
 RQ ROW_BUFFER_HIT:    7227883  ROW_BUFFER_MISS:    5819043
 DBUS_CONGESTED:   11785644
 WQ ROW_BUFFER_HIT:    2216462  ROW_BUFFER_MISS:    4366768  FULL:          0

 AVG_CONGESTED_CYCLE: 13
LOADS RETIRED: 204440772
INSTR RETIRED: 500000000
