
*** ChampSim Multicore Out-of-Order Simulator ***

Warmup Instructions: 100000000
Simulation Instructions: 500000000
Number of CPUs: 1
LLC sets: 2048
LLC ways: 16
Clean RRIP Policies: 2203030022030300 Dirty RRIP Policies: 1203030012030300 PSEL Width: 10 Track Set: 4294967295 PSEL Mask: 1 Demote Mask: 2102021421020214DS Algo: 0Window size: 0
Off-chip DRAM Size: 4096 MB Channels: 1 Width: 64-bit Data Rate: 1600 MT/s

CPU 0 runs /mnt/beegfs/iconst01/spec2017/Mcf.trace.gz
NOT SORTED
TRACE STRING: /mnt/beegfs/iconst01/spec2017/Mcf.trace.gz
SORTED
TRACE STRING: /mnt/beegfs/iconst01/spec2017/Mcf.trace.gz
INITIAL
TRACE STRING: /mnt/beegfs/iconst01/spec2017/Mcf.trace.gz

champsim_seed used: 278

CPU 0 L1D next line prefetcher
CPU 0 L2C IP-based stride prefetcher
Initialize DRRIP state
Assign rand_sets[0]: 454  LLC: 2048
rand_sets[0]: 454
Assign rand_sets[1]: 1662  LLC: 2048
rand_sets[1]: 1662
Assign rand_sets[2]: 1921  LLC: 2048
rand_sets[2]: 1921
Assign rand_sets[3]: 1131  LLC: 2048
rand_sets[3]: 1131
Assign rand_sets[4]: 331  LLC: 2048
rand_sets[4]: 331
Assign rand_sets[5]: 1531  LLC: 2048
rand_sets[5]: 1531
Assign rand_sets[6]: 482  LLC: 2048
rand_sets[6]: 482
Assign rand_sets[7]: 1275  LLC: 2048
rand_sets[7]: 1275
Assign rand_sets[8]: 1876  LLC: 2048
rand_sets[8]: 1876
Assign rand_sets[9]: 2038  LLC: 2048
rand_sets[9]: 2038
Assign rand_sets[10]: 701  LLC: 2048
rand_sets[10]: 701
Assign rand_sets[11]: 479  LLC: 2048
rand_sets[11]: 479
Assign rand_sets[12]: 892  LLC: 2048
rand_sets[12]: 892
Assign rand_sets[13]: 1820  LLC: 2048
rand_sets[13]: 1820
Assign rand_sets[14]: 1505  LLC: 2048
rand_sets[14]: 1505
Assign rand_sets[15]: 1159  LLC: 2048
rand_sets[15]: 1159
Assign rand_sets[16]: 513  LLC: 2048
rand_sets[16]: 513
Assign rand_sets[17]: 703  LLC: 2048
rand_sets[17]: 703
Assign rand_sets[18]: 561  LLC: 2048
rand_sets[18]: 561
Assign rand_sets[19]: 990  LLC: 2048
rand_sets[19]: 990
Assign rand_sets[20]: 342  LLC: 2048
rand_sets[20]: 342
Assign rand_sets[21]: 882  LLC: 2048
rand_sets[21]: 882
Assign rand_sets[22]: 15  LLC: 2048
rand_sets[22]: 15
Assign rand_sets[23]: 71  LLC: 2048
rand_sets[23]: 71
Assign rand_sets[24]: 1127  LLC: 2048
rand_sets[24]: 1127
Assign rand_sets[25]: 1382  LLC: 2048
rand_sets[25]: 1382
Assign rand_sets[26]: 647  LLC: 2048
rand_sets[26]: 647
Assign rand_sets[27]: 857  LLC: 2048
rand_sets[27]: 857
Assign rand_sets[28]: 1450  LLC: 2048
rand_sets[28]: 1450
Assign rand_sets[29]: 1160  LLC: 2048
rand_sets[29]: 1160
Assign rand_sets[30]: 1852  LLC: 2048
rand_sets[30]: 1852
Assign rand_sets[31]: 1881  LLC: 2048
rand_sets[31]: 1881
Assign rand_sets[32]: 1770  LLC: 2048
rand_sets[32]: 1770
Assign rand_sets[33]: 1622  LLC: 2048
rand_sets[33]: 1622
Assign rand_sets[34]: 275  LLC: 2048
rand_sets[34]: 275
Assign rand_sets[35]: 635  LLC: 2048
rand_sets[35]: 635
Assign rand_sets[36]: 466  LLC: 2048
rand_sets[36]: 466
Assign rand_sets[37]: 1413  LLC: 2048
rand_sets[37]: 1413
Assign rand_sets[38]: 417  LLC: 2048
rand_sets[38]: 417
Assign rand_sets[39]: 472  LLC: 2048
rand_sets[39]: 472
Assign rand_sets[40]: 1340  LLC: 2048
rand_sets[40]: 1340
Assign rand_sets[41]: 852  LLC: 2048
rand_sets[41]: 852
Assign rand_sets[42]: 1365  LLC: 2048
rand_sets[42]: 1365
Assign rand_sets[43]: 47  LLC: 2048
rand_sets[43]: 47
Assign rand_sets[44]: 823  LLC: 2048
rand_sets[44]: 823
Assign rand_sets[45]: 686  LLC: 2048
rand_sets[45]: 686
Assign rand_sets[46]: 1637  LLC: 2048
rand_sets[46]: 1637
Assign rand_sets[47]: 1115  LLC: 2048
rand_sets[47]: 1115
Assign rand_sets[48]: 986  LLC: 2048
rand_sets[48]: 986
Assign rand_sets[49]: 258  LLC: 2048
rand_sets[49]: 258
Assign rand_sets[50]: 633  LLC: 2048
rand_sets[50]: 633
Assign rand_sets[51]: 920  LLC: 2048
rand_sets[51]: 920
Assign rand_sets[52]: 204  LLC: 2048
rand_sets[52]: 204
Assign rand_sets[53]: 227  LLC: 2048
rand_sets[53]: 227
Assign rand_sets[54]: 1818  LLC: 2048
rand_sets[54]: 1818
Assign rand_sets[55]: 886  LLC: 2048
rand_sets[55]: 886
Assign rand_sets[56]: 1422  LLC: 2048
rand_sets[56]: 1422
Assign rand_sets[57]: 607  LLC: 2048
rand_sets[57]: 607
Assign rand_sets[58]: 217  LLC: 2048
rand_sets[58]: 217
Assign rand_sets[59]: 1945  LLC: 2048
rand_sets[59]: 1945
Assign rand_sets[60]: 143  LLC: 2048
rand_sets[60]: 143
Assign rand_sets[61]: 1311  LLC: 2048
rand_sets[61]: 1311
Assign rand_sets[62]: 319  LLC: 2048
rand_sets[62]: 319
Assign rand_sets[63]: 1846  LLC: 2048
rand_sets[63]: 1846
 CLEAN-RRIP-POLICY-1: 2-2-0-3-0-3-0-0- CLEAN-RRIP-POLICY-2: 2-2-0-3-0-3-0-0-
 DIRTY-RRIP-POLICY-1: 1-2-0-3-0-3-0-0- DIRTY-RRIP-POLICY-2: 1-2-0-3-0-3-0-0-
 PSEL width: 10
Heartbeat CPU 0 instructions: 10000002 cycles: 6249027 heartbeat IPC: 1.60025 cumulative IPC: 1.60025 (Simulation time: 0 hr 0 min 13 sec) 
Heartbeat CPU 0 instructions: 20000000 cycles: 12471380 heartbeat IPC: 1.60711 cumulative IPC: 1.60367 (Simulation time: 0 hr 0 min 26 sec) 
Heartbeat CPU 0 instructions: 30000000 cycles: 18683300 heartbeat IPC: 1.60981 cumulative IPC: 1.60571 (Simulation time: 0 hr 0 min 39 sec) 
Heartbeat CPU 0 instructions: 40000000 cycles: 24895121 heartbeat IPC: 1.60983 cumulative IPC: 1.60674 (Simulation time: 0 hr 0 min 52 sec) 
Heartbeat CPU 0 instructions: 50000003 cycles: 31108772 heartbeat IPC: 1.60936 cumulative IPC: 1.60726 (Simulation time: 0 hr 1 min 5 sec) 
Heartbeat CPU 0 instructions: 60000000 cycles: 37306014 heartbeat IPC: 1.61362 cumulative IPC: 1.60832 (Simulation time: 0 hr 1 min 18 sec) 
Heartbeat CPU 0 instructions: 70000003 cycles: 43525683 heartbeat IPC: 1.6078 cumulative IPC: 1.60825 (Simulation time: 0 hr 1 min 31 sec) 
Heartbeat CPU 0 instructions: 80000000 cycles: 49757271 heartbeat IPC: 1.60473 cumulative IPC: 1.60781 (Simulation time: 0 hr 1 min 44 sec) 
Heartbeat CPU 0 instructions: 90000000 cycles: 55987435 heartbeat IPC: 1.60509 cumulative IPC: 1.6075 (Simulation time: 0 hr 1 min 58 sec) 
Heartbeat CPU 0 instructions: 100000000 cycles: 62207293 heartbeat IPC: 1.60775 cumulative IPC: 1.60753 (Simulation time: 0 hr 2 min 11 sec) 

Warmup complete CPU 0 instructions: 100000001 cycles: 62207294 (Simulation time: 0 hr 2 min 11 sec) 

Heartbeat CPU 0 instructions: 110000000 cycles: 87431179 heartbeat IPC: 0.39645 cumulative IPC: 0.39645 (Simulation time: 0 hr 2 min 36 sec) 
Heartbeat CPU 0 instructions: 120000000 cycles: 112715280 heartbeat IPC: 0.395505 cumulative IPC: 0.395977 (Simulation time: 0 hr 3 min 1 sec) 
Heartbeat CPU 0 instructions: 130000000 cycles: 138051798 heartbeat IPC: 0.394687 cumulative IPC: 0.395546 (Simulation time: 0 hr 3 min 27 sec) 
Heartbeat CPU 0 instructions: 140000000 cycles: 163295773 heartbeat IPC: 0.396134 cumulative IPC: 0.395693 (Simulation time: 0 hr 3 min 52 sec) 
Heartbeat CPU 0 instructions: 150000003 cycles: 188403796 heartbeat IPC: 0.398279 cumulative IPC: 0.396208 (Simulation time: 0 hr 4 min 18 sec) 
Heartbeat CPU 0 instructions: 160000000 cycles: 213779035 heartbeat IPC: 0.394085 cumulative IPC: 0.395852 (Simulation time: 0 hr 4 min 43 sec) 
Heartbeat CPU 0 instructions: 170000001 cycles: 238983896 heartbeat IPC: 0.396749 cumulative IPC: 0.39598 (Simulation time: 0 hr 5 min 9 sec) 
Heartbeat CPU 0 instructions: 180000000 cycles: 264191258 heartbeat IPC: 0.396709 cumulative IPC: 0.396071 (Simulation time: 0 hr 5 min 34 sec) 
Heartbeat CPU 0 instructions: 190000003 cycles: 289345223 heartbeat IPC: 0.397552 cumulative IPC: 0.396235 (Simulation time: 0 hr 6 min 0 sec) 
Heartbeat CPU 0 instructions: 200000000 cycles: 314533286 heartbeat IPC: 0.397013 cumulative IPC: 0.396313 (Simulation time: 0 hr 6 min 25 sec) 
Heartbeat CPU 0 instructions: 210000003 cycles: 339773969 heartbeat IPC: 0.396186 cumulative IPC: 0.396301 (Simulation time: 0 hr 6 min 50 sec) 
Heartbeat CPU 0 instructions: 220000000 cycles: 365242239 heartbeat IPC: 0.392645 cumulative IPC: 0.395994 (Simulation time: 0 hr 7 min 16 sec) 
Heartbeat CPU 0 instructions: 230000002 cycles: 390329640 heartbeat IPC: 0.398607 cumulative IPC: 0.396194 (Simulation time: 0 hr 7 min 42 sec) 
Heartbeat CPU 0 instructions: 240000000 cycles: 415743610 heartbeat IPC: 0.393484 cumulative IPC: 0.395999 (Simulation time: 0 hr 8 min 7 sec) 
Heartbeat CPU 0 instructions: 250000000 cycles: 440965435 heartbeat IPC: 0.396482 cumulative IPC: 0.396031 (Simulation time: 0 hr 8 min 33 sec) 
Heartbeat CPU 0 instructions: 260000000 cycles: 466142378 heartbeat IPC: 0.397189 cumulative IPC: 0.396103 (Simulation time: 0 hr 8 min 58 sec) 
Heartbeat CPU 0 instructions: 270000001 cycles: 491416746 heartbeat IPC: 0.395658 cumulative IPC: 0.396077 (Simulation time: 0 hr 9 min 24 sec) 
Heartbeat CPU 0 instructions: 280000000 cycles: 516604164 heartbeat IPC: 0.397024 cumulative IPC: 0.396129 (Simulation time: 0 hr 9 min 49 sec) 
Heartbeat CPU 0 instructions: 290000001 cycles: 541843249 heartbeat IPC: 0.396211 cumulative IPC: 0.396134 (Simulation time: 0 hr 10 min 15 sec) 
Heartbeat CPU 0 instructions: 300000000 cycles: 567245708 heartbeat IPC: 0.393663 cumulative IPC: 0.396009 (Simulation time: 0 hr 10 min 41 sec) 
Heartbeat CPU 0 instructions: 310000003 cycles: 592282197 heartbeat IPC: 0.399417 cumulative IPC: 0.39617 (Simulation time: 0 hr 11 min 6 sec) 
Heartbeat CPU 0 instructions: 320000000 cycles: 617706521 heartbeat IPC: 0.393324 cumulative IPC: 0.39604 (Simulation time: 0 hr 11 min 32 sec) 
Heartbeat CPU 0 instructions: 330000003 cycles: 642817777 heartbeat IPC: 0.398228 cumulative IPC: 0.396135 (Simulation time: 0 hr 11 min 57 sec) 
Heartbeat CPU 0 instructions: 340000000 cycles: 668257544 heartbeat IPC: 0.393085 cumulative IPC: 0.396007 (Simulation time: 0 hr 12 min 23 sec) 
Heartbeat CPU 0 instructions: 350000002 cycles: 693655161 heartbeat IPC: 0.393738 cumulative IPC: 0.395916 (Simulation time: 0 hr 12 min 48 sec) 
Heartbeat CPU 0 instructions: 360000000 cycles: 719208665 heartbeat IPC: 0.391336 cumulative IPC: 0.395737 (Simulation time: 0 hr 13 min 14 sec) 
Heartbeat CPU 0 instructions: 370000000 cycles: 744529393 heartbeat IPC: 0.394933 cumulative IPC: 0.395708 (Simulation time: 0 hr 13 min 39 sec) 
Heartbeat CPU 0 instructions: 380000000 cycles: 769664170 heartbeat IPC: 0.397855 cumulative IPC: 0.395784 (Simulation time: 0 hr 14 min 4 sec) 
Heartbeat CPU 0 instructions: 390000002 cycles: 794815121 heartbeat IPC: 0.397599 cumulative IPC: 0.395846 (Simulation time: 0 hr 14 min 29 sec) 
Heartbeat CPU 0 instructions: 400000000 cycles: 820137820 heartbeat IPC: 0.394903 cumulative IPC: 0.395815 (Simulation time: 0 hr 14 min 54 sec) 
Heartbeat CPU 0 instructions: 410000002 cycles: 845366914 heartbeat IPC: 0.396368 cumulative IPC: 0.395832 (Simulation time: 0 hr 15 min 19 sec) 
Heartbeat CPU 0 instructions: 420000000 cycles: 870378113 heartbeat IPC: 0.399821 cumulative IPC: 0.395956 (Simulation time: 0 hr 15 min 45 sec) 
Heartbeat CPU 0 instructions: 430000000 cycles: 895660921 heartbeat IPC: 0.395526 cumulative IPC: 0.395943 (Simulation time: 0 hr 16 min 10 sec) 
Heartbeat CPU 0 instructions: 440000000 cycles: 920640694 heartbeat IPC: 0.400324 cumulative IPC: 0.39607 (Simulation time: 0 hr 16 min 35 sec) 
Heartbeat CPU 0 instructions: 450000000 cycles: 946176626 heartbeat IPC: 0.391605 cumulative IPC: 0.395941 (Simulation time: 0 hr 17 min 1 sec) 
Heartbeat CPU 0 instructions: 460000000 cycles: 971606172 heartbeat IPC: 0.393243 cumulative IPC: 0.395866 (Simulation time: 0 hr 17 min 27 sec) 
Heartbeat CPU 0 instructions: 470000001 cycles: 996823476 heartbeat IPC: 0.396553 cumulative IPC: 0.395884 (Simulation time: 0 hr 17 min 52 sec) 
Heartbeat CPU 0 instructions: 480000000 cycles: 1022222214 heartbeat IPC: 0.39372 cumulative IPC: 0.395827 (Simulation time: 0 hr 18 min 18 sec) 
Heartbeat CPU 0 instructions: 490000000 cycles: 1047753162 heartbeat IPC: 0.391681 cumulative IPC: 0.39572 (Simulation time: 0 hr 18 min 44 sec) 
Heartbeat CPU 0 instructions: 500000000 cycles: 1073548966 heartbeat IPC: 0.38766 cumulative IPC: 0.395514 (Simulation time: 0 hr 19 min 9 sec) 
Heartbeat CPU 0 instructions: 510000003 cycles: 1099231808 heartbeat IPC: 0.389365 cumulative IPC: 0.395362 (Simulation time: 0 hr 19 min 35 sec) 
Heartbeat CPU 0 instructions: 520000000 cycles: 1125077928 heartbeat IPC: 0.386905 cumulative IPC: 0.395156 (Simulation time: 0 hr 20 min 0 sec) 
Heartbeat CPU 0 instructions: 530000003 cycles: 1150961762 heartbeat IPC: 0.386342 cumulative IPC: 0.394947 (Simulation time: 0 hr 20 min 26 sec) 
Heartbeat CPU 0 instructions: 540000000 cycles: 1176768490 heartbeat IPC: 0.387496 cumulative IPC: 0.394774 (Simulation time: 0 hr 20 min 51 sec) 
Heartbeat CPU 0 instructions: 550000000 cycles: 1202516913 heartbeat IPC: 0.388373 cumulative IPC: 0.39463 (Simulation time: 0 hr 21 min 17 sec) 
Heartbeat CPU 0 instructions: 560000000 cycles: 1228614704 heartbeat IPC: 0.383174 cumulative IPC: 0.394373 (Simulation time: 0 hr 21 min 42 sec) 
Heartbeat CPU 0 instructions: 570000001 cycles: 1254658509 heartbeat IPC: 0.383969 cumulative IPC: 0.394146 (Simulation time: 0 hr 22 min 8 sec) 
Heartbeat CPU 0 instructions: 580000000 cycles: 1280696857 heartbeat IPC: 0.384049 cumulative IPC: 0.39393 (Simulation time: 0 hr 22 min 34 sec) 
Heartbeat CPU 0 instructions: 590000000 cycles: 1306902394 heartbeat IPC: 0.381599 cumulative IPC: 0.393671 (Simulation time: 0 hr 22 min 59 sec) 
Heartbeat CPU 0 instructions: 600000000 cycles: 1333186985 heartbeat IPC: 0.380451 cumulative IPC: 0.393397 (Simulation time: 0 hr 23 min 25 sec) 
Finished CPU 0 instructions: 500000003 cycles: 1270979704 cumulative IPC: 0.393397 (Simulation time: 0 hr 23 min 25 sec) 

CPU 0 Branch Prediction Accuracy: 91.1342% MPKI: 18.7968
Number of Branches: 106006945 Number of Mispredictions: 9398408
Number of LOAD Instructions: 207894007
Number of LOAD Instructions (ROI): 207894007
Number of STORE Instructions: 54285997
Number of STORE Instructions (ROI): 54285997
Total Destination Memory Operands: 57463404
Total Destination Memory Operands (ROI): 57463404
Total Source Memory Operands: 207894007
Total Source Memory Operands (ROI): 207894007
Number of DEPENDED LOADS: 18113273
Number of DEPENDED LOADS (ROI): 18113273
Number of SQ_ADDED: 57463404
Number of SQ_ADDED (ROI): 57463404
Number of LQ_ADDED: 209265175
Number of LQ_ADDED (ROI): 209265175
Number of Instructions read from trace: 600000039

ChampSim completed all CPUs

Region of Interest Statistics

CPU 0 cumulative IPC: 0.393397 instructions: 500000003 cycles: 1270979704
ITLB TOTAL     ACCESS:   96409812  HIT:   96409812  MISS:          0
ITLB LOAD      ACCESS:   96409812  HIT:   96409812  MISS:          0
ITLB RFO       ACCESS:          0  HIT:          0  MISS:          0
ITLB PREFETCH  ACCESS:          0  HIT:          0  MISS:          0
ITLB WRITEBACK ACCESS:          0  HIT:          0  MISS:          0
ITLB PREFETCH  REQUESTED:          0  ISSUED:          0  USEFUL:          0  USELESS:          0
ITLB TOTAL MSHR MERGED:          0
ITLB LOAD MSHR MERGED:          0
ITLB RFO MSHR MERGED:          0
ITLB PREFETCH MSHR MERGED:          0
ITLB WRITEBACK MSHR MERGED:          0
ITLB TOTAL ACCESSES:   96409812 HITS:   96409812 MISSES:          0
ITLB LOAD ACCESSES:   96409812 HITS:   96409812 MISSES:          0
ITLB RFO ACCESSES:          0 HITS:          0 MISSES:          0
ITLB PREFETCH ACCESSES:          0 HITS:          0 MISSES:          0
ITLB WRITEBACK ACCESSES:          0 HITS:          0 MISSES:          0
ITLB RQ ACCESS:  499999980
ITLB RQ TO_CACHE:   96409812
ITLB RQ MERGED:  403590168
ITLB RQ FORWARD:          0
ITLB WQ ACCESS:          0
ITLB WQ TO_CACHE:          0
ITLB WQ MERGED:          0
ITLB WQ FORWARD:          0
DTLB TOTAL     ACCESS:  155163029  HIT:  150250880  MISS:    4912149
DTLB LOAD      ACCESS:  117714812  HIT:  113324337  MISS:    4390475
DTLB RFO       ACCESS:   37448217  HIT:   36926543  MISS:     521674
DTLB PREFETCH  ACCESS:          0  HIT:          0  MISS:          0
DTLB WRITEBACK ACCESS:          0  HIT:          0  MISS:          0
DTLB PREFETCH  REQUESTED:          0  ISSUED:          0  USEFUL:          0  USELESS:          0
DTLB TOTAL MSHR MERGED:     451206
DTLB LOAD MSHR MERGED:     159716
DTLB RFO MSHR MERGED:     291490
DTLB PREFETCH MSHR MERGED:          0
DTLB WRITEBACK MSHR MERGED:          0
DTLB TOTAL ACCESSES:  155614235 HITS:  150250880 MISSES:    5363355
DTLB LOAD ACCESSES:  117874528 HITS:  113324337 MISSES:    4550191
DTLB RFO ACCESSES:   37739707 HITS:   36926543 MISSES:     813164
DTLB PREFETCH ACCESSES:          0 HITS:          0 MISSES:          0
DTLB WRITEBACK ACCESSES:          0 HITS:          0 MISSES:          0
DTLB RQ ACCESS:  205969903
DTLB RQ TO_CACHE:  155614235
DTLB RQ MERGED:   50355668
DTLB RQ FORWARD:          0
DTLB WQ ACCESS:          0
DTLB WQ TO_CACHE:          0
DTLB WQ MERGED:          0
DTLB WQ FORWARD:          0
L1D TOTAL     ACCESS:  277190380  HIT:  242368334  MISS:   34822046
L1D LOAD      ACCESS:  125424504  HIT:  107797029  MISS:   17627475
L1D RFO       ACCESS:   41133142  HIT:   38821326  MISS:    2311816
L1D PREFETCH  ACCESS:  110632734  HIT:   95749979  MISS:   14882755
L1D WRITEBACK ACCESS:          0  HIT:          0  MISS:          0
L1D PREFETCH  REQUESTED:  126262219  ISSUED:  124743089  USEFUL:    2717017  USELESS:   12165763
L1D TOTAL MSHR MERGED:    8459169
L1D LOAD MSHR MERGED:    1514445
L1D RFO MSHR MERGED:    3770257
L1D PREFETCH MSHR MERGED:    3174467
L1D WRITEBACK MSHR MERGED:          0
L1D TOTAL ACCESSES:  285736818 HITS:  242455603 MISSES:   43281215
L1D LOAD ACCESSES:  126262251 HITS:  107797061 MISSES:   18465190
L1D RFO ACCESSES:   44902902 HITS:   38821326 MISSES:    6081576
L1D PREFETCH ACCESSES:  114571665 HITS:   95837216 MISSES:   18734449
L1D WRITEBACK ACCESSES:          0 HITS:          0 MISSES:          0
L1D RQ ACCESS:  158423022
L1D RQ TO_CACHE:  126262219
L1D RQ MERGED:   32160771
L1D RQ FORWARD:          0
L1D WQ ACCESS:   47546882
L1D WQ TO_CACHE:   44902902
L1D WQ MERGED:    2643980
L1D WQ FORWARD:      87269
L1I TOTAL     ACCESS:  132818759  HIT:  132818759  MISS:          0
L1I LOAD      ACCESS:  132818759  HIT:  132818759  MISS:          0
L1I RFO       ACCESS:          0  HIT:          0  MISS:          0
L1I PREFETCH  ACCESS:          0  HIT:          0  MISS:          0
L1I WRITEBACK ACCESS:          0  HIT:          0  MISS:          0
L1I PREFETCH  REQUESTED:          0  ISSUED:          0  USEFUL:          0  USELESS:          0
L1I TOTAL MSHR MERGED:          0
L1I LOAD MSHR MERGED:          0
L1I RFO MSHR MERGED:          0
L1I PREFETCH MSHR MERGED:          0
L1I WRITEBACK MSHR MERGED:          0
L1I TOTAL ACCESSES:  132818759 HITS:  132818759 MISSES:          0
L1I LOAD ACCESSES:  132818759 HITS:  132818759 MISSES:          0
L1I RFO ACCESSES:          0 HITS:          0 MISSES:          0
L1I PREFETCH ACCESSES:          0 HITS:          0 MISSES:          0
L1I WRITEBACK ACCESSES:          0 HITS:          0 MISSES:          0
L1I RQ ACCESS:  499999980
L1I RQ TO_CACHE:  132818759
L1I RQ MERGED:  367181221
L1I RQ FORWARD:          0
L1I WQ ACCESS:          0
L1I WQ TO_CACHE:          0
L1I WQ MERGED:          0
L1I WQ FORWARD:          0
L2C TOTAL     ACCESS:   39600142  HIT:   20631060  MISS:   18969082
L2C LOAD      ACCESS:   16950685  HIT:    8568041  MISS:    8382644
L2C RFO       ACCESS:    2311270  HIT:     630829  MISS:    1680441
L2C PREFETCH  ACCESS:   17115775  HIT:    8213531  MISS:    8902244
L2C WRITEBACK ACCESS:    3222412  HIT:    3218659  MISS:       3753
L2C PREFETCH  REQUESTED:    2889941  ISSUED:    2889941  USEFUL:    1307397  USELESS:    7594586
L2C TOTAL MSHR MERGED:     530576
L2C LOAD MSHR MERGED:      89607
L2C RFO MSHR MERGED:          0
L2C PREFETCH MSHR MERGED:     440969
L2C WRITEBACK MSHR MERGED:          0
L2C TOTAL ACCESSES:   40261332 HITS:   20631219 MISSES:   19630113
L2C LOAD ACCESSES:   16950745 HITS:    8568101 MISSES:    8382644
L2C RFO ACCESSES:    2311319 HITS:     630878 MISSES:    1680441
L2C PREFETCH ACCESSES:   17776856 HITS:    8213581 MISSES:    9563275
L2C WRITEBACK ACCESSES:    3222412 HITS:    3218659 MISSES:       3753
L2C RQ ACCESS:   19262064
L2C RQ TO_CACHE:   19261955
L2C RQ MERGED:          0
L2C RQ FORWARD:          0
L2C WQ ACCESS:    3222412
L2C WQ TO_CACHE:    3222412
L2C WQ MERGED:          0
L2C WQ FORWARD:        159
LLC TOTAL     ACCESS:   21206056  HIT:   13354919  MISS:    7851137
LLC LOAD      ACCESS:    8293012  HIT:    5599815  MISS:    2693197
LLC RFO       ACCESS:    1680370  HIT:    1650334  MISS:      30036
LLC PREFETCH  ACCESS:    9057032  HIT:    3957803  MISS:    5099229
LLC WRITEBACK ACCESS:    2175642  HIT:    2146967  MISS:      28675
LLC PREFETCH  REQUESTED:          0  ISSUED:          0  USEFUL:     189094  USELESS:    4911711
LLC TOTAL MSHR MERGED:      55037
LLC LOAD MSHR MERGED:      17614
LLC RFO MSHR MERGED:          0
LLC PREFETCH MSHR MERGED:      37423
LLC WRITEBACK MSHR MERGED:          0
LLC TOTAL ACCESSES:   21261220 HITS:   13355046 MISSES:    7906174
LLC LOAD ACCESSES:    8293037 HITS:    5599840 MISSES:    2693197
LLC RFO ACCESSES:    1680441 HITS:    1650405 MISSES:      30036
LLC PREFETCH ACCESSES:    9112100 HITS:    3957834 MISSES:    5154266
LLC WRITEBACK ACCESSES:    2175642 HITS:    2146967 MISSES:      28675
LLC 0 RQ ACCESS:    9973478
LLC 0 RQ TO_CACHE:    9973382
LLC 0 RQ MERGED:          0
LLC 0 RQ FORWARD:          0
LLC WQ ACCESS:    2175643
LLC WQ TO_CACHE:    2175643
LLC WQ MERGED:          0
LLC WQ FORWARD:        127
Major fault: 0 Minor fault: 56391
CPU 0 L1D next line prefetcher final stats
CPU 0 L2C PC-based stride prefetcher final stats
All Misses: 9207285
All Hits: 15375617
SD Algo Stats - Switches: 0 SRR-Repls: 2849874 BRR-Repls: 0

DRAM Statistics
 CHANNEL 0
 RQ ROW_BUFFER_HIT:    4596484  ROW_BUFFER_MISS:    3195859
 DBUS_CONGESTED:    3579359
 WQ ROW_BUFFER_HIT:       3486  ROW_BUFFER_MISS:      65454  FULL:          0

 AVG_CONGESTED_CYCLE: 12
LOADS RETIRED: 173631671
INSTR RETIRED: 500000000
