
*** ChampSim Multicore Out-of-Order Simulator ***

Warmup Instructions: 100000000
Simulation Instructions: 500000000
Number of CPUs: 1
LLC sets: 2048
LLC ways: 16
Clean RRIP Policies: 1213230112132301 Dirty RRIP Policies: 2213130122131301 PSEL Width: 10 Track Set: 4294967295 PSEL Mask: 1 Demote Mask: 3244203032442030DS Algo: 0Window size: 0
Off-chip DRAM Size: 4096 MB Channels: 1 Width: 64-bit Data Rate: 1600 MT/s

CPU 0 runs /mnt/beegfs/iconst01/spec2017/Wrf.trace.gz
NOT SORTED
TRACE STRING: /mnt/beegfs/iconst01/spec2017/Wrf.trace.gz
SORTED
TRACE STRING: /mnt/beegfs/iconst01/spec2017/Wrf.trace.gz
INITIAL
TRACE STRING: /mnt/beegfs/iconst01/spec2017/Wrf.trace.gz

champsim_seed used: 303

CPU 0 L1D next line prefetcher
CPU 0 L2C IP-based stride prefetcher
Initialize DRRIP state
Assign rand_sets[0]: 454  LLC: 2048
rand_sets[0]: 454
Assign rand_sets[1]: 1662  LLC: 2048
rand_sets[1]: 1662
Assign rand_sets[2]: 1921  LLC: 2048
rand_sets[2]: 1921
Assign rand_sets[3]: 1131  LLC: 2048
rand_sets[3]: 1131
Assign rand_sets[4]: 331  LLC: 2048
rand_sets[4]: 331
Assign rand_sets[5]: 1531  LLC: 2048
rand_sets[5]: 1531
Assign rand_sets[6]: 482  LLC: 2048
rand_sets[6]: 482
Assign rand_sets[7]: 1275  LLC: 2048
rand_sets[7]: 1275
Assign rand_sets[8]: 1876  LLC: 2048
rand_sets[8]: 1876
Assign rand_sets[9]: 2038  LLC: 2048
rand_sets[9]: 2038
Assign rand_sets[10]: 701  LLC: 2048
rand_sets[10]: 701
Assign rand_sets[11]: 479  LLC: 2048
rand_sets[11]: 479
Assign rand_sets[12]: 892  LLC: 2048
rand_sets[12]: 892
Assign rand_sets[13]: 1820  LLC: 2048
rand_sets[13]: 1820
Assign rand_sets[14]: 1505  LLC: 2048
rand_sets[14]: 1505
Assign rand_sets[15]: 1159  LLC: 2048
rand_sets[15]: 1159
Assign rand_sets[16]: 513  LLC: 2048
rand_sets[16]: 513
Assign rand_sets[17]: 703  LLC: 2048
rand_sets[17]: 703
Assign rand_sets[18]: 561  LLC: 2048
rand_sets[18]: 561
Assign rand_sets[19]: 990  LLC: 2048
rand_sets[19]: 990
Assign rand_sets[20]: 342  LLC: 2048
rand_sets[20]: 342
Assign rand_sets[21]: 882  LLC: 2048
rand_sets[21]: 882
Assign rand_sets[22]: 15  LLC: 2048
rand_sets[22]: 15
Assign rand_sets[23]: 71  LLC: 2048
rand_sets[23]: 71
Assign rand_sets[24]: 1127  LLC: 2048
rand_sets[24]: 1127
Assign rand_sets[25]: 1382  LLC: 2048
rand_sets[25]: 1382
Assign rand_sets[26]: 647  LLC: 2048
rand_sets[26]: 647
Assign rand_sets[27]: 857  LLC: 2048
rand_sets[27]: 857
Assign rand_sets[28]: 1450  LLC: 2048
rand_sets[28]: 1450
Assign rand_sets[29]: 1160  LLC: 2048
rand_sets[29]: 1160
Assign rand_sets[30]: 1852  LLC: 2048
rand_sets[30]: 1852
Assign rand_sets[31]: 1881  LLC: 2048
rand_sets[31]: 1881
Assign rand_sets[32]: 1770  LLC: 2048
rand_sets[32]: 1770
Assign rand_sets[33]: 1622  LLC: 2048
rand_sets[33]: 1622
Assign rand_sets[34]: 275  LLC: 2048
rand_sets[34]: 275
Assign rand_sets[35]: 635  LLC: 2048
rand_sets[35]: 635
Assign rand_sets[36]: 466  LLC: 2048
rand_sets[36]: 466
Assign rand_sets[37]: 1413  LLC: 2048
rand_sets[37]: 1413
Assign rand_sets[38]: 417  LLC: 2048
rand_sets[38]: 417
Assign rand_sets[39]: 472  LLC: 2048
rand_sets[39]: 472
Assign rand_sets[40]: 1340  LLC: 2048
rand_sets[40]: 1340
Assign rand_sets[41]: 852  LLC: 2048
rand_sets[41]: 852
Assign rand_sets[42]: 1365  LLC: 2048
rand_sets[42]: 1365
Assign rand_sets[43]: 47  LLC: 2048
rand_sets[43]: 47
Assign rand_sets[44]: 823  LLC: 2048
rand_sets[44]: 823
Assign rand_sets[45]: 686  LLC: 2048
rand_sets[45]: 686
Assign rand_sets[46]: 1637  LLC: 2048
rand_sets[46]: 1637
Assign rand_sets[47]: 1115  LLC: 2048
rand_sets[47]: 1115
Assign rand_sets[48]: 986  LLC: 2048
rand_sets[48]: 986
Assign rand_sets[49]: 258  LLC: 2048
rand_sets[49]: 258
Assign rand_sets[50]: 633  LLC: 2048
rand_sets[50]: 633
Assign rand_sets[51]: 920  LLC: 2048
rand_sets[51]: 920
Assign rand_sets[52]: 204  LLC: 2048
rand_sets[52]: 204
Assign rand_sets[53]: 227  LLC: 2048
rand_sets[53]: 227
Assign rand_sets[54]: 1818  LLC: 2048
rand_sets[54]: 1818
Assign rand_sets[55]: 886  LLC: 2048
rand_sets[55]: 886
Assign rand_sets[56]: 1422  LLC: 2048
rand_sets[56]: 1422
Assign rand_sets[57]: 607  LLC: 2048
rand_sets[57]: 607
Assign rand_sets[58]: 217  LLC: 2048
rand_sets[58]: 217
Assign rand_sets[59]: 1945  LLC: 2048
rand_sets[59]: 1945
Assign rand_sets[60]: 143  LLC: 2048
rand_sets[60]: 143
Assign rand_sets[61]: 1311  LLC: 2048
rand_sets[61]: 1311
Assign rand_sets[62]: 319  LLC: 2048
rand_sets[62]: 319
Assign rand_sets[63]: 1846  LLC: 2048
rand_sets[63]: 1846
 CLEAN-RRIP-POLICY-1: 1-2-1-3-2-3-0-1- CLEAN-RRIP-POLICY-2: 1-2-1-3-2-3-0-1-
 DIRTY-RRIP-POLICY-1: 2-2-1-3-1-3-0-1- DIRTY-RRIP-POLICY-2: 2-2-1-3-1-3-0-1-
 PSEL width: 10
Heartbeat CPU 0 instructions: 10000002 cycles: 6559549 heartbeat IPC: 1.5245 cumulative IPC: 1.5245 (Simulation time: 0 hr 0 min 22 sec) 
Heartbeat CPU 0 instructions: 20000000 cycles: 12222136 heartbeat IPC: 1.76598 cumulative IPC: 1.63638 (Simulation time: 0 hr 0 min 43 sec) 
Heartbeat CPU 0 instructions: 30000003 cycles: 18203903 heartbeat IPC: 1.67175 cumulative IPC: 1.648 (Simulation time: 0 hr 1 min 3 sec) 
Heartbeat CPU 0 instructions: 40000000 cycles: 24059226 heartbeat IPC: 1.70785 cumulative IPC: 1.66256 (Simulation time: 0 hr 1 min 24 sec) 
Heartbeat CPU 0 instructions: 50000000 cycles: 29527948 heartbeat IPC: 1.82858 cumulative IPC: 1.69331 (Simulation time: 0 hr 1 min 45 sec) 
Heartbeat CPU 0 instructions: 60000000 cycles: 35640814 heartbeat IPC: 1.63589 cumulative IPC: 1.68346 (Simulation time: 0 hr 2 min 6 sec) 
Heartbeat CPU 0 instructions: 70000000 cycles: 41360520 heartbeat IPC: 1.74834 cumulative IPC: 1.69244 (Simulation time: 0 hr 2 min 27 sec) 
Heartbeat CPU 0 instructions: 80000000 cycles: 47231455 heartbeat IPC: 1.70331 cumulative IPC: 1.69379 (Simulation time: 0 hr 2 min 47 sec) 
Heartbeat CPU 0 instructions: 90000000 cycles: 52985009 heartbeat IPC: 1.73806 cumulative IPC: 1.69859 (Simulation time: 0 hr 3 min 8 sec) 
Heartbeat CPU 0 instructions: 100000000 cycles: 58537910 heartbeat IPC: 1.80086 cumulative IPC: 1.70829 (Simulation time: 0 hr 3 min 29 sec) 

Warmup complete CPU 0 instructions: 100000004 cycles: 58537912 (Simulation time: 0 hr 3 min 29 sec) 

Heartbeat CPU 0 instructions: 110000001 cycles: 73541896 heartbeat IPC: 0.66649 cumulative IPC: 0.666489 (Simulation time: 0 hr 3 min 55 sec) 
Heartbeat CPU 0 instructions: 120000000 cycles: 85884207 heartbeat IPC: 0.810221 cumulative IPC: 0.73136 (Simulation time: 0 hr 4 min 21 sec) 
Heartbeat CPU 0 instructions: 130000000 cycles: 96963259 heartbeat IPC: 0.902604 cumulative IPC: 0.780735 (Simulation time: 0 hr 4 min 44 sec) 
Heartbeat CPU 0 instructions: 140000000 cycles: 108878223 heartbeat IPC: 0.839281 cumulative IPC: 0.794592 (Simulation time: 0 hr 5 min 9 sec) 
Heartbeat CPU 0 instructions: 150000002 cycles: 120866185 heartbeat IPC: 0.83417 cumulative IPC: 0.802204 (Simulation time: 0 hr 5 min 34 sec) 
Heartbeat CPU 0 instructions: 160000000 cycles: 130701386 heartbeat IPC: 1.01676 cumulative IPC: 0.831446 (Simulation time: 0 hr 5 min 57 sec) 
Heartbeat CPU 0 instructions: 170000003 cycles: 142684594 heartbeat IPC: 0.834501 cumulative IPC: 0.831881 (Simulation time: 0 hr 6 min 21 sec) 
Heartbeat CPU 0 instructions: 180000000 cycles: 155623761 heartbeat IPC: 0.772847 cumulative IPC: 0.824013 (Simulation time: 0 hr 6 min 46 sec) 
Heartbeat CPU 0 instructions: 190000000 cycles: 170731454 heartbeat IPC: 0.661914 cumulative IPC: 0.802185 (Simulation time: 0 hr 7 min 10 sec) 
Heartbeat CPU 0 instructions: 200000000 cycles: 185847430 heartbeat IPC: 0.661552 cumulative IPC: 0.785487 (Simulation time: 0 hr 7 min 35 sec) 
Heartbeat CPU 0 instructions: 210000000 cycles: 200935082 heartbeat IPC: 0.662794 cumulative IPC: 0.772487 (Simulation time: 0 hr 7 min 59 sec) 
Heartbeat CPU 0 instructions: 220000000 cycles: 216732263 heartbeat IPC: 0.633024 cumulative IPC: 0.758561 (Simulation time: 0 hr 8 min 26 sec) 
Heartbeat CPU 0 instructions: 230000003 cycles: 235408351 heartbeat IPC: 0.535444 cumulative IPC: 0.735001 (Simulation time: 0 hr 8 min 55 sec) 
Heartbeat CPU 0 instructions: 240000000 cycles: 245218489 heartbeat IPC: 1.01935 cumulative IPC: 0.749944 (Simulation time: 0 hr 9 min 17 sec) 
Heartbeat CPU 0 instructions: 250000000 cycles: 253810727 heartbeat IPC: 1.16384 cumulative IPC: 0.768156 (Simulation time: 0 hr 9 min 39 sec) 
Heartbeat CPU 0 instructions: 260000000 cycles: 263648330 heartbeat IPC: 1.01651 cumulative IPC: 0.780068 (Simulation time: 0 hr 10 min 2 sec) 
Heartbeat CPU 0 instructions: 270000000 cycles: 273969005 heartbeat IPC: 0.968929 cumulative IPC: 0.789115 (Simulation time: 0 hr 10 min 25 sec) 
Heartbeat CPU 0 instructions: 280000000 cycles: 283664371 heartbeat IPC: 1.03142 cumulative IPC: 0.799551 (Simulation time: 0 hr 10 min 49 sec) 
Heartbeat CPU 0 instructions: 290000000 cycles: 293575312 heartbeat IPC: 1.00899 cumulative IPC: 0.808382 (Simulation time: 0 hr 11 min 14 sec) 
Heartbeat CPU 0 instructions: 300000000 cycles: 301917852 heartbeat IPC: 1.19868 cumulative IPC: 0.82176 (Simulation time: 0 hr 11 min 36 sec) 
Heartbeat CPU 0 instructions: 310000002 cycles: 315533189 heartbeat IPC: 0.734466 cumulative IPC: 0.817136 (Simulation time: 0 hr 12 min 3 sec) 
Heartbeat CPU 0 instructions: 320000000 cycles: 331740598 heartbeat IPC: 0.617002 cumulative IPC: 0.805263 (Simulation time: 0 hr 12 min 32 sec) 
Heartbeat CPU 0 instructions: 330000002 cycles: 342318597 heartbeat IPC: 0.945359 cumulative IPC: 0.810485 (Simulation time: 0 hr 12 min 55 sec) 
Heartbeat CPU 0 instructions: 340000000 cycles: 353231806 heartbeat IPC: 0.916321 cumulative IPC: 0.814404 (Simulation time: 0 hr 13 min 20 sec) 
Heartbeat CPU 0 instructions: 350000002 cycles: 367021908 heartbeat IPC: 0.725158 cumulative IPC: 0.810415 (Simulation time: 0 hr 13 min 47 sec) 
Heartbeat CPU 0 instructions: 360000000 cycles: 378592842 heartbeat IPC: 0.864234 cumulative IPC: 0.812361 (Simulation time: 0 hr 14 min 11 sec) 
Heartbeat CPU 0 instructions: 370000000 cycles: 389599211 heartbeat IPC: 0.908565 cumulative IPC: 0.815559 (Simulation time: 0 hr 14 min 36 sec) 
Heartbeat CPU 0 instructions: 380000000 cycles: 400330499 heartbeat IPC: 0.931855 cumulative IPC: 0.81921 (Simulation time: 0 hr 15 min 0 sec) 
Heartbeat CPU 0 instructions: 390000003 cycles: 418682848 heartbeat IPC: 0.54489 cumulative IPC: 0.805231 (Simulation time: 0 hr 15 min 30 sec) 
Heartbeat CPU 0 instructions: 400000000 cycles: 431516957 heartbeat IPC: 0.779173 cumulative IPC: 0.804335 (Simulation time: 0 hr 15 min 54 sec) 
Heartbeat CPU 0 instructions: 410000002 cycles: 443414230 heartbeat IPC: 0.840529 cumulative IPC: 0.805454 (Simulation time: 0 hr 16 min 17 sec) 
Heartbeat CPU 0 instructions: 420000000 cycles: 455067416 heartbeat IPC: 0.858134 cumulative IPC: 0.807002 (Simulation time: 0 hr 16 min 41 sec) 
Heartbeat CPU 0 instructions: 430000003 cycles: 466706920 heartbeat IPC: 0.859143 cumulative IPC: 0.808489 (Simulation time: 0 hr 17 min 4 sec) 
Heartbeat CPU 0 instructions: 440000000 cycles: 479363572 heartbeat IPC: 0.790098 cumulative IPC: 0.807936 (Simulation time: 0 hr 17 min 28 sec) 
Heartbeat CPU 0 instructions: 450000002 cycles: 494480616 heartbeat IPC: 0.661505 cumulative IPC: 0.802858 (Simulation time: 0 hr 17 min 52 sec) 
Heartbeat CPU 0 instructions: 460000000 cycles: 509591441 heartbeat IPC: 0.661777 cumulative IPC: 0.798131 (Simulation time: 0 hr 18 min 16 sec) 
Heartbeat CPU 0 instructions: 470000003 cycles: 524678068 heartbeat IPC: 0.662839 cumulative IPC: 0.793753 (Simulation time: 0 hr 18 min 40 sec) 
Heartbeat CPU 0 instructions: 480000000 cycles: 540494197 heartbeat IPC: 0.632266 cumulative IPC: 0.788453 (Simulation time: 0 hr 19 min 6 sec) 
Heartbeat CPU 0 instructions: 490000002 cycles: 559221737 heartbeat IPC: 0.533973 cumulative IPC: 0.778935 (Simulation time: 0 hr 19 min 35 sec) 
Heartbeat CPU 0 instructions: 500000000 cycles: 569041810 heartbeat IPC: 1.01832 cumulative IPC: 0.78354 (Simulation time: 0 hr 19 min 57 sec) 
Heartbeat CPU 0 instructions: 510000002 cycles: 577721545 heartbeat IPC: 1.15211 cumulative IPC: 0.789701 (Simulation time: 0 hr 20 min 19 sec) 
Heartbeat CPU 0 instructions: 520000000 cycles: 587511799 heartbeat IPC: 1.02142 cumulative IPC: 0.79399 (Simulation time: 0 hr 20 min 41 sec) 
Heartbeat CPU 0 instructions: 530000002 cycles: 597863297 heartbeat IPC: 0.966044 cumulative IPC: 0.797292 (Simulation time: 0 hr 21 min 4 sec) 
Heartbeat CPU 0 instructions: 540000000 cycles: 607526596 heartbeat IPC: 1.03484 cumulative IPC: 0.801474 (Simulation time: 0 hr 21 min 28 sec) 
Heartbeat CPU 0 instructions: 550000002 cycles: 617481056 heartbeat IPC: 1.00458 cumulative IPC: 0.805091 (Simulation time: 0 hr 21 min 52 sec) 
Heartbeat CPU 0 instructions: 560000000 cycles: 625869646 heartbeat IPC: 1.1921 cumulative IPC: 0.810813 (Simulation time: 0 hr 22 min 14 sec) 
Heartbeat CPU 0 instructions: 570000003 cycles: 639360544 heartbeat IPC: 0.741241 cumulative IPC: 0.809197 (Simulation time: 0 hr 22 min 40 sec) 
Heartbeat CPU 0 instructions: 580000000 cycles: 655725126 heartbeat IPC: 0.611076 cumulative IPC: 0.803768 (Simulation time: 0 hr 23 min 9 sec) 
Heartbeat CPU 0 instructions: 590000002 cycles: 665809856 heartbeat IPC: 0.991598 cumulative IPC: 0.806887 (Simulation time: 0 hr 23 min 32 sec) 
Heartbeat CPU 0 instructions: 600000000 cycles: 677212821 heartbeat IPC: 0.876965 cumulative IPC: 0.808179 (Simulation time: 0 hr 23 min 56 sec) 
Finished CPU 0 instructions: 500000000 cycles: 618674928 cumulative IPC: 0.808179 (Simulation time: 0 hr 23 min 56 sec) 

CPU 0 Branch Prediction Accuracy: 99.5219% MPKI: 0.251582
Number of Branches: 26312578 Number of Mispredictions: 125791
Number of LOAD Instructions: 235643083
Number of LOAD Instructions (ROI): 235643083
Number of STORE Instructions: 37593550
Number of STORE Instructions (ROI): 37593550
Total Destination Memory Operands: 40480968
Total Destination Memory Operands (ROI): 40480968
Total Source Memory Operands: 235643083
Total Source Memory Operands (ROI): 235643083
Number of DEPENDED LOADS: 6700335
Number of DEPENDED LOADS (ROI): 6700335
Number of SQ_ADDED: 40480950
Number of SQ_ADDED (ROI): 40480950
Number of LQ_ADDED: 392570849
Number of LQ_ADDED (ROI): 392570849
Number of Instructions read from trace: 600000259

ChampSim completed all CPUs

Region of Interest Statistics

CPU 0 cumulative IPC: 0.808179 instructions: 500000000 cycles: 618674928
ITLB TOTAL     ACCESS:  109474126  HIT:  109473613  MISS:        513
ITLB LOAD      ACCESS:  109474126  HIT:  109473613  MISS:        513
ITLB RFO       ACCESS:          0  HIT:          0  MISS:          0
ITLB PREFETCH  ACCESS:          0  HIT:          0  MISS:          0
ITLB WRITEBACK ACCESS:          0  HIT:          0  MISS:          0
ITLB PREFETCH  REQUESTED:          0  ISSUED:          0  USEFUL:          0  USELESS:          0
ITLB TOTAL MSHR MERGED:        970
ITLB LOAD MSHR MERGED:        970
ITLB RFO MSHR MERGED:          0
ITLB PREFETCH MSHR MERGED:          0
ITLB WRITEBACK MSHR MERGED:          0
ITLB TOTAL ACCESSES:  109475096 HITS:  109473613 MISSES:       1483
ITLB LOAD ACCESSES:  109475096 HITS:  109473613 MISSES:       1483
ITLB RFO ACCESSES:          0 HITS:          0 MISSES:          0
ITLB PREFETCH ACCESSES:          0 HITS:          0 MISSES:          0
ITLB WRITEBACK ACCESSES:          0 HITS:          0 MISSES:          0
ITLB RQ ACCESS:  500000003
ITLB RQ TO_CACHE:  109475096
ITLB RQ MERGED:  390524907
ITLB RQ FORWARD:          0
ITLB WQ ACCESS:          0
ITLB WQ TO_CACHE:          0
ITLB WQ MERGED:          0
ITLB WQ FORWARD:          0
DTLB TOTAL     ACCESS:  130413806  HIT:  130156218  MISS:     257588
DTLB LOAD      ACCESS:  109084412  HIT:  108863633  MISS:     220779
DTLB RFO       ACCESS:   21329394  HIT:   21292585  MISS:      36809
DTLB PREFETCH  ACCESS:          0  HIT:          0  MISS:          0
DTLB WRITEBACK ACCESS:          0  HIT:          0  MISS:          0
DTLB PREFETCH  REQUESTED:          0  ISSUED:          0  USEFUL:          0  USELESS:          0
DTLB TOTAL MSHR MERGED:     121110
DTLB LOAD MSHR MERGED:      83491
DTLB RFO MSHR MERGED:      37619
DTLB PREFETCH MSHR MERGED:          0
DTLB WRITEBACK MSHR MERGED:          0
DTLB TOTAL ACCESSES:  130534916 HITS:  130156218 MISSES:     378698
DTLB LOAD ACCESSES:  109167903 HITS:  108863633 MISSES:     304270
DTLB RFO ACCESSES:   21367013 HITS:   21292585 MISSES:      74428
DTLB PREFETCH ACCESSES:          0 HITS:          0 MISSES:          0
DTLB WRITEBACK ACCESSES:          0 HITS:          0 MISSES:          0
DTLB RQ ACCESS:  218634082
DTLB RQ TO_CACHE:  130534917
DTLB RQ MERGED:   88099165
DTLB RQ FORWARD:          0
DTLB WQ ACCESS:          0
DTLB WQ TO_CACHE:          0
DTLB WQ MERGED:          0
DTLB WQ FORWARD:          0
L1D TOTAL     ACCESS:  204340716  HIT:  193283800  MISS:   11056916
L1D LOAD      ACCESS:  106154333  HIT:  102881136  MISS:    3273197
L1D RFO       ACCESS:   27013768  HIT:   25260678  MISS:    1753090
L1D PREFETCH  ACCESS:   71172615  HIT:   65141986  MISS:    6030629
L1D WRITEBACK ACCESS:          0  HIT:          0  MISS:          0
L1D PREFETCH  REQUESTED:  108994734  ISSUED:  107301462  USEFUL:    5593992  USELESS:     436631
L1D TOTAL MSHR MERGED:   18810158
L1D LOAD MSHR MERGED:    4956897
L1D RFO MSHR MERGED:    6424297
L1D PREFETCH MSHR MERGED:    7428964
L1D WRITEBACK MSHR MERGED:          0
L1D TOTAL ACCESSES:  223213329 HITS:  193346255 MISSES:   29867074
L1D LOAD ACCESSES:  109019393 HITS:  102905795 MISSES:    6113598
L1D RFO ACCESSES:   33435958 HITS:   25260678 MISSES:    8175280
L1D PREFETCH ACCESSES:   80757978 HITS:   65179782 MISSES:   15578196
L1D WRITEBACK ACCESSES:          0 HITS:          0 MISSES:          0
L1D RQ ACCESS:  184990644
L1D RQ TO_CACHE:  108994734
L1D RQ MERGED:   75971251
L1D RQ FORWARD:          0
L1D WQ ACCESS:   33643426
L1D WQ TO_CACHE:   33435957
L1D WQ MERGED:     207469
L1D WQ FORWARD:      62455
L1I TOTAL     ACCESS:  134164542  HIT:  134139964  MISS:      24578
L1I LOAD      ACCESS:  134164542  HIT:  134139964  MISS:      24578
L1I RFO       ACCESS:          0  HIT:          0  MISS:          0
L1I PREFETCH  ACCESS:          0  HIT:          0  MISS:          0
L1I WRITEBACK ACCESS:          0  HIT:          0  MISS:          0
L1I PREFETCH  REQUESTED:          0  ISSUED:          0  USEFUL:          0  USELESS:          0
L1I TOTAL MSHR MERGED:      30326
L1I LOAD MSHR MERGED:      30326
L1I RFO MSHR MERGED:          0
L1I PREFETCH MSHR MERGED:          0
L1I WRITEBACK MSHR MERGED:          0
L1I TOTAL ACCESSES:  134194868 HITS:  134139964 MISSES:      54904
L1I LOAD ACCESSES:  134194868 HITS:  134139964 MISSES:      54904
L1I RFO ACCESSES:          0 HITS:          0 MISSES:          0
L1I PREFETCH ACCESSES:          0 HITS:          0 MISSES:          0
L1I WRITEBACK ACCESSES:          0 HITS:          0 MISSES:          0
L1I RQ ACCESS:  500000005
L1I RQ TO_CACHE:  134194868
L1I RQ MERGED:  365805137
L1I RQ FORWARD:          0
L1I WQ ACCESS:          0
L1I WQ TO_CACHE:          0
L1I WQ MERGED:          0
L1I WQ FORWARD:          0
L2C TOTAL     ACCESS:   14913062  HIT:    6942846  MISS:    7970216
L2C LOAD      ACCESS:    1181075  HIT:     297657  MISS:     883418
L2C RFO       ACCESS:    1750781  HIT:     368957  MISS:    1381824
L2C PREFETCH  ACCESS:    8299461  HIT:    2603171  MISS:    5696290
L2C WRITEBACK ACCESS:    3681745  HIT:    3673061  MISS:       8684
L2C PREFETCH  REQUESTED:     385642  ISSUED:     385636  USEFUL:     111981  USELESS:    5585140
L2C TOTAL MSHR MERGED:      38876
L2C LOAD MSHR MERGED:       1560
L2C RFO MSHR MERGED:        992
L2C PREFETCH MSHR MERGED:      36324
L2C WRITEBACK MSHR MERGED:          0
L2C TOTAL ACCESSES:   15088653 HITS:    6943491 MISSES:    8145162
L2C LOAD ACCESSES:    1181279 HITS:     297861 MISSES:     883418
L2C RFO ACCESSES:    1750983 HITS:     369159 MISSES:    1381824
L2C PREFETCH ACCESSES:    8474646 HITS:    2603410 MISSES:    5871236
L2C WRITEBACK ACCESSES:    3681745 HITS:    3673061 MISSES:       8684
L2C RQ ACCESS:    2932262
L2C RQ TO_CACHE:    2931856
L2C RQ MERGED:          0
L2C RQ FORWARD:          0
L2C WQ ACCESS:    3681745
L2C WQ TO_CACHE:    3681745
L2C WQ MERGED:          0
L2C WQ FORWARD:        645
LLC TOTAL     ACCESS:   11164127  HIT:    1932576  MISS:    9231551
LLC LOAD      ACCESS:     881853  HIT:     151875  MISS:     729978
LLC RFO       ACCESS:    1380829  HIT:     217041  MISS:    1163788
LLC PREFETCH  ACCESS:    5798417  HIT:     653923  MISS:    5144494
LLC WRITEBACK ACCESS:    3103028  HIT:     909737  MISS:    2193291
LLC PREFETCH  REQUESTED:          0  ISSUED:          0  USEFUL:      27024  USELESS:    5117928
LLC TOTAL MSHR MERGED:      28965
LLC LOAD MSHR MERGED:       9135
LLC RFO MSHR MERGED:        641
LLC PREFETCH MSHR MERGED:      19189
LLC WRITEBACK MSHR MERGED:          0
LLC TOTAL ACCESSES:   11193108 HITS:    1932592 MISSES:    9260516
LLC LOAD ACCESSES:     881858 HITS:     151880 MISSES:     729978
LLC RFO ACCESSES:    1380832 HITS:     217044 MISSES:    1163788
LLC PREFETCH ACCESSES:    5827390 HITS:     653931 MISSES:    5173459
LLC WRITEBACK ACCESSES:    3103028 HITS:     909737 MISSES:    2193291
LLC 0 RQ ACCESS:    2262690
LLC 0 RQ TO_CACHE:    2262682
LLC 0 RQ MERGED:          0
LLC 0 RQ FORWARD:          0
LLC WQ ACCESS:    3103028
LLC WQ TO_CACHE:    3103028
LLC WQ MERGED:          0
LLC WQ FORWARD:         16
Major fault: 0 Minor fault: 11519
CPU 0 L1D next line prefetcher final stats
CPU 0 L2C PC-based stride prefetcher final stats
All Misses: 11451197
All Hits: 2324152
SD Algo Stats - Switches: 0 SRR-Repls: 816061 BRR-Repls: 0

DRAM Statistics
 CHANNEL 0
 RQ ROW_BUFFER_HIT:    4252109  ROW_BUFFER_MISS:    2785292
 DBUS_CONGESTED:    5012096
 WQ ROW_BUFFER_HIT:     830732  ROW_BUFFER_MISS:    1644220  FULL:       3252

 AVG_CONGESTED_CYCLE: 13
LOADS RETIRED: 190375692
INSTR RETIRED: 500000000
