
*** ChampSim Multicore Out-of-Order Simulator ***

Warmup Instructions: 100000000
Simulation Instructions: 500000000
Number of CPUs: 1
LLC sets: 2048
LLC ways: 16
Clean RRIP Policies: 2213230222132302 Dirty RRIP Policies: 1213130212131302 PSEL Width: 10 Track Set: 4294967295 PSEL Mask: 1 Demote Mask: 1040104010401040DS Algo: 0Window size: 0
Off-chip DRAM Size: 4096 MB Channels: 1 Width: 64-bit Data Rate: 1600 MT/s

CPU 0 runs /mnt/beegfs/iconst01/spec2017/Lbm.trace.gz
NOT SORTED
TRACE STRING: /mnt/beegfs/iconst01/spec2017/Lbm.trace.gz
SORTED
TRACE STRING: /mnt/beegfs/iconst01/spec2017/Lbm.trace.gz
INITIAL
TRACE STRING: /mnt/beegfs/iconst01/spec2017/Lbm.trace.gz

champsim_seed used: 283

CPU 0 L1D next line prefetcher
CPU 0 L2C IP-based stride prefetcher
Initialize DRRIP state
Assign rand_sets[0]: 454  LLC: 2048
rand_sets[0]: 454
Assign rand_sets[1]: 1662  LLC: 2048
rand_sets[1]: 1662
Assign rand_sets[2]: 1921  LLC: 2048
rand_sets[2]: 1921
Assign rand_sets[3]: 1131  LLC: 2048
rand_sets[3]: 1131
Assign rand_sets[4]: 331  LLC: 2048
rand_sets[4]: 331
Assign rand_sets[5]: 1531  LLC: 2048
rand_sets[5]: 1531
Assign rand_sets[6]: 482  LLC: 2048
rand_sets[6]: 482
Assign rand_sets[7]: 1275  LLC: 2048
rand_sets[7]: 1275
Assign rand_sets[8]: 1876  LLC: 2048
rand_sets[8]: 1876
Assign rand_sets[9]: 2038  LLC: 2048
rand_sets[9]: 2038
Assign rand_sets[10]: 701  LLC: 2048
rand_sets[10]: 701
Assign rand_sets[11]: 479  LLC: 2048
rand_sets[11]: 479
Assign rand_sets[12]: 892  LLC: 2048
rand_sets[12]: 892
Assign rand_sets[13]: 1820  LLC: 2048
rand_sets[13]: 1820
Assign rand_sets[14]: 1505  LLC: 2048
rand_sets[14]: 1505
Assign rand_sets[15]: 1159  LLC: 2048
rand_sets[15]: 1159
Assign rand_sets[16]: 513  LLC: 2048
rand_sets[16]: 513
Assign rand_sets[17]: 703  LLC: 2048
rand_sets[17]: 703
Assign rand_sets[18]: 561  LLC: 2048
rand_sets[18]: 561
Assign rand_sets[19]: 990  LLC: 2048
rand_sets[19]: 990
Assign rand_sets[20]: 342  LLC: 2048
rand_sets[20]: 342
Assign rand_sets[21]: 882  LLC: 2048
rand_sets[21]: 882
Assign rand_sets[22]: 15  LLC: 2048
rand_sets[22]: 15
Assign rand_sets[23]: 71  LLC: 2048
rand_sets[23]: 71
Assign rand_sets[24]: 1127  LLC: 2048
rand_sets[24]: 1127
Assign rand_sets[25]: 1382  LLC: 2048
rand_sets[25]: 1382
Assign rand_sets[26]: 647  LLC: 2048
rand_sets[26]: 647
Assign rand_sets[27]: 857  LLC: 2048
rand_sets[27]: 857
Assign rand_sets[28]: 1450  LLC: 2048
rand_sets[28]: 1450
Assign rand_sets[29]: 1160  LLC: 2048
rand_sets[29]: 1160
Assign rand_sets[30]: 1852  LLC: 2048
rand_sets[30]: 1852
Assign rand_sets[31]: 1881  LLC: 2048
rand_sets[31]: 1881
Assign rand_sets[32]: 1770  LLC: 2048
rand_sets[32]: 1770
Assign rand_sets[33]: 1622  LLC: 2048
rand_sets[33]: 1622
Assign rand_sets[34]: 275  LLC: 2048
rand_sets[34]: 275
Assign rand_sets[35]: 635  LLC: 2048
rand_sets[35]: 635
Assign rand_sets[36]: 466  LLC: 2048
rand_sets[36]: 466
Assign rand_sets[37]: 1413  LLC: 2048
rand_sets[37]: 1413
Assign rand_sets[38]: 417  LLC: 2048
rand_sets[38]: 417
Assign rand_sets[39]: 472  LLC: 2048
rand_sets[39]: 472
Assign rand_sets[40]: 1340  LLC: 2048
rand_sets[40]: 1340
Assign rand_sets[41]: 852  LLC: 2048
rand_sets[41]: 852
Assign rand_sets[42]: 1365  LLC: 2048
rand_sets[42]: 1365
Assign rand_sets[43]: 47  LLC: 2048
rand_sets[43]: 47
Assign rand_sets[44]: 823  LLC: 2048
rand_sets[44]: 823
Assign rand_sets[45]: 686  LLC: 2048
rand_sets[45]: 686
Assign rand_sets[46]: 1637  LLC: 2048
rand_sets[46]: 1637
Assign rand_sets[47]: 1115  LLC: 2048
rand_sets[47]: 1115
Assign rand_sets[48]: 986  LLC: 2048
rand_sets[48]: 986
Assign rand_sets[49]: 258  LLC: 2048
rand_sets[49]: 258
Assign rand_sets[50]: 633  LLC: 2048
rand_sets[50]: 633
Assign rand_sets[51]: 920  LLC: 2048
rand_sets[51]: 920
Assign rand_sets[52]: 204  LLC: 2048
rand_sets[52]: 204
Assign rand_sets[53]: 227  LLC: 2048
rand_sets[53]: 227
Assign rand_sets[54]: 1818  LLC: 2048
rand_sets[54]: 1818
Assign rand_sets[55]: 886  LLC: 2048
rand_sets[55]: 886
Assign rand_sets[56]: 1422  LLC: 2048
rand_sets[56]: 1422
Assign rand_sets[57]: 607  LLC: 2048
rand_sets[57]: 607
Assign rand_sets[58]: 217  LLC: 2048
rand_sets[58]: 217
Assign rand_sets[59]: 1945  LLC: 2048
rand_sets[59]: 1945
Assign rand_sets[60]: 143  LLC: 2048
rand_sets[60]: 143
Assign rand_sets[61]: 1311  LLC: 2048
rand_sets[61]: 1311
Assign rand_sets[62]: 319  LLC: 2048
rand_sets[62]: 319
Assign rand_sets[63]: 1846  LLC: 2048
rand_sets[63]: 1846
 CLEAN-RRIP-POLICY-1: 2-2-1-3-2-3-0-2- CLEAN-RRIP-POLICY-2: 2-2-1-3-2-3-0-2-
 DIRTY-RRIP-POLICY-1: 1-2-1-3-1-3-0-2- DIRTY-RRIP-POLICY-2: 1-2-1-3-1-3-0-2-
 PSEL width: 10
Heartbeat CPU 0 instructions: 10000000 cycles: 4321582 heartbeat IPC: 2.31397 cumulative IPC: 2.31397 (Simulation time: 0 hr 0 min 18 sec) 
Heartbeat CPU 0 instructions: 20000000 cycles: 8643658 heartbeat IPC: 2.3137 cumulative IPC: 2.31384 (Simulation time: 0 hr 0 min 37 sec) 
Heartbeat CPU 0 instructions: 30000000 cycles: 12965455 heartbeat IPC: 2.31385 cumulative IPC: 2.31384 (Simulation time: 0 hr 0 min 55 sec) 
Heartbeat CPU 0 instructions: 40000000 cycles: 17291308 heartbeat IPC: 2.31168 cumulative IPC: 2.3133 (Simulation time: 0 hr 1 min 14 sec) 
Heartbeat CPU 0 instructions: 50000000 cycles: 21613241 heartbeat IPC: 2.31378 cumulative IPC: 2.3134 (Simulation time: 0 hr 1 min 32 sec) 
Heartbeat CPU 0 instructions: 60000000 cycles: 25935122 heartbeat IPC: 2.31381 cumulative IPC: 2.31347 (Simulation time: 0 hr 1 min 50 sec) 
Heartbeat CPU 0 instructions: 70000000 cycles: 30256679 heartbeat IPC: 2.31398 cumulative IPC: 2.31354 (Simulation time: 0 hr 2 min 9 sec) 
Heartbeat CPU 0 instructions: 80000000 cycles: 34582940 heartbeat IPC: 2.31146 cumulative IPC: 2.31328 (Simulation time: 0 hr 2 min 27 sec) 
Heartbeat CPU 0 instructions: 90000003 cycles: 38905090 heartbeat IPC: 2.31366 cumulative IPC: 2.31332 (Simulation time: 0 hr 2 min 46 sec) 
Heartbeat CPU 0 instructions: 100000000 cycles: 43226568 heartbeat IPC: 2.31402 cumulative IPC: 2.31339 (Simulation time: 0 hr 3 min 4 sec) 

Warmup complete CPU 0 instructions: 100000001 cycles: 43226569 (Simulation time: 0 hr 3 min 4 sec) 

Heartbeat CPU 0 instructions: 110000000 cycles: 57532711 heartbeat IPC: 0.699 cumulative IPC: 0.699 (Simulation time: 0 hr 3 min 31 sec) 
Heartbeat CPU 0 instructions: 120000000 cycles: 71904088 heartbeat IPC: 0.695828 cumulative IPC: 0.69741 (Simulation time: 0 hr 3 min 58 sec) 
Heartbeat CPU 0 instructions: 130000000 cycles: 86086258 heartbeat IPC: 0.705111 cumulative IPC: 0.699958 (Simulation time: 0 hr 4 min 24 sec) 
Heartbeat CPU 0 instructions: 140000000 cycles: 100217715 heartbeat IPC: 0.707641 cumulative IPC: 0.701863 (Simulation time: 0 hr 4 min 51 sec) 
Heartbeat CPU 0 instructions: 150000003 cycles: 113962805 heartbeat IPC: 0.727533 cumulative IPC: 0.706851 (Simulation time: 0 hr 5 min 17 sec) 
Heartbeat CPU 0 instructions: 160000000 cycles: 127973534 heartbeat IPC: 0.713739 cumulative IPC: 0.70799 (Simulation time: 0 hr 5 min 43 sec) 
Heartbeat CPU 0 instructions: 170000002 cycles: 142438088 heartbeat IPC: 0.691345 cumulative IPC: 0.705563 (Simulation time: 0 hr 6 min 10 sec) 
Heartbeat CPU 0 instructions: 180000000 cycles: 156559604 heartbeat IPC: 0.708139 cumulative IPC: 0.705884 (Simulation time: 0 hr 6 min 37 sec) 
Heartbeat CPU 0 instructions: 190000003 cycles: 173658461 heartbeat IPC: 0.584835 cumulative IPC: 0.690015 (Simulation time: 0 hr 7 min 6 sec) 
Heartbeat CPU 0 instructions: 200000000 cycles: 194017687 heartbeat IPC: 0.491178 cumulative IPC: 0.663169 (Simulation time: 0 hr 7 min 39 sec) 
Heartbeat CPU 0 instructions: 210000001 cycles: 208252594 heartbeat IPC: 0.702498 cumulative IPC: 0.666562 (Simulation time: 0 hr 8 min 6 sec) 
Heartbeat CPU 0 instructions: 220000000 cycles: 222163516 heartbeat IPC: 0.71886 cumulative IPC: 0.670627 (Simulation time: 0 hr 8 min 32 sec) 
Heartbeat CPU 0 instructions: 230000001 cycles: 236261634 heartbeat IPC: 0.709315 cumulative IPC: 0.673453 (Simulation time: 0 hr 8 min 59 sec) 
Heartbeat CPU 0 instructions: 240000000 cycles: 250804525 heartbeat IPC: 0.687621 cumulative IPC: 0.674445 (Simulation time: 0 hr 9 min 26 sec) 
Heartbeat CPU 0 instructions: 250000000 cycles: 265482832 heartbeat IPC: 0.681277 cumulative IPC: 0.674897 (Simulation time: 0 hr 9 min 53 sec) 
Heartbeat CPU 0 instructions: 260000000 cycles: 280397171 heartbeat IPC: 0.670496 cumulative IPC: 0.67462 (Simulation time: 0 hr 10 min 20 sec) 
Heartbeat CPU 0 instructions: 270000002 cycles: 295719407 heartbeat IPC: 0.652646 cumulative IPC: 0.673286 (Simulation time: 0 hr 10 min 48 sec) 
Heartbeat CPU 0 instructions: 280000000 cycles: 310607109 heartbeat IPC: 0.671695 cumulative IPC: 0.673198 (Simulation time: 0 hr 11 min 15 sec) 
Heartbeat CPU 0 instructions: 290000003 cycles: 326426782 heartbeat IPC: 0.632124 cumulative IPC: 0.670903 (Simulation time: 0 hr 11 min 43 sec) 
Heartbeat CPU 0 instructions: 300000000 cycles: 341609056 heartbeat IPC: 0.658663 cumulative IPC: 0.670281 (Simulation time: 0 hr 12 min 11 sec) 
Heartbeat CPU 0 instructions: 310000000 cycles: 357606915 heartbeat IPC: 0.625084 cumulative IPC: 0.667981 (Simulation time: 0 hr 12 min 39 sec) 
Heartbeat CPU 0 instructions: 320000000 cycles: 373384215 heartbeat IPC: 0.633822 cumulative IPC: 0.666348 (Simulation time: 0 hr 13 min 6 sec) 
Heartbeat CPU 0 instructions: 330000002 cycles: 388459644 heartbeat IPC: 0.663331 cumulative IPC: 0.666217 (Simulation time: 0 hr 13 min 34 sec) 
Heartbeat CPU 0 instructions: 340000000 cycles: 404527595 heartbeat IPC: 0.622357 cumulative IPC: 0.664266 (Simulation time: 0 hr 14 min 1 sec) 
Heartbeat CPU 0 instructions: 350000001 cycles: 419266833 heartbeat IPC: 0.678461 cumulative IPC: 0.664822 (Simulation time: 0 hr 14 min 28 sec) 
Heartbeat CPU 0 instructions: 360000000 cycles: 434860580 heartbeat IPC: 0.641283 cumulative IPC: 0.663885 (Simulation time: 0 hr 14 min 55 sec) 
Heartbeat CPU 0 instructions: 370000000 cycles: 449721802 heartbeat IPC: 0.672892 cumulative IPC: 0.664214 (Simulation time: 0 hr 15 min 22 sec) 
Heartbeat CPU 0 instructions: 380000000 cycles: 464875689 heartbeat IPC: 0.659897 cumulative IPC: 0.664059 (Simulation time: 0 hr 15 min 49 sec) 
Heartbeat CPU 0 instructions: 390000000 cycles: 479212324 heartbeat IPC: 0.697514 cumulative IPC: 0.665159 (Simulation time: 0 hr 16 min 16 sec) 
Heartbeat CPU 0 instructions: 400000000 cycles: 493558619 heartbeat IPC: 0.697044 cumulative IPC: 0.666175 (Simulation time: 0 hr 16 min 42 sec) 
Heartbeat CPU 0 instructions: 410000000 cycles: 507523270 heartbeat IPC: 0.716094 cumulative IPC: 0.667677 (Simulation time: 0 hr 17 min 7 sec) 
Heartbeat CPU 0 instructions: 420000000 cycles: 521859039 heartbeat IPC: 0.697556 cumulative IPC: 0.668571 (Simulation time: 0 hr 17 min 33 sec) 
Heartbeat CPU 0 instructions: 430000002 cycles: 535710348 heartbeat IPC: 0.721954 cumulative IPC: 0.670073 (Simulation time: 0 hr 17 min 59 sec) 
Heartbeat CPU 0 instructions: 440000000 cycles: 549600603 heartbeat IPC: 0.719929 cumulative IPC: 0.67144 (Simulation time: 0 hr 18 min 24 sec) 
Heartbeat CPU 0 instructions: 450000000 cycles: 563274309 heartbeat IPC: 0.731331 cumulative IPC: 0.673015 (Simulation time: 0 hr 18 min 50 sec) 
Heartbeat CPU 0 instructions: 460000000 cycles: 578049173 heartbeat IPC: 0.676825 cumulative IPC: 0.67312 (Simulation time: 0 hr 19 min 16 sec) 
Heartbeat CPU 0 instructions: 470000000 cycles: 592374989 heartbeat IPC: 0.698041 cumulative IPC: 0.67377 (Simulation time: 0 hr 19 min 42 sec) 
Heartbeat CPU 0 instructions: 480000000 cycles: 606406769 heartbeat IPC: 0.712668 cumulative IPC: 0.67474 (Simulation time: 0 hr 20 min 8 sec) 
Heartbeat CPU 0 instructions: 490000001 cycles: 620907977 heartbeat IPC: 0.689598 cumulative IPC: 0.675113 (Simulation time: 0 hr 20 min 34 sec) 
Heartbeat CPU 0 instructions: 500000000 cycles: 635287762 heartbeat IPC: 0.695421 cumulative IPC: 0.675606 (Simulation time: 0 hr 21 min 0 sec) 
Heartbeat CPU 0 instructions: 510000002 cycles: 649361484 heartbeat IPC: 0.710544 cumulative IPC: 0.676417 (Simulation time: 0 hr 21 min 25 sec) 
Heartbeat CPU 0 instructions: 520000000 cycles: 663277760 heartbeat IPC: 0.718583 cumulative IPC: 0.677363 (Simulation time: 0 hr 21 min 51 sec) 
Heartbeat CPU 0 instructions: 530000001 cycles: 677221530 heartbeat IPC: 0.717166 cumulative IPC: 0.678239 (Simulation time: 0 hr 22 min 16 sec) 
Heartbeat CPU 0 instructions: 540000000 cycles: 691643282 heartbeat IPC: 0.693397 cumulative IPC: 0.678576 (Simulation time: 0 hr 22 min 42 sec) 
Heartbeat CPU 0 instructions: 550000003 cycles: 705659350 heartbeat IPC: 0.713467 cumulative IPC: 0.679314 (Simulation time: 0 hr 23 min 8 sec) 
Heartbeat CPU 0 instructions: 560000000 cycles: 720066713 heartbeat IPC: 0.694089 cumulative IPC: 0.679629 (Simulation time: 0 hr 23 min 34 sec) 
Heartbeat CPU 0 instructions: 570000001 cycles: 734229035 heartbeat IPC: 0.706099 cumulative IPC: 0.680171 (Simulation time: 0 hr 24 min 0 sec) 
Heartbeat CPU 0 instructions: 580000000 cycles: 748121306 heartbeat IPC: 0.719825 cumulative IPC: 0.680953 (Simulation time: 0 hr 24 min 25 sec) 
Heartbeat CPU 0 instructions: 590000003 cycles: 761544055 heartbeat IPC: 0.745004 cumulative IPC: 0.68215 (Simulation time: 0 hr 24 min 51 sec) 
Heartbeat CPU 0 instructions: 600000000 cycles: 775579790 heartbeat IPC: 0.712467 cumulative IPC: 0.682731 (Simulation time: 0 hr 25 min 16 sec) 
Finished CPU 0 instructions: 500000000 cycles: 732353229 cumulative IPC: 0.682731 (Simulation time: 0 hr 25 min 16 sec) 

CPU 0 Branch Prediction Accuracy: 99.5915% MPKI: 0.037126
Number of Branches: 4544106 Number of Mispredictions: 18563
Number of LOAD Instructions: 149787067
Number of LOAD Instructions (ROI): 149787067
Number of STORE Instructions: 77239062
Number of STORE Instructions (ROI): 77239062
Total Destination Memory Operands: 77239062
Total Destination Memory Operands (ROI): 77239062
Total Source Memory Operands: 149787067
Total Source Memory Operands (ROI): 149787067
Number of DEPENDED LOADS: 19248864
Number of DEPENDED LOADS (ROI): 19248864
Number of SQ_ADDED: 77239036
Number of SQ_ADDED (ROI): 77239036
Number of LQ_ADDED: 149787020
Number of LQ_ADDED (ROI): 149787020
Number of Instructions read from trace: 600000256

ChampSim completed all CPUs

Region of Interest Statistics

CPU 0 cumulative IPC: 0.682731 instructions: 500000000 cycles: 732353229
ITLB TOTAL     ACCESS:   86451450  HIT:   86451449  MISS:          1
ITLB LOAD      ACCESS:   86451450  HIT:   86451449  MISS:          1
ITLB RFO       ACCESS:          0  HIT:          0  MISS:          0
ITLB PREFETCH  ACCESS:          0  HIT:          0  MISS:          0
ITLB WRITEBACK ACCESS:          0  HIT:          0  MISS:          0
ITLB PREFETCH  REQUESTED:          0  ISSUED:          0  USEFUL:          0  USELESS:          0
ITLB TOTAL MSHR MERGED:          1
ITLB LOAD MSHR MERGED:          1
ITLB RFO MSHR MERGED:          0
ITLB PREFETCH MSHR MERGED:          0
ITLB WRITEBACK MSHR MERGED:          0
ITLB TOTAL ACCESSES:   86451451 HITS:   86451449 MISSES:          2
ITLB LOAD ACCESSES:   86451451 HITS:   86451449 MISSES:          2
ITLB RFO ACCESSES:          0 HITS:          0 MISSES:          0
ITLB PREFETCH ACCESSES:          0 HITS:          0 MISSES:          0
ITLB WRITEBACK ACCESSES:          0 HITS:          0 MISSES:          0
ITLB RQ ACCESS:  500000002
ITLB RQ TO_CACHE:   86451451
ITLB RQ MERGED:  413548551
ITLB RQ FORWARD:          0
ITLB WQ ACCESS:          0
ITLB WQ TO_CACHE:          0
ITLB WQ MERGED:          0
ITLB WQ FORWARD:          0
DTLB TOTAL     ACCESS:   98103995  HIT:   97918734  MISS:     185261
DTLB LOAD      ACCESS:   55039135  HIT:   54992824  MISS:      46311
DTLB RFO       ACCESS:   43064860  HIT:   42925910  MISS:     138950
DTLB PREFETCH  ACCESS:          0  HIT:          0  MISS:          0
DTLB WRITEBACK ACCESS:          0  HIT:          0  MISS:          0
DTLB PREFETCH  REQUESTED:          0  ISSUED:          0  USEFUL:          0  USELESS:          0
DTLB TOTAL MSHR MERGED:      83593
DTLB LOAD MSHR MERGED:      83588
DTLB RFO MSHR MERGED:          5
DTLB PREFETCH MSHR MERGED:          0
DTLB WRITEBACK MSHR MERGED:          0
DTLB TOTAL ACCESSES:   98187588 HITS:   97918734 MISSES:     268854
DTLB LOAD ACCESSES:   55122723 HITS:   54992824 MISSES:     129899
DTLB RFO ACCESSES:   43064865 HITS:   42925910 MISSES:     138955
DTLB PREFETCH ACCESSES:          0 HITS:          0 MISSES:          0
DTLB WRITEBACK ACCESSES:          0 HITS:          0 MISSES:          0
DTLB RQ ACCESS:  173633663
DTLB RQ TO_CACHE:   98187588
DTLB RQ MERGED:   75446075
DTLB RQ FORWARD:          0
DTLB WQ ACCESS:          0
DTLB WQ TO_CACHE:          0
DTLB WQ MERGED:          0
DTLB WQ FORWARD:          0
L1D TOTAL     ACCESS:  164549753  HIT:  144977189  MISS:   19572564
L1D LOAD      ACCESS:   60520691  HIT:   58668970  MISS:    1851721
L1D RFO       ACCESS:   64513393  HIT:   47911261  MISS:   16602132
L1D PREFETCH  ACCESS:   39515669  HIT:   38396958  MISS:    1118711
L1D WRITEBACK ACCESS:          0  HIT:          0  MISS:          0
L1D PREFETCH  REQUESTED:   61692741  ISSUED:   61400598  USEFUL:    1116794  USELESS:       1918
L1D TOTAL MSHR MERGED:    3510529
L1D LOAD MSHR MERGED:    1242902
L1D RFO MSHR MERGED:      11571
L1D PREFETCH MSHR MERGED:    2256056
L1D WRITEBACK MSHR MERGED:          0
L1D TOTAL ACCESSES:  168633237 HITS:  145550144 MISSES:   23083093
L1D LOAD ACCESSES:   61958879 HITS:   58935108 MISSES:    3023771
L1D RFO ACCESSES:   64524926 HITS:   47911261 MISSES:   16613665
L1D PREFETCH ACCESSES:   42149432 HITS:   38703775 MISSES:    3445657
L1D WRITEBACK ACCESSES:          0 HITS:          0 MISSES:          0
L1D RQ ACCESS:  109092348
L1D RQ TO_CACHE:   61692741
L1D RQ MERGED:   47133469
L1D RQ FORWARD:          0
L1D WQ ACCESS:   64541313
L1D WQ TO_CACHE:   64524927
L1D WQ MERGED:      16386
L1D WQ FORWARD:     572955
L1I TOTAL     ACCESS:  107760590  HIT:  107760582  MISS:          8
L1I LOAD      ACCESS:  107760590  HIT:  107760582  MISS:          8
L1I RFO       ACCESS:          0  HIT:          0  MISS:          0
L1I PREFETCH  ACCESS:          0  HIT:          0  MISS:          0
L1I WRITEBACK ACCESS:          0  HIT:          0  MISS:          0
L1I PREFETCH  REQUESTED:          0  ISSUED:          0  USEFUL:          0  USELESS:          0
L1I TOTAL MSHR MERGED:          3
L1I LOAD MSHR MERGED:          3
L1I RFO MSHR MERGED:          0
L1I PREFETCH MSHR MERGED:          0
L1I WRITEBACK MSHR MERGED:          0
L1I TOTAL ACCESSES:  107760593 HITS:  107760582 MISSES:         11
L1I LOAD ACCESSES:  107760593 HITS:  107760582 MISSES:         11
L1I RFO ACCESSES:          0 HITS:          0 MISSES:          0
L1I PREFETCH ACCESSES:          0 HITS:          0 MISSES:          0
L1I WRITEBACK ACCESSES:          0 HITS:          0 MISSES:          0
L1I RQ ACCESS:  500000007
L1I RQ TO_CACHE:  107760593
L1I RQ MERGED:  392239414
L1I RQ FORWARD:          0
L1I WQ ACCESS:          0
L1I WQ TO_CACHE:          0
L1I WQ MERGED:          0
L1I WQ FORWARD:          0
L2C TOTAL     ACCESS:   36801443  HIT:   24843912  MISS:   11957531
L2C LOAD      ACCESS:    1780877  HIT:     253165  MISS:    1527712
L2C RFO       ACCESS:   16602092  HIT:    7610776  MISS:    8991316
L2C PREFETCH  ACCESS:    1816289  HIT:     379017  MISS:    1437272
L2C WRITEBACK ACCESS:   16602185  HIT:   16600954  MISS:       1231
L2C PREFETCH  REQUESTED:     815602  ISSUED:     815602  USEFUL:     250863  USELESS:    1186690
L2C TOTAL MSHR MERGED:       2721
L2C LOAD MSHR MERGED:        619
L2C RFO MSHR MERGED:          0
L2C PREFETCH MSHR MERGED:       2102
L2C WRITEBACK MSHR MERGED:          0
L2C TOTAL ACCESSES:   36990266 HITS:   24843915 MISSES:   12146351
L2C LOAD ACCESSES:    1780877 HITS:     253165 MISSES:    1527712
L2C RFO ACCESSES:   16602094 HITS:    7610779 MISSES:    8991315
L2C PREFETCH ACCESSES:    2005110 HITS:     379017 MISSES:    1626093
L2C WRITEBACK ACCESSES:   16602185 HITS:   16600954 MISSES:       1231
L2C RQ ACCESS:   18382971
L2C RQ TO_CACHE:   18382968
L2C RQ MERGED:          0
L2C RQ FORWARD:          0
L2C WQ ACCESS:   16602185
L2C WQ TO_CACHE:   16602185
L2C WQ MERGED:          0
L2C WQ FORWARD:          3
LLC TOTAL     ACCESS:   21131458  HIT:    1528802  MISS:   19602656
LLC LOAD      ACCESS:    1527093  HIT:      67458  MISS:    1459635
LLC RFO       ACCESS:    8991305  HIT:     580902  MISS:    8410403
LLC PREFETCH  ACCESS:    1620915  HIT:     115614  MISS:    1505301
LLC WRITEBACK ACCESS:    8992145  HIT:     764828  MISS:    8227317
LLC PREFETCH  REQUESTED:          0  ISSUED:          0  USEFUL:      67071  USELESS:    1437783
LLC TOTAL MSHR MERGED:       2675
LLC LOAD MSHR MERGED:        228
LLC RFO MSHR MERGED:          0
LLC PREFETCH MSHR MERGED:       2447
LLC WRITEBACK MSHR MERGED:          0
LLC TOTAL ACCESSES:   21134143 HITS:    1528813 MISSES:   19605330
LLC LOAD ACCESSES:    1527093 HITS:      67458 MISSES:    1459635
LLC RFO ACCESSES:    8991315 HITS:     580913 MISSES:    8410402
LLC PREFETCH ACCESSES:    1623590 HITS:     115614 MISSES:    1507976
LLC WRITEBACK ACCESSES:    8992145 HITS:     764828 MISSES:    8227317
LLC 0 RQ ACCESS:   10518408
LLC 0 RQ TO_CACHE:   10518397
LLC 0 RQ MERGED:          0
LLC 0 RQ FORWARD:          0
LLC WQ ACCESS:    8992145
LLC WQ TO_CACHE:    8992145
LLC WQ MERGED:          0
LLC WQ FORWARD:         11
Major fault: 0 Minor fault: 102360
CPU 0 L1D next line prefetcher final stats
CPU 0 L2C PC-based stride prefetcher final stats
All Misses: 23323639
All Hits: 1783330
SD Algo Stats - Switches: 0 SRR-Repls: 1638195 BRR-Repls: 0

DRAM Statistics
 CHANNEL 0
 RQ ROW_BUFFER_HIT:    3716722  ROW_BUFFER_MISS:    7656701
 DBUS_CONGESTED:   13574345
 WQ ROW_BUFFER_HIT:    1432568  ROW_BUFFER_MISS:    6978004  FULL:          0

 AVG_CONGESTED_CYCLE: 13
LOADS RETIRED: 124982196
INSTR RETIRED: 500000000
