
*** ChampSim Multicore Out-of-Order Simulator ***

Warmup Instructions: 100000000
Simulation Instructions: 500000000
Number of CPUs: 1
LLC sets: 2048
LLC ways: 16
Clean RRIP Policies: 1213030112130301 Dirty RRIP Policies: 2213130122131301 PSEL Width: 10 Track Set: 4294967295 PSEL Mask: 1 Demote Mask: 3340211033402110DS Algo: 0Window size: 0
Off-chip DRAM Size: 4096 MB Channels: 1 Width: 64-bit Data Rate: 1600 MT/s

CPU 0 runs /mnt/beegfs/iconst01/spec2017/Blender.trace.gz
NOT SORTED
TRACE STRING: /mnt/beegfs/iconst01/spec2017/Blender.trace.gz
SORTED
TRACE STRING: /mnt/beegfs/iconst01/spec2017/Blender.trace.gz
INITIAL
TRACE STRING: /mnt/beegfs/iconst01/spec2017/Blender.trace.gz

champsim_seed used: 700

CPU 0 L1D next line prefetcher
CPU 0 L2C IP-based stride prefetcher
Initialize DRRIP state
Assign rand_sets[0]: 454  LLC: 2048
rand_sets[0]: 454
Assign rand_sets[1]: 1662  LLC: 2048
rand_sets[1]: 1662
Assign rand_sets[2]: 1921  LLC: 2048
rand_sets[2]: 1921
Assign rand_sets[3]: 1131  LLC: 2048
rand_sets[3]: 1131
Assign rand_sets[4]: 331  LLC: 2048
rand_sets[4]: 331
Assign rand_sets[5]: 1531  LLC: 2048
rand_sets[5]: 1531
Assign rand_sets[6]: 482  LLC: 2048
rand_sets[6]: 482
Assign rand_sets[7]: 1275  LLC: 2048
rand_sets[7]: 1275
Assign rand_sets[8]: 1876  LLC: 2048
rand_sets[8]: 1876
Assign rand_sets[9]: 2038  LLC: 2048
rand_sets[9]: 2038
Assign rand_sets[10]: 701  LLC: 2048
rand_sets[10]: 701
Assign rand_sets[11]: 479  LLC: 2048
rand_sets[11]: 479
Assign rand_sets[12]: 892  LLC: 2048
rand_sets[12]: 892
Assign rand_sets[13]: 1820  LLC: 2048
rand_sets[13]: 1820
Assign rand_sets[14]: 1505  LLC: 2048
rand_sets[14]: 1505
Assign rand_sets[15]: 1159  LLC: 2048
rand_sets[15]: 1159
Assign rand_sets[16]: 513  LLC: 2048
rand_sets[16]: 513
Assign rand_sets[17]: 703  LLC: 2048
rand_sets[17]: 703
Assign rand_sets[18]: 561  LLC: 2048
rand_sets[18]: 561
Assign rand_sets[19]: 990  LLC: 2048
rand_sets[19]: 990
Assign rand_sets[20]: 342  LLC: 2048
rand_sets[20]: 342
Assign rand_sets[21]: 882  LLC: 2048
rand_sets[21]: 882
Assign rand_sets[22]: 15  LLC: 2048
rand_sets[22]: 15
Assign rand_sets[23]: 71  LLC: 2048
rand_sets[23]: 71
Assign rand_sets[24]: 1127  LLC: 2048
rand_sets[24]: 1127
Assign rand_sets[25]: 1382  LLC: 2048
rand_sets[25]: 1382
Assign rand_sets[26]: 647  LLC: 2048
rand_sets[26]: 647
Assign rand_sets[27]: 857  LLC: 2048
rand_sets[27]: 857
Assign rand_sets[28]: 1450  LLC: 2048
rand_sets[28]: 1450
Assign rand_sets[29]: 1160  LLC: 2048
rand_sets[29]: 1160
Assign rand_sets[30]: 1852  LLC: 2048
rand_sets[30]: 1852
Assign rand_sets[31]: 1881  LLC: 2048
rand_sets[31]: 1881
Assign rand_sets[32]: 1770  LLC: 2048
rand_sets[32]: 1770
Assign rand_sets[33]: 1622  LLC: 2048
rand_sets[33]: 1622
Assign rand_sets[34]: 275  LLC: 2048
rand_sets[34]: 275
Assign rand_sets[35]: 635  LLC: 2048
rand_sets[35]: 635
Assign rand_sets[36]: 466  LLC: 2048
rand_sets[36]: 466
Assign rand_sets[37]: 1413  LLC: 2048
rand_sets[37]: 1413
Assign rand_sets[38]: 417  LLC: 2048
rand_sets[38]: 417
Assign rand_sets[39]: 472  LLC: 2048
rand_sets[39]: 472
Assign rand_sets[40]: 1340  LLC: 2048
rand_sets[40]: 1340
Assign rand_sets[41]: 852  LLC: 2048
rand_sets[41]: 852
Assign rand_sets[42]: 1365  LLC: 2048
rand_sets[42]: 1365
Assign rand_sets[43]: 47  LLC: 2048
rand_sets[43]: 47
Assign rand_sets[44]: 823  LLC: 2048
rand_sets[44]: 823
Assign rand_sets[45]: 686  LLC: 2048
rand_sets[45]: 686
Assign rand_sets[46]: 1637  LLC: 2048
rand_sets[46]: 1637
Assign rand_sets[47]: 1115  LLC: 2048
rand_sets[47]: 1115
Assign rand_sets[48]: 986  LLC: 2048
rand_sets[48]: 986
Assign rand_sets[49]: 258  LLC: 2048
rand_sets[49]: 258
Assign rand_sets[50]: 633  LLC: 2048
rand_sets[50]: 633
Assign rand_sets[51]: 920  LLC: 2048
rand_sets[51]: 920
Assign rand_sets[52]: 204  LLC: 2048
rand_sets[52]: 204
Assign rand_sets[53]: 227  LLC: 2048
rand_sets[53]: 227
Assign rand_sets[54]: 1818  LLC: 2048
rand_sets[54]: 1818
Assign rand_sets[55]: 886  LLC: 2048
rand_sets[55]: 886
Assign rand_sets[56]: 1422  LLC: 2048
rand_sets[56]: 1422
Assign rand_sets[57]: 607  LLC: 2048
rand_sets[57]: 607
Assign rand_sets[58]: 217  LLC: 2048
rand_sets[58]: 217
Assign rand_sets[59]: 1945  LLC: 2048
rand_sets[59]: 1945
Assign rand_sets[60]: 143  LLC: 2048
rand_sets[60]: 143
Assign rand_sets[61]: 1311  LLC: 2048
rand_sets[61]: 1311
Assign rand_sets[62]: 319  LLC: 2048
rand_sets[62]: 319
Assign rand_sets[63]: 1846  LLC: 2048
rand_sets[63]: 1846
 CLEAN-RRIP-POLICY-1: 1-2-1-3-0-3-0-1- CLEAN-RRIP-POLICY-2: 1-2-1-3-0-3-0-1-
 DIRTY-RRIP-POLICY-1: 2-2-1-3-1-3-0-1- DIRTY-RRIP-POLICY-2: 2-2-1-3-1-3-0-1-
 PSEL width: 10
Heartbeat CPU 0 instructions: 10000002 cycles: 5480930 heartbeat IPC: 1.82451 cumulative IPC: 1.82451 (Simulation time: 0 hr 0 min 13 sec) 
Heartbeat CPU 0 instructions: 20000000 cycles: 10913520 heartbeat IPC: 1.84074 cumulative IPC: 1.83259 (Simulation time: 0 hr 0 min 26 sec) 
Heartbeat CPU 0 instructions: 30000000 cycles: 16447384 heartbeat IPC: 1.80706 cumulative IPC: 1.824 (Simulation time: 0 hr 0 min 38 sec) 
Heartbeat CPU 0 instructions: 40000000 cycles: 21898150 heartbeat IPC: 1.8346 cumulative IPC: 1.82664 (Simulation time: 0 hr 0 min 51 sec) 
Heartbeat CPU 0 instructions: 50000000 cycles: 27400042 heartbeat IPC: 1.81756 cumulative IPC: 1.82481 (Simulation time: 0 hr 1 min 3 sec) 
Heartbeat CPU 0 instructions: 60000000 cycles: 32778877 heartbeat IPC: 1.85914 cumulative IPC: 1.83045 (Simulation time: 0 hr 1 min 16 sec) 
Heartbeat CPU 0 instructions: 70000001 cycles: 38335183 heartbeat IPC: 1.79976 cumulative IPC: 1.826 (Simulation time: 0 hr 1 min 29 sec) 
Heartbeat CPU 0 instructions: 80000000 cycles: 43795365 heartbeat IPC: 1.83144 cumulative IPC: 1.82668 (Simulation time: 0 hr 1 min 42 sec) 
Heartbeat CPU 0 instructions: 90000000 cycles: 49242077 heartbeat IPC: 1.83597 cumulative IPC: 1.82771 (Simulation time: 0 hr 1 min 54 sec) 
Heartbeat CPU 0 instructions: 100000000 cycles: 54787163 heartbeat IPC: 1.8034 cumulative IPC: 1.82525 (Simulation time: 0 hr 2 min 7 sec) 

Warmup complete CPU 0 instructions: 100000002 cycles: 54787164 (Simulation time: 0 hr 2 min 7 sec) 

Heartbeat CPU 0 instructions: 110000001 cycles: 69186534 heartbeat IPC: 0.694475 cumulative IPC: 0.694475 (Simulation time: 0 hr 2 min 25 sec) 
Heartbeat CPU 0 instructions: 120000000 cycles: 84194500 heartbeat IPC: 0.666313 cumulative IPC: 0.680102 (Simulation time: 0 hr 2 min 43 sec) 
Heartbeat CPU 0 instructions: 130000000 cycles: 98696864 heartbeat IPC: 0.689543 cumulative IPC: 0.68322 (Simulation time: 0 hr 3 min 2 sec) 
Heartbeat CPU 0 instructions: 140000000 cycles: 113038708 heartbeat IPC: 0.69726 cumulative IPC: 0.686677 (Simulation time: 0 hr 3 min 20 sec) 
Heartbeat CPU 0 instructions: 150000000 cycles: 127749239 heartbeat IPC: 0.679785 cumulative IPC: 0.685287 (Simulation time: 0 hr 3 min 38 sec) 
Heartbeat CPU 0 instructions: 160000000 cycles: 142870745 heartbeat IPC: 0.66131 cumulative IPC: 0.681171 (Simulation time: 0 hr 3 min 56 sec) 
Heartbeat CPU 0 instructions: 170000001 cycles: 157733879 heartbeat IPC: 0.672806 cumulative IPC: 0.679963 (Simulation time: 0 hr 4 min 14 sec) 
Heartbeat CPU 0 instructions: 180000000 cycles: 172664528 heartbeat IPC: 0.669763 cumulative IPC: 0.678671 (Simulation time: 0 hr 4 min 32 sec) 
Heartbeat CPU 0 instructions: 190000002 cycles: 187146486 heartbeat IPC: 0.690515 cumulative IPC: 0.679967 (Simulation time: 0 hr 4 min 51 sec) 
Heartbeat CPU 0 instructions: 200000000 cycles: 201505107 heartbeat IPC: 0.696446 cumulative IPC: 0.68158 (Simulation time: 0 hr 5 min 9 sec) 
Heartbeat CPU 0 instructions: 210000003 cycles: 216128446 heartbeat IPC: 0.683839 cumulative IPC: 0.681785 (Simulation time: 0 hr 5 min 27 sec) 
Heartbeat CPU 0 instructions: 220000000 cycles: 230825997 heartbeat IPC: 0.680385 cumulative IPC: 0.681668 (Simulation time: 0 hr 5 min 46 sec) 
Heartbeat CPU 0 instructions: 230000001 cycles: 245942158 heartbeat IPC: 0.661544 cumulative IPC: 0.680076 (Simulation time: 0 hr 6 min 4 sec) 
Heartbeat CPU 0 instructions: 240000000 cycles: 260859839 heartbeat IPC: 0.670345 cumulative IPC: 0.679372 (Simulation time: 0 hr 6 min 22 sec) 
Heartbeat CPU 0 instructions: 250000003 cycles: 275684722 heartbeat IPC: 0.674542 cumulative IPC: 0.679048 (Simulation time: 0 hr 6 min 40 sec) 
Heartbeat CPU 0 instructions: 260000000 cycles: 291170106 heartbeat IPC: 0.64577 cumulative IPC: 0.676868 (Simulation time: 0 hr 6 min 59 sec) 
Heartbeat CPU 0 instructions: 270000003 cycles: 305763335 heartbeat IPC: 0.68525 cumulative IPC: 0.677355 (Simulation time: 0 hr 7 min 17 sec) 
Heartbeat CPU 0 instructions: 280000000 cycles: 320252945 heartbeat IPC: 0.690149 cumulative IPC: 0.678053 (Simulation time: 0 hr 7 min 35 sec) 
Heartbeat CPU 0 instructions: 290000002 cycles: 334702284 heartbeat IPC: 0.692073 cumulative IPC: 0.678777 (Simulation time: 0 hr 7 min 54 sec) 
Heartbeat CPU 0 instructions: 300000000 cycles: 350092287 heartbeat IPC: 0.649772 cumulative IPC: 0.677266 (Simulation time: 0 hr 8 min 12 sec) 
Heartbeat CPU 0 instructions: 310000000 cycles: 365064795 heartbeat IPC: 0.667891 cumulative IPC: 0.676813 (Simulation time: 0 hr 8 min 30 sec) 
Heartbeat CPU 0 instructions: 320000000 cycles: 379875649 heartbeat IPC: 0.67518 cumulative IPC: 0.676739 (Simulation time: 0 hr 8 min 48 sec) 
Heartbeat CPU 0 instructions: 330000000 cycles: 395646310 heartbeat IPC: 0.634089 cumulative IPC: 0.674766 (Simulation time: 0 hr 9 min 7 sec) 
Heartbeat CPU 0 instructions: 340000000 cycles: 410286932 heartbeat IPC: 0.683031 cumulative IPC: 0.675106 (Simulation time: 0 hr 9 min 25 sec) 
Heartbeat CPU 0 instructions: 350000000 cycles: 424922055 heartbeat IPC: 0.683288 cumulative IPC: 0.675429 (Simulation time: 0 hr 9 min 43 sec) 
Heartbeat CPU 0 instructions: 360000000 cycles: 439589365 heartbeat IPC: 0.681788 cumulative IPC: 0.675672 (Simulation time: 0 hr 10 min 1 sec) 
Heartbeat CPU 0 instructions: 370000002 cycles: 455007376 heartbeat IPC: 0.648592 cumulative IPC: 0.674629 (Simulation time: 0 hr 10 min 19 sec) 
Heartbeat CPU 0 instructions: 380000000 cycles: 469860184 heartbeat IPC: 0.673273 cumulative IPC: 0.67458 (Simulation time: 0 hr 10 min 38 sec) 
Heartbeat CPU 0 instructions: 390000003 cycles: 484817956 heartbeat IPC: 0.668549 cumulative IPC: 0.67437 (Simulation time: 0 hr 10 min 56 sec) 
Heartbeat CPU 0 instructions: 400000000 cycles: 500662719 heartbeat IPC: 0.631123 cumulative IPC: 0.672834 (Simulation time: 0 hr 11 min 14 sec) 
Heartbeat CPU 0 instructions: 410000001 cycles: 515683688 heartbeat IPC: 0.665736 cumulative IPC: 0.672602 (Simulation time: 0 hr 11 min 32 sec) 
Heartbeat CPU 0 instructions: 420000000 cycles: 530413669 heartbeat IPC: 0.678887 cumulative IPC: 0.672797 (Simulation time: 0 hr 11 min 50 sec) 
Heartbeat CPU 0 instructions: 430000000 cycles: 545834200 heartbeat IPC: 0.648486 cumulative IPC: 0.672033 (Simulation time: 0 hr 12 min 9 sec) 
Heartbeat CPU 0 instructions: 440000000 cycles: 560637177 heartbeat IPC: 0.67554 cumulative IPC: 0.672136 (Simulation time: 0 hr 12 min 27 sec) 
Heartbeat CPU 0 instructions: 450000000 cycles: 575613966 heartbeat IPC: 0.6677 cumulative IPC: 0.672008 (Simulation time: 0 hr 12 min 45 sec) 
Heartbeat CPU 0 instructions: 460000000 cycles: 591346922 heartbeat IPC: 0.635608 cumulative IPC: 0.670941 (Simulation time: 0 hr 13 min 3 sec) 
Heartbeat CPU 0 instructions: 470000000 cycles: 606422055 heartbeat IPC: 0.663344 cumulative IPC: 0.670734 (Simulation time: 0 hr 13 min 21 sec) 
Heartbeat CPU 0 instructions: 480000000 cycles: 621297094 heartbeat IPC: 0.672267 cumulative IPC: 0.670774 (Simulation time: 0 hr 13 min 39 sec) 
Heartbeat CPU 0 instructions: 490000002 cycles: 636558490 heartbeat IPC: 0.655248 cumulative IPC: 0.670366 (Simulation time: 0 hr 13 min 57 sec) 
Heartbeat CPU 0 instructions: 500000000 cycles: 651430209 heartbeat IPC: 0.672417 cumulative IPC: 0.670418 (Simulation time: 0 hr 14 min 15 sec) 
Heartbeat CPU 0 instructions: 510000001 cycles: 666536756 heartbeat IPC: 0.661965 cumulative IPC: 0.670209 (Simulation time: 0 hr 14 min 33 sec) 
Heartbeat CPU 0 instructions: 520000000 cycles: 682003225 heartbeat IPC: 0.64656 cumulative IPC: 0.669626 (Simulation time: 0 hr 14 min 51 sec) 
Heartbeat CPU 0 instructions: 530000001 cycles: 697429772 heartbeat IPC: 0.648233 cumulative IPC: 0.669112 (Simulation time: 0 hr 15 min 9 sec) 
Heartbeat CPU 0 instructions: 540000000 cycles: 712015910 heartbeat IPC: 0.685582 cumulative IPC: 0.669478 (Simulation time: 0 hr 15 min 27 sec) 
Heartbeat CPU 0 instructions: 550000001 cycles: 727277441 heartbeat IPC: 0.655242 cumulative IPC: 0.669155 (Simulation time: 0 hr 15 min 45 sec) 
Heartbeat CPU 0 instructions: 560000000 cycles: 742085117 heartbeat IPC: 0.675325 cumulative IPC: 0.669288 (Simulation time: 0 hr 16 min 3 sec) 
Heartbeat CPU 0 instructions: 570000002 cycles: 757240048 heartbeat IPC: 0.659851 cumulative IPC: 0.669084 (Simulation time: 0 hr 16 min 21 sec) 
Heartbeat CPU 0 instructions: 580000000 cycles: 772248177 heartbeat IPC: 0.666305 cumulative IPC: 0.669026 (Simulation time: 0 hr 16 min 39 sec) 
Heartbeat CPU 0 instructions: 590000001 cycles: 787251928 heartbeat IPC: 0.6665 cumulative IPC: 0.668974 (Simulation time: 0 hr 16 min 57 sec) 
Heartbeat CPU 0 instructions: 600000000 cycles: 801910109 heartbeat IPC: 0.682213 cumulative IPC: 0.669234 (Simulation time: 0 hr 17 min 15 sec) 
Finished CPU 0 instructions: 500000000 cycles: 747122953 cumulative IPC: 0.669234 (Simulation time: 0 hr 17 min 15 sec) 

CPU 0 Branch Prediction Accuracy: 93.7783% MPKI: 10.0718
Number of Branches: 80940586 Number of Mispredictions: 5035908
Number of LOAD Instructions: 184238101
Number of LOAD Instructions (ROI): 184238101
Number of STORE Instructions: 33143298
Number of STORE Instructions (ROI): 33143298
Total Destination Memory Operands: 33324321
Total Destination Memory Operands (ROI): 33324321
Total Source Memory Operands: 184238101
Total Source Memory Operands (ROI): 184238101
Number of DEPENDED LOADS: 4461450
Number of DEPENDED LOADS (ROI): 4461450
Number of SQ_ADDED: 33324292
Number of SQ_ADDED (ROI): 33324292
Number of LQ_ADDED: 184868152
Number of LQ_ADDED (ROI): 184868152
Number of Instructions read from trace: 600000256

ChampSim completed all CPUs

Region of Interest Statistics

CPU 0 cumulative IPC: 0.669234 instructions: 500000000 cycles: 747122953
ITLB TOTAL     ACCESS:   77746107  HIT:   77746107  MISS:          0
ITLB LOAD      ACCESS:   77746107  HIT:   77746107  MISS:          0
ITLB RFO       ACCESS:          0  HIT:          0  MISS:          0
ITLB PREFETCH  ACCESS:          0  HIT:          0  MISS:          0
ITLB WRITEBACK ACCESS:          0  HIT:          0  MISS:          0
ITLB PREFETCH  REQUESTED:          0  ISSUED:          0  USEFUL:          0  USELESS:          0
ITLB TOTAL MSHR MERGED:          0
ITLB LOAD MSHR MERGED:          0
ITLB RFO MSHR MERGED:          0
ITLB PREFETCH MSHR MERGED:          0
ITLB WRITEBACK MSHR MERGED:          0
ITLB TOTAL ACCESSES:   77746107 HITS:   77746107 MISSES:          0
ITLB LOAD ACCESSES:   77746107 HITS:   77746107 MISSES:          0
ITLB RFO ACCESSES:          0 HITS:          0 MISSES:          0
ITLB PREFETCH ACCESSES:          0 HITS:          0 MISSES:          0
ITLB WRITEBACK ACCESSES:          0 HITS:          0 MISSES:          0
ITLB RQ ACCESS:  500000245
ITLB RQ TO_CACHE:   77746107
ITLB RQ MERGED:  422254138
ITLB RQ FORWARD:          0
ITLB WQ ACCESS:          0
ITLB WQ TO_CACHE:          0
ITLB WQ MERGED:          0
ITLB WQ FORWARD:          0
DTLB TOTAL     ACCESS:   88436890  HIT:   87300040  MISS:    1136850
DTLB LOAD      ACCESS:   66310257  HIT:   65177647  MISS:    1132610
DTLB RFO       ACCESS:   22126633  HIT:   22122393  MISS:       4240
DTLB PREFETCH  ACCESS:          0  HIT:          0  MISS:          0
DTLB WRITEBACK ACCESS:          0  HIT:          0  MISS:          0
DTLB PREFETCH  REQUESTED:          0  ISSUED:          0  USEFUL:          0  USELESS:          0
DTLB TOTAL MSHR MERGED:     135522
DTLB LOAD MSHR MERGED:     133705
DTLB RFO MSHR MERGED:       1817
DTLB PREFETCH MSHR MERGED:          0
DTLB WRITEBACK MSHR MERGED:          0
DTLB TOTAL ACCESSES:   88572412 HITS:   87300040 MISSES:    1272372
DTLB LOAD ACCESSES:   66443962 HITS:   65177647 MISSES:    1266315
DTLB RFO ACCESSES:   22128450 HITS:   22122393 MISSES:       6057
DTLB PREFETCH ACCESSES:          0 HITS:          0 MISSES:          0
DTLB WRITEBACK ACCESSES:          0 HITS:          0 MISSES:          0
DTLB RQ ACCESS:  177579281
DTLB RQ TO_CACHE:   88572412
DTLB RQ MERGED:   89006869
DTLB RQ FORWARD:          0
DTLB WQ ACCESS:          0
DTLB WQ TO_CACHE:          0
DTLB WQ MERGED:          0
DTLB WQ FORWARD:          0
L1D TOTAL     ACCESS:  142075498  HIT:  136516456  MISS:    5559042
L1D LOAD      ACCESS:   61384191  HIT:   58274664  MISS:    3109527
L1D RFO       ACCESS:   27668410  HIT:   27586601  MISS:      81809
L1D PREFETCH  ACCESS:   53022897  HIT:   50655191  MISS:    2367706
L1D WRITEBACK ACCESS:          0  HIT:          0  MISS:          0
L1D PREFETCH  REQUESTED:   61670636  ISSUED:   60752463  USEFUL:     660834  USELESS:    1706877
L1D TOTAL MSHR MERGED:    1204740
L1D LOAD MSHR MERGED:     390331
L1D RFO MSHR MERGED:     164674
L1D PREFETCH MSHR MERGED:     649735
L1D WRITEBACK MSHR MERGED:          0
L1D TOTAL ACCESSES:  143377852 HITS:  136614070 MISSES:    6763782
L1D LOAD ACCESSES:   61670646 HITS:   58274674 MISSES:    3395972
L1D RFO ACCESSES:   27829288 HITS:   27586601 MISSES:     242687
L1D PREFETCH ACCESSES:   53877918 HITS:   50752795 MISSES:    3125123
L1D WRITEBACK ACCESSES:          0 HITS:          0 MISSES:          0
L1D RQ ACCESS:  149746315
L1D RQ TO_CACHE:   61670636
L1D RQ MERGED:   88075669
L1D RQ FORWARD:          0
L1D WQ ACCESS:   27832966
L1D WQ TO_CACHE:   27829288
L1D WQ MERGED:       3678
L1D WQ FORWARD:      97614
L1I TOTAL     ACCESS:   96223462  HIT:   96064196  MISS:     159266
L1I LOAD      ACCESS:   96223462  HIT:   96064196  MISS:     159266
L1I RFO       ACCESS:          0  HIT:          0  MISS:          0
L1I PREFETCH  ACCESS:          0  HIT:          0  MISS:          0
L1I WRITEBACK ACCESS:          0  HIT:          0  MISS:          0
L1I PREFETCH  REQUESTED:          0  ISSUED:          0  USEFUL:          0  USELESS:          0
L1I TOTAL MSHR MERGED:     130250
L1I LOAD MSHR MERGED:     130250
L1I RFO MSHR MERGED:          0
L1I PREFETCH MSHR MERGED:          0
L1I WRITEBACK MSHR MERGED:          0
L1I TOTAL ACCESSES:   96353712 HITS:   96064196 MISSES:     289516
L1I LOAD ACCESSES:   96353712 HITS:   96064196 MISSES:     289516
L1I RFO ACCESSES:          0 HITS:          0 MISSES:          0
L1I PREFETCH ACCESSES:          0 HITS:          0 MISSES:          0
L1I WRITEBACK ACCESSES:          0 HITS:          0 MISSES:          0
L1I RQ ACCESS:  500000245
L1I RQ TO_CACHE:   96353712
L1I RQ MERGED:  403646533
L1I RQ FORWARD:          0
L1I WQ ACCESS:          0
L1I WQ TO_CACHE:          0
L1I WQ MERGED:          0
L1I WQ FORWARD:          0
L2C TOTAL     ACCESS:    5910873  HIT:    3062198  MISS:    2848675
L2C LOAD      ACCESS:    3164897  HIT:    1582997  MISS:    1581900
L2C RFO       ACCESS:      77938  HIT:      45085  MISS:      32853
L2C PREFETCH  ACCESS:    2524511  HIT:    1296173  MISS:    1228338
L2C WRITEBACK ACCESS:     143527  HIT:     137943  MISS:       5584
L2C PREFETCH  REQUESTED:      52724  ISSUED:      52724  USEFUL:      18648  USELESS:    1209730
L2C TOTAL MSHR MERGED:       2670
L2C LOAD MSHR MERGED:        960
L2C RFO MSHR MERGED:          0
L2C PREFETCH MSHR MERGED:       1710
L2C WRITEBACK MSHR MERGED:          0
L2C TOTAL ACCESSES:    5913633 HITS:    3062283 MISSES:    2851350
L2C LOAD ACCESSES:    3164907 HITS:    1583007 MISSES:    1581900
L2C RFO ACCESSES:      78013 HITS:      45160 MISSES:      32853
L2C PREFETCH ACCESSES:    2527186 HITS:    1296173 MISSES:    1231013
L2C WRITEBACK ACCESSES:     143527 HITS:     137943 MISSES:       5584
L2C RQ ACCESS:    3242920
L2C RQ TO_CACHE:    3242835
L2C RQ MERGED:          0
L2C RQ FORWARD:          0
L2C WQ ACCESS:     143527
L2C WQ TO_CACHE:     143527
L2C WQ MERGED:          0
L2C WQ FORWARD:         85
LLC TOTAL     ACCESS:    2892633  HIT:    1791972  MISS:    1100661
LLC LOAD      ACCESS:    1580940  HIT:    1134188  MISS:     446752
LLC RFO       ACCESS:      32844  HIT:      31823  MISS:       1021
LLC PREFETCH  ACCESS:    1229303  HIT:     578373  MISS:     650930
LLC WRITEBACK ACCESS:      49546  HIT:      47588  MISS:       1958
LLC PREFETCH  REQUESTED:          0  ISSUED:          0  USEFUL:       3019  USELESS:     647874
LLC TOTAL MSHR MERGED:          0
LLC LOAD MSHR MERGED:          0
LLC RFO MSHR MERGED:          0
LLC PREFETCH MSHR MERGED:          0
LLC WRITEBACK MSHR MERGED:          0
LLC TOTAL ACCESSES:    2892642 HITS:    1791981 MISSES:    1100661
LLC LOAD ACCESSES:    1580940 HITS:    1134188 MISSES:     446752
LLC RFO ACCESSES:      32853 HITS:      31832 MISSES:       1021
LLC PREFETCH ACCESSES:    1229303 HITS:     578373 MISSES:     650930
LLC WRITEBACK ACCESSES:      49546 HITS:      47588 MISSES:       1958
LLC 0 RQ ACCESS:    1613793
LLC 0 RQ TO_CACHE:    1613784
LLC 0 RQ MERGED:          0
LLC 0 RQ FORWARD:          0
LLC WQ ACCESS:      49546
LLC WQ TO_CACHE:      49546
LLC WQ MERGED:          0
LLC WQ FORWARD:          9
Major fault: 0 Minor fault: 8460
CPU 0 L1D next line prefetcher final stats
CPU 0 L2C PC-based stride prefetcher final stats
All Misses: 1334082
All Hits: 2095147
SD Algo Stats - Switches: 0 SRR-Repls: 517932 BRR-Repls: 0

DRAM Statistics
 CHANNEL 0
 RQ ROW_BUFFER_HIT:     373814  ROW_BUFFER_MISS:     723908
 DBUS_CONGESTED:     332541
 WQ ROW_BUFFER_HIT:        444  ROW_BUFFER_MISS:       1579  FULL:          0

 AVG_CONGESTED_CYCLE: 12
LOADS RETIRED: 153532848
INSTR RETIRED: 500000000
