
*** ChampSim Multicore Out-of-Order Simulator ***

Warmup Instructions: 100000000
Simulation Instructions: 500000000
Number of CPUs: 1
LLC sets: 2048
LLC ways: 16
Clean RRIP Policies: 1013230110132301 Dirty RRIP Policies: 2013031120130311 PSEL Width: 10 Track Set: 4294967295 PSEL Mask: 1 Demote Mask: 4340013143400131DS Algo: 0Window size: 0
Off-chip DRAM Size: 4096 MB Channels: 1 Width: 64-bit Data Rate: 1600 MT/s

CPU 0 runs /mnt/beegfs/iconst01/spec2017/Omnetpp.trace.gz
NOT SORTED
TRACE STRING: /mnt/beegfs/iconst01/spec2017/Omnetpp.trace.gz
SORTED
TRACE STRING: /mnt/beegfs/iconst01/spec2017/Omnetpp.trace.gz
INITIAL
TRACE STRING: /mnt/beegfs/iconst01/spec2017/Omnetpp.trace.gz

champsim_seed used: 739

CPU 0 L1D next line prefetcher
CPU 0 L2C IP-based stride prefetcher
Initialize DRRIP state
Assign rand_sets[0]: 454  LLC: 2048
rand_sets[0]: 454
Assign rand_sets[1]: 1662  LLC: 2048
rand_sets[1]: 1662
Assign rand_sets[2]: 1921  LLC: 2048
rand_sets[2]: 1921
Assign rand_sets[3]: 1131  LLC: 2048
rand_sets[3]: 1131
Assign rand_sets[4]: 331  LLC: 2048
rand_sets[4]: 331
Assign rand_sets[5]: 1531  LLC: 2048
rand_sets[5]: 1531
Assign rand_sets[6]: 482  LLC: 2048
rand_sets[6]: 482
Assign rand_sets[7]: 1275  LLC: 2048
rand_sets[7]: 1275
Assign rand_sets[8]: 1876  LLC: 2048
rand_sets[8]: 1876
Assign rand_sets[9]: 2038  LLC: 2048
rand_sets[9]: 2038
Assign rand_sets[10]: 701  LLC: 2048
rand_sets[10]: 701
Assign rand_sets[11]: 479  LLC: 2048
rand_sets[11]: 479
Assign rand_sets[12]: 892  LLC: 2048
rand_sets[12]: 892
Assign rand_sets[13]: 1820  LLC: 2048
rand_sets[13]: 1820
Assign rand_sets[14]: 1505  LLC: 2048
rand_sets[14]: 1505
Assign rand_sets[15]: 1159  LLC: 2048
rand_sets[15]: 1159
Assign rand_sets[16]: 513  LLC: 2048
rand_sets[16]: 513
Assign rand_sets[17]: 703  LLC: 2048
rand_sets[17]: 703
Assign rand_sets[18]: 561  LLC: 2048
rand_sets[18]: 561
Assign rand_sets[19]: 990  LLC: 2048
rand_sets[19]: 990
Assign rand_sets[20]: 342  LLC: 2048
rand_sets[20]: 342
Assign rand_sets[21]: 882  LLC: 2048
rand_sets[21]: 882
Assign rand_sets[22]: 15  LLC: 2048
rand_sets[22]: 15
Assign rand_sets[23]: 71  LLC: 2048
rand_sets[23]: 71
Assign rand_sets[24]: 1127  LLC: 2048
rand_sets[24]: 1127
Assign rand_sets[25]: 1382  LLC: 2048
rand_sets[25]: 1382
Assign rand_sets[26]: 647  LLC: 2048
rand_sets[26]: 647
Assign rand_sets[27]: 857  LLC: 2048
rand_sets[27]: 857
Assign rand_sets[28]: 1450  LLC: 2048
rand_sets[28]: 1450
Assign rand_sets[29]: 1160  LLC: 2048
rand_sets[29]: 1160
Assign rand_sets[30]: 1852  LLC: 2048
rand_sets[30]: 1852
Assign rand_sets[31]: 1881  LLC: 2048
rand_sets[31]: 1881
Assign rand_sets[32]: 1770  LLC: 2048
rand_sets[32]: 1770
Assign rand_sets[33]: 1622  LLC: 2048
rand_sets[33]: 1622
Assign rand_sets[34]: 275  LLC: 2048
rand_sets[34]: 275
Assign rand_sets[35]: 635  LLC: 2048
rand_sets[35]: 635
Assign rand_sets[36]: 466  LLC: 2048
rand_sets[36]: 466
Assign rand_sets[37]: 1413  LLC: 2048
rand_sets[37]: 1413
Assign rand_sets[38]: 417  LLC: 2048
rand_sets[38]: 417
Assign rand_sets[39]: 472  LLC: 2048
rand_sets[39]: 472
Assign rand_sets[40]: 1340  LLC: 2048
rand_sets[40]: 1340
Assign rand_sets[41]: 852  LLC: 2048
rand_sets[41]: 852
Assign rand_sets[42]: 1365  LLC: 2048
rand_sets[42]: 1365
Assign rand_sets[43]: 47  LLC: 2048
rand_sets[43]: 47
Assign rand_sets[44]: 823  LLC: 2048
rand_sets[44]: 823
Assign rand_sets[45]: 686  LLC: 2048
rand_sets[45]: 686
Assign rand_sets[46]: 1637  LLC: 2048
rand_sets[46]: 1637
Assign rand_sets[47]: 1115  LLC: 2048
rand_sets[47]: 1115
Assign rand_sets[48]: 986  LLC: 2048
rand_sets[48]: 986
Assign rand_sets[49]: 258  LLC: 2048
rand_sets[49]: 258
Assign rand_sets[50]: 633  LLC: 2048
rand_sets[50]: 633
Assign rand_sets[51]: 920  LLC: 2048
rand_sets[51]: 920
Assign rand_sets[52]: 204  LLC: 2048
rand_sets[52]: 204
Assign rand_sets[53]: 227  LLC: 2048
rand_sets[53]: 227
Assign rand_sets[54]: 1818  LLC: 2048
rand_sets[54]: 1818
Assign rand_sets[55]: 886  LLC: 2048
rand_sets[55]: 886
Assign rand_sets[56]: 1422  LLC: 2048
rand_sets[56]: 1422
Assign rand_sets[57]: 607  LLC: 2048
rand_sets[57]: 607
Assign rand_sets[58]: 217  LLC: 2048
rand_sets[58]: 217
Assign rand_sets[59]: 1945  LLC: 2048
rand_sets[59]: 1945
Assign rand_sets[60]: 143  LLC: 2048
rand_sets[60]: 143
Assign rand_sets[61]: 1311  LLC: 2048
rand_sets[61]: 1311
Assign rand_sets[62]: 319  LLC: 2048
rand_sets[62]: 319
Assign rand_sets[63]: 1846  LLC: 2048
rand_sets[63]: 1846
 CLEAN-RRIP-POLICY-1: 1-0-1-3-2-3-0-1- CLEAN-RRIP-POLICY-2: 1-0-1-3-2-3-0-1-
 DIRTY-RRIP-POLICY-1: 2-0-1-3-0-3-1-1- DIRTY-RRIP-POLICY-2: 2-0-1-3-0-3-1-1-
 PSEL width: 10
Heartbeat CPU 0 instructions: 10000000 cycles: 7320627 heartbeat IPC: 1.366 cumulative IPC: 1.366 (Simulation time: 0 hr 0 min 20 sec) 
Heartbeat CPU 0 instructions: 20000000 cycles: 14625534 heartbeat IPC: 1.36894 cumulative IPC: 1.36747 (Simulation time: 0 hr 0 min 40 sec) 
Heartbeat CPU 0 instructions: 30000003 cycles: 21928133 heartbeat IPC: 1.36938 cumulative IPC: 1.36811 (Simulation time: 0 hr 1 min 1 sec) 
Heartbeat CPU 0 instructions: 40000000 cycles: 29217352 heartbeat IPC: 1.37189 cumulative IPC: 1.36905 (Simulation time: 0 hr 1 min 21 sec) 
Heartbeat CPU 0 instructions: 50000000 cycles: 36495035 heartbeat IPC: 1.37406 cumulative IPC: 1.37005 (Simulation time: 0 hr 1 min 41 sec) 
Heartbeat CPU 0 instructions: 60000000 cycles: 43776419 heartbeat IPC: 1.37337 cumulative IPC: 1.3706 (Simulation time: 0 hr 2 min 2 sec) 
Heartbeat CPU 0 instructions: 70000001 cycles: 51063081 heartbeat IPC: 1.37237 cumulative IPC: 1.37085 (Simulation time: 0 hr 2 min 23 sec) 
Heartbeat CPU 0 instructions: 80000000 cycles: 58339271 heartbeat IPC: 1.37435 cumulative IPC: 1.37129 (Simulation time: 0 hr 2 min 43 sec) 
Heartbeat CPU 0 instructions: 90000000 cycles: 65646759 heartbeat IPC: 1.36846 cumulative IPC: 1.37097 (Simulation time: 0 hr 3 min 4 sec) 
Heartbeat CPU 0 instructions: 100000000 cycles: 72940087 heartbeat IPC: 1.37112 cumulative IPC: 1.37099 (Simulation time: 0 hr 3 min 24 sec) 

Warmup complete CPU 0 instructions: 100000002 cycles: 72940088 (Simulation time: 0 hr 3 min 24 sec) 

Heartbeat CPU 0 instructions: 110000002 cycles: 113831152 heartbeat IPC: 0.244552 cumulative IPC: 0.244552 (Simulation time: 0 hr 4 min 6 sec) 
Heartbeat CPU 0 instructions: 120000000 cycles: 154478269 heartbeat IPC: 0.24602 cumulative IPC: 0.245284 (Simulation time: 0 hr 4 min 48 sec) 
Heartbeat CPU 0 instructions: 130000002 cycles: 195316788 heartbeat IPC: 0.244867 cumulative IPC: 0.245145 (Simulation time: 0 hr 5 min 29 sec) 
Heartbeat CPU 0 instructions: 140000000 cycles: 236337053 heartbeat IPC: 0.243782 cumulative IPC: 0.244803 (Simulation time: 0 hr 6 min 11 sec) 
Heartbeat CPU 0 instructions: 150000002 cycles: 276890477 heartbeat IPC: 0.246588 cumulative IPC: 0.245158 (Simulation time: 0 hr 6 min 53 sec) 
Heartbeat CPU 0 instructions: 160000000 cycles: 317468616 heartbeat IPC: 0.246438 cumulative IPC: 0.24537 (Simulation time: 0 hr 7 min 34 sec) 
Heartbeat CPU 0 instructions: 170000001 cycles: 357252392 heartbeat IPC: 0.251359 cumulative IPC: 0.246208 (Simulation time: 0 hr 8 min 15 sec) 
Heartbeat CPU 0 instructions: 180000000 cycles: 397814248 heartbeat IPC: 0.246537 cumulative IPC: 0.246249 (Simulation time: 0 hr 8 min 57 sec) 
Heartbeat CPU 0 instructions: 190000002 cycles: 438340415 heartbeat IPC: 0.246754 cumulative IPC: 0.246305 (Simulation time: 0 hr 9 min 38 sec) 
Heartbeat CPU 0 instructions: 200000000 cycles: 480110284 heartbeat IPC: 0.239407 cumulative IPC: 0.245598 (Simulation time: 0 hr 10 min 20 sec) 
Heartbeat CPU 0 instructions: 210000003 cycles: 520680547 heartbeat IPC: 0.246486 cumulative IPC: 0.245678 (Simulation time: 0 hr 11 min 1 sec) 
Heartbeat CPU 0 instructions: 220000000 cycles: 561501355 heartbeat IPC: 0.244973 cumulative IPC: 0.245619 (Simulation time: 0 hr 11 min 43 sec) 
Heartbeat CPU 0 instructions: 230000000 cycles: 602284791 heartbeat IPC: 0.245198 cumulative IPC: 0.245587 (Simulation time: 0 hr 12 min 25 sec) 
Heartbeat CPU 0 instructions: 240000000 cycles: 642783179 heartbeat IPC: 0.246923 cumulative IPC: 0.245682 (Simulation time: 0 hr 13 min 5 sec) 
Heartbeat CPU 0 instructions: 250000000 cycles: 683361845 heartbeat IPC: 0.246435 cumulative IPC: 0.245732 (Simulation time: 0 hr 13 min 46 sec) 
Heartbeat CPU 0 instructions: 260000000 cycles: 724027266 heartbeat IPC: 0.245909 cumulative IPC: 0.245743 (Simulation time: 0 hr 14 min 27 sec) 
Heartbeat CPU 0 instructions: 270000000 cycles: 764788859 heartbeat IPC: 0.245329 cumulative IPC: 0.245718 (Simulation time: 0 hr 15 min 8 sec) 
Heartbeat CPU 0 instructions: 280000000 cycles: 805875777 heartbeat IPC: 0.243386 cumulative IPC: 0.245588 (Simulation time: 0 hr 15 min 49 sec) 
Heartbeat CPU 0 instructions: 290000001 cycles: 846145977 heartbeat IPC: 0.248323 cumulative IPC: 0.24573 (Simulation time: 0 hr 16 min 29 sec) 
Heartbeat CPU 0 instructions: 300000000 cycles: 887117020 heartbeat IPC: 0.244075 cumulative IPC: 0.245647 (Simulation time: 0 hr 17 min 9 sec) 
Heartbeat CPU 0 instructions: 310000000 cycles: 928088857 heartbeat IPC: 0.24407 cumulative IPC: 0.245571 (Simulation time: 0 hr 17 min 49 sec) 
Heartbeat CPU 0 instructions: 320000000 cycles: 968733355 heartbeat IPC: 0.246036 cumulative IPC: 0.245592 (Simulation time: 0 hr 18 min 28 sec) 
Heartbeat CPU 0 instructions: 330000000 cycles: 1009391907 heartbeat IPC: 0.245951 cumulative IPC: 0.245608 (Simulation time: 0 hr 19 min 7 sec) 
Heartbeat CPU 0 instructions: 340000000 cycles: 1050665104 heartbeat IPC: 0.242288 cumulative IPC: 0.245468 (Simulation time: 0 hr 19 min 47 sec) 
Heartbeat CPU 0 instructions: 350000001 cycles: 1091420978 heartbeat IPC: 0.245363 cumulative IPC: 0.245464 (Simulation time: 0 hr 20 min 26 sec) 
Heartbeat CPU 0 instructions: 360000000 cycles: 1132405836 heartbeat IPC: 0.243993 cumulative IPC: 0.245407 (Simulation time: 0 hr 21 min 6 sec) 
Heartbeat CPU 0 instructions: 370000000 cycles: 1172416478 heartbeat IPC: 0.249934 cumulative IPC: 0.245571 (Simulation time: 0 hr 21 min 44 sec) 
Heartbeat CPU 0 instructions: 380000000 cycles: 1213414227 heartbeat IPC: 0.243916 cumulative IPC: 0.245512 (Simulation time: 0 hr 22 min 24 sec) 
Heartbeat CPU 0 instructions: 390000001 cycles: 1253945044 heartbeat IPC: 0.246726 cumulative IPC: 0.245554 (Simulation time: 0 hr 23 min 3 sec) 
Heartbeat CPU 0 instructions: 400000000 cycles: 1294522302 heartbeat IPC: 0.246443 cumulative IPC: 0.245583 (Simulation time: 0 hr 23 min 42 sec) 
Heartbeat CPU 0 instructions: 410000000 cycles: 1334925272 heartbeat IPC: 0.247507 cumulative IPC: 0.245645 (Simulation time: 0 hr 24 min 21 sec) 
Heartbeat CPU 0 instructions: 420000000 cycles: 1375376764 heartbeat IPC: 0.24721 cumulative IPC: 0.245693 (Simulation time: 0 hr 25 min 0 sec) 
Heartbeat CPU 0 instructions: 430000000 cycles: 1415912781 heartbeat IPC: 0.246694 cumulative IPC: 0.245724 (Simulation time: 0 hr 25 min 39 sec) 
Heartbeat CPU 0 instructions: 440000000 cycles: 1456477046 heartbeat IPC: 0.246522 cumulative IPC: 0.245747 (Simulation time: 0 hr 26 min 18 sec) 
Heartbeat CPU 0 instructions: 450000002 cycles: 1496898779 heartbeat IPC: 0.247392 cumulative IPC: 0.245794 (Simulation time: 0 hr 26 min 56 sec) 
Heartbeat CPU 0 instructions: 460000000 cycles: 1536765921 heartbeat IPC: 0.250833 cumulative IPC: 0.245931 (Simulation time: 0 hr 27 min 35 sec) 
Heartbeat CPU 0 instructions: 470000000 cycles: 1577530954 heartbeat IPC: 0.245308 cumulative IPC: 0.245914 (Simulation time: 0 hr 28 min 14 sec) 
Heartbeat CPU 0 instructions: 480000000 cycles: 1617945191 heartbeat IPC: 0.247438 cumulative IPC: 0.245954 (Simulation time: 0 hr 28 min 53 sec) 
Heartbeat CPU 0 instructions: 490000001 cycles: 1658463784 heartbeat IPC: 0.2468 cumulative IPC: 0.245976 (Simulation time: 0 hr 29 min 31 sec) 
Heartbeat CPU 0 instructions: 500000000 cycles: 1699218914 heartbeat IPC: 0.245368 cumulative IPC: 0.24596 (Simulation time: 0 hr 30 min 9 sec) 
Heartbeat CPU 0 instructions: 510000000 cycles: 1739431246 heartbeat IPC: 0.24868 cumulative IPC: 0.246026 (Simulation time: 0 hr 30 min 46 sec) 
Heartbeat CPU 0 instructions: 520000000 cycles: 1780444915 heartbeat IPC: 0.243821 cumulative IPC: 0.245973 (Simulation time: 0 hr 31 min 22 sec) 
Heartbeat CPU 0 instructions: 530000000 cycles: 1820848612 heartbeat IPC: 0.247502 cumulative IPC: 0.246008 (Simulation time: 0 hr 31 min 59 sec) 
Heartbeat CPU 0 instructions: 540000000 cycles: 1861031823 heartbeat IPC: 0.24886 cumulative IPC: 0.246072 (Simulation time: 0 hr 32 min 35 sec) 
Heartbeat CPU 0 instructions: 550000001 cycles: 1901933127 heartbeat IPC: 0.244491 cumulative IPC: 0.246037 (Simulation time: 0 hr 33 min 12 sec) 
Heartbeat CPU 0 instructions: 560000000 cycles: 1942974835 heartbeat IPC: 0.243655 cumulative IPC: 0.245985 (Simulation time: 0 hr 33 min 48 sec) 
Heartbeat CPU 0 instructions: 570000003 cycles: 1983924917 heartbeat IPC: 0.2442 cumulative IPC: 0.245946 (Simulation time: 0 hr 34 min 25 sec) 
Heartbeat CPU 0 instructions: 580000000 cycles: 2024713624 heartbeat IPC: 0.245166 cumulative IPC: 0.24593 (Simulation time: 0 hr 35 min 2 sec) 
Heartbeat CPU 0 instructions: 590000001 cycles: 2066023886 heartbeat IPC: 0.242071 cumulative IPC: 0.24585 (Simulation time: 0 hr 35 min 39 sec) 
Heartbeat CPU 0 instructions: 600000000 cycles: 2107021599 heartbeat IPC: 0.243916 cumulative IPC: 0.245811 (Simulation time: 0 hr 36 min 15 sec) 
Finished CPU 0 instructions: 500000000 cycles: 2034081519 cumulative IPC: 0.245811 (Simulation time: 0 hr 36 min 15 sec) 

CPU 0 Branch Prediction Accuracy: 96.2429% MPKI: 5.85335
Number of Branches: 77897976 Number of Mispredictions: 2926674
Number of LOAD Instructions: 193081861
Number of LOAD Instructions (ROI): 193081861
Number of STORE Instructions: 97310749
Number of STORE Instructions (ROI): 97310749
Total Destination Memory Operands: 106368027
Total Destination Memory Operands (ROI): 106368027
Total Source Memory Operands: 193081861
Total Source Memory Operands (ROI): 193081861
Number of DEPENDED LOADS: 6497652
Number of DEPENDED LOADS (ROI): 6497652
Number of SQ_ADDED: 106367982
Number of SQ_ADDED (ROI): 106367982
Number of LQ_ADDED: 428366155
Number of LQ_ADDED (ROI): 428366155
Number of Instructions read from trace: 600000256

ChampSim completed all CPUs

Region of Interest Statistics

CPU 0 cumulative IPC: 0.245811 instructions: 500000000 cycles: 2034081519
ITLB TOTAL     ACCESS:  150994024  HIT:  150978193  MISS:      15831
ITLB LOAD      ACCESS:  150994024  HIT:  150978193  MISS:      15831
ITLB RFO       ACCESS:          0  HIT:          0  MISS:          0
ITLB PREFETCH  ACCESS:          0  HIT:          0  MISS:          0
ITLB WRITEBACK ACCESS:          0  HIT:          0  MISS:          0
ITLB PREFETCH  REQUESTED:          0  ISSUED:          0  USEFUL:          0  USELESS:          0
ITLB TOTAL MSHR MERGED:      18213
ITLB LOAD MSHR MERGED:      18213
ITLB RFO MSHR MERGED:          0
ITLB PREFETCH MSHR MERGED:          0
ITLB WRITEBACK MSHR MERGED:          0
ITLB TOTAL ACCESSES:  151012237 HITS:  150978193 MISSES:      34044
ITLB LOAD ACCESSES:  151012237 HITS:  150978193 MISSES:      34044
ITLB RFO ACCESSES:          0 HITS:          0 MISSES:          0
ITLB PREFETCH ACCESSES:          0 HITS:          0 MISSES:          0
ITLB WRITEBACK ACCESSES:          0 HITS:          0 MISSES:          0
ITLB RQ ACCESS:  500000242
ITLB RQ TO_CACHE:  151012237
ITLB RQ MERGED:  348988005
ITLB RQ FORWARD:          0
ITLB WQ ACCESS:          0
ITLB WQ TO_CACHE:          0
ITLB WQ MERGED:          0
ITLB WQ FORWARD:          0
DTLB TOTAL     ACCESS:  199514454  HIT:  194135486  MISS:    5378968
DTLB LOAD      ACCESS:  123086106  HIT:  118067651  MISS:    5018455
DTLB RFO       ACCESS:   76428348  HIT:   76067835  MISS:     360513
DTLB PREFETCH  ACCESS:          0  HIT:          0  MISS:          0
DTLB WRITEBACK ACCESS:          0  HIT:          0  MISS:          0
DTLB PREFETCH  REQUESTED:          0  ISSUED:          0  USEFUL:          0  USELESS:          0
DTLB TOTAL MSHR MERGED:     914991
DTLB LOAD MSHR MERGED:     806462
DTLB RFO MSHR MERGED:     108529
DTLB PREFETCH MSHR MERGED:          0
DTLB WRITEBACK MSHR MERGED:          0
DTLB TOTAL ACCESSES:  200429445 HITS:  194135486 MISSES:    6293959
DTLB LOAD ACCESSES:  123892568 HITS:  118067651 MISSES:    5824917
DTLB RFO ACCESSES:   76536877 HITS:   76067835 MISSES:     469042
DTLB PREFETCH ACCESSES:          0 HITS:          0 MISSES:          0
DTLB WRITEBACK ACCESSES:          0 HITS:          0 MISSES:          0
DTLB RQ ACCESS:  243827738
DTLB RQ TO_CACHE:  200429445
DTLB RQ MERGED:   43398293
DTLB RQ FORWARD:          0
DTLB WQ ACCESS:          0
DTLB WQ TO_CACHE:          0
DTLB WQ MERGED:          0
DTLB WQ FORWARD:          0
L1D TOTAL     ACCESS:  335388406  HIT:  317292541  MISS:   18095865
L1D LOAD      ACCESS:  127621736  HIT:  118674094  MISS:    8947642
L1D RFO       ACCESS:   87015990  HIT:   86216240  MISS:     799750
L1D PREFETCH  ACCESS:  120750680  HIT:  112402207  MISS:    8348473
L1D WRITEBACK ACCESS:          0  HIT:          0  MISS:          0
L1D PREFETCH  REQUESTED:  128429775  ISSUED:  126831698  USEFUL:    1735210  USELESS:    6613274
L1D TOTAL MSHR MERGED:    3961640
L1D LOAD MSHR MERGED:     976273
L1D RFO MSHR MERGED:    1132985
L1D PREFETCH MSHR MERGED:    1852382
L1D WRITEBACK MSHR MERGED:          0
L1D TOTAL ACCESSES:  339437694 HITS:  317380189 MISSES:   22057505
L1D LOAD ACCESSES:  128430241 HITS:  118674560 MISSES:    9755681
L1D RFO ACCESSES:   88069441 HITS:   86216240 MISSES:    1853201
L1D PREFETCH ACCESSES:  122938012 HITS:  112489389 MISSES:   10448623
L1D WRITEBACK ACCESSES:          0 HITS:          0 MISSES:          0
L1D RQ ACCESS:  155196353
L1D RQ TO_CACHE:  128429775
L1D RQ MERGED:   26766112
L1D RQ FORWARD:          0
L1D WQ ACCESS:   88631385
L1D WQ TO_CACHE:   88069440
L1D WQ MERGED:     561945
L1D WQ FORWARD:      87648
L1I TOTAL     ACCESS:  175310703  HIT:  175044248  MISS:     266455
L1I LOAD      ACCESS:  175310703  HIT:  175044248  MISS:     266455
L1I RFO       ACCESS:          0  HIT:          0  MISS:          0
L1I PREFETCH  ACCESS:          0  HIT:          0  MISS:          0
L1I WRITEBACK ACCESS:          0  HIT:          0  MISS:          0
L1I PREFETCH  REQUESTED:          0  ISSUED:          0  USEFUL:          0  USELESS:          0
L1I TOTAL MSHR MERGED:     213822
L1I LOAD MSHR MERGED:     213822
L1I RFO MSHR MERGED:          0
L1I PREFETCH MSHR MERGED:          0
L1I WRITEBACK MSHR MERGED:          0
L1I TOTAL ACCESSES:  175524525 HITS:  175044248 MISSES:     480277
L1I LOAD ACCESSES:  175524525 HITS:  175044248 MISSES:     480277
L1I RFO ACCESSES:          0 HITS:          0 MISSES:          0
L1I PREFETCH ACCESSES:          0 HITS:          0 MISSES:          0
L1I WRITEBACK ACCESSES:          0 HITS:          0 MISSES:          0
L1I RQ ACCESS:  500000242
L1I RQ TO_CACHE:  175524525
L1I RQ MERGED:  324475717
L1I RQ FORWARD:          0
L1I WQ ACCESS:          0
L1I WQ TO_CACHE:          0
L1I WQ MERGED:          0
L1I WQ FORWARD:          0
L2C TOTAL     ACCESS:   23738298  HIT:   12112659  MISS:   11625639
L2C LOAD      ACCESS:    9044691  HIT:    3565024  MISS:    5479667
L2C RFO       ACCESS:     720160  HIT:     130084  MISS:     590076
L2C PREFETCH  ACCESS:    8613247  HIT:    3086044  MISS:    5527203
L2C WRITEBACK ACCESS:    5360200  HIT:    5331507  MISS:      28693
L2C PREFETCH  REQUESTED:      18038  ISSUED:      18038  USEFUL:     322962  USELESS:    5204416
L2C TOTAL MSHR MERGED:         25
L2C LOAD MSHR MERGED:          2
L2C RFO MSHR MERGED:          0
L2C PREFETCH MSHR MERGED:         23
L2C WRITEBACK MSHR MERGED:          0
L2C TOTAL ACCESSES:   23740101 HITS:   12114433 MISSES:   11625668
L2C LOAD ACCESSES:    9045863 HITS:    3566196 MISSES:    5479667
L2C RFO ACCESSES:     720216 HITS:     130140 MISSES:     590076
L2C PREFETCH ACCESSES:    8613822 HITS:    3086590 MISSES:    5527232
L2C WRITEBACK ACCESSES:    5360200 HITS:    5331507 MISSES:      28693
L2C RQ ACCESS:    9766079
L2C RQ TO_CACHE:    9764851
L2C RQ MERGED:          0
L2C RQ FORWARD:          0
L2C WQ ACCESS:    5360200
L2C WQ TO_CACHE:    5360200
L2C WQ MERGED:          0
L2C WQ FORWARD:       1774
LLC TOTAL     ACCESS:   15448557  HIT:    5896698  MISS:    9551859
LLC LOAD      ACCESS:    5479639  HIT:    1840564  MISS:    3639075
LLC RFO       ACCESS:     590074  HIT:     246519  MISS:     343555
LLC PREFETCH  ACCESS:    5527192  HIT:     880644  MISS:    4646548
LLC WRITEBACK ACCESS:    3851652  HIT:    2928971  MISS:     922681
LLC PREFETCH  REQUESTED:          0  ISSUED:          0  USEFUL:      19250  USELESS:    4627707
LLC TOTAL MSHR MERGED:          0
LLC LOAD MSHR MERGED:          0
LLC RFO MSHR MERGED:          0
LLC PREFETCH MSHR MERGED:          0
LLC WRITEBACK MSHR MERGED:          0
LLC TOTAL ACCESSES:   15448602 HITS:    5896743 MISSES:    9551859
LLC LOAD ACCESSES:    5479665 HITS:    1840590 MISSES:    3639075
LLC RFO ACCESSES:     590076 HITS:     246521 MISSES:     343555
LLC PREFETCH ACCESSES:    5527209 HITS:     880661 MISSES:    4646548
LLC WRITEBACK ACCESSES:    3851652 HITS:    2928971 MISSES:     922681
LLC 0 RQ ACCESS:    6069741
LLC 0 RQ TO_CACHE:    6069713
LLC 0 RQ MERGED:          0
LLC 0 RQ FORWARD:          0
LLC WQ ACCESS:    3851652
LLC WQ TO_CACHE:    3851652
LLC WQ MERGED:          0
LLC WQ FORWARD:         45
Major fault: 0 Minor fault: 44814
CPU 0 L1D next line prefetcher final stats
CPU 0 L2C PC-based stride prefetcher final stats
All Misses: 11541698
All Hits: 7079330
SD Algo Stats - Switches: 0 SRR-Repls: 4151514 BRR-Repls: 0

DRAM Statistics
 CHANNEL 0
 RQ ROW_BUFFER_HIT:    1455030  ROW_BUFFER_MISS:    7170817
 DBUS_CONGESTED:    6051646
 WQ ROW_BUFFER_HIT:     227482  ROW_BUFFER_MISS:    2421954  FULL:          0

 AVG_CONGESTED_CYCLE: 13
LOADS RETIRED: 160808997
INSTR RETIRED: 500000000
