
*** ChampSim Multicore Out-of-Order Simulator ***

Warmup Instructions: 100000000
Simulation Instructions: 500000000
Number of CPUs: 1
LLC sets: 2048
LLC ways: 16
Clean RRIP Policies: 1013230110132301 Dirty RRIP Policies: 2013031120130311 PSEL Width: 10 Track Set: 4294967295 PSEL Mask: 1 Demote Mask: 4340013143400131DS Algo: 0Window size: 0
Off-chip DRAM Size: 4096 MB Channels: 1 Width: 64-bit Data Rate: 1600 MT/s

CPU 0 runs /mnt/beegfs/iconst01/spec2017/Parest.trace.gz
NOT SORTED
TRACE STRING: /mnt/beegfs/iconst01/spec2017/Parest.trace.gz
SORTED
TRACE STRING: /mnt/beegfs/iconst01/spec2017/Parest.trace.gz
INITIAL
TRACE STRING: /mnt/beegfs/iconst01/spec2017/Parest.trace.gz

champsim_seed used: 623

CPU 0 L1D next line prefetcher
CPU 0 L2C IP-based stride prefetcher
Initialize DRRIP state
Assign rand_sets[0]: 454  LLC: 2048
rand_sets[0]: 454
Assign rand_sets[1]: 1662  LLC: 2048
rand_sets[1]: 1662
Assign rand_sets[2]: 1921  LLC: 2048
rand_sets[2]: 1921
Assign rand_sets[3]: 1131  LLC: 2048
rand_sets[3]: 1131
Assign rand_sets[4]: 331  LLC: 2048
rand_sets[4]: 331
Assign rand_sets[5]: 1531  LLC: 2048
rand_sets[5]: 1531
Assign rand_sets[6]: 482  LLC: 2048
rand_sets[6]: 482
Assign rand_sets[7]: 1275  LLC: 2048
rand_sets[7]: 1275
Assign rand_sets[8]: 1876  LLC: 2048
rand_sets[8]: 1876
Assign rand_sets[9]: 2038  LLC: 2048
rand_sets[9]: 2038
Assign rand_sets[10]: 701  LLC: 2048
rand_sets[10]: 701
Assign rand_sets[11]: 479  LLC: 2048
rand_sets[11]: 479
Assign rand_sets[12]: 892  LLC: 2048
rand_sets[12]: 892
Assign rand_sets[13]: 1820  LLC: 2048
rand_sets[13]: 1820
Assign rand_sets[14]: 1505  LLC: 2048
rand_sets[14]: 1505
Assign rand_sets[15]: 1159  LLC: 2048
rand_sets[15]: 1159
Assign rand_sets[16]: 513  LLC: 2048
rand_sets[16]: 513
Assign rand_sets[17]: 703  LLC: 2048
rand_sets[17]: 703
Assign rand_sets[18]: 561  LLC: 2048
rand_sets[18]: 561
Assign rand_sets[19]: 990  LLC: 2048
rand_sets[19]: 990
Assign rand_sets[20]: 342  LLC: 2048
rand_sets[20]: 342
Assign rand_sets[21]: 882  LLC: 2048
rand_sets[21]: 882
Assign rand_sets[22]: 15  LLC: 2048
rand_sets[22]: 15
Assign rand_sets[23]: 71  LLC: 2048
rand_sets[23]: 71
Assign rand_sets[24]: 1127  LLC: 2048
rand_sets[24]: 1127
Assign rand_sets[25]: 1382  LLC: 2048
rand_sets[25]: 1382
Assign rand_sets[26]: 647  LLC: 2048
rand_sets[26]: 647
Assign rand_sets[27]: 857  LLC: 2048
rand_sets[27]: 857
Assign rand_sets[28]: 1450  LLC: 2048
rand_sets[28]: 1450
Assign rand_sets[29]: 1160  LLC: 2048
rand_sets[29]: 1160
Assign rand_sets[30]: 1852  LLC: 2048
rand_sets[30]: 1852
Assign rand_sets[31]: 1881  LLC: 2048
rand_sets[31]: 1881
Assign rand_sets[32]: 1770  LLC: 2048
rand_sets[32]: 1770
Assign rand_sets[33]: 1622  LLC: 2048
rand_sets[33]: 1622
Assign rand_sets[34]: 275  LLC: 2048
rand_sets[34]: 275
Assign rand_sets[35]: 635  LLC: 2048
rand_sets[35]: 635
Assign rand_sets[36]: 466  LLC: 2048
rand_sets[36]: 466
Assign rand_sets[37]: 1413  LLC: 2048
rand_sets[37]: 1413
Assign rand_sets[38]: 417  LLC: 2048
rand_sets[38]: 417
Assign rand_sets[39]: 472  LLC: 2048
rand_sets[39]: 472
Assign rand_sets[40]: 1340  LLC: 2048
rand_sets[40]: 1340
Assign rand_sets[41]: 852  LLC: 2048
rand_sets[41]: 852
Assign rand_sets[42]: 1365  LLC: 2048
rand_sets[42]: 1365
Assign rand_sets[43]: 47  LLC: 2048
rand_sets[43]: 47
Assign rand_sets[44]: 823  LLC: 2048
rand_sets[44]: 823
Assign rand_sets[45]: 686  LLC: 2048
rand_sets[45]: 686
Assign rand_sets[46]: 1637  LLC: 2048
rand_sets[46]: 1637
Assign rand_sets[47]: 1115  LLC: 2048
rand_sets[47]: 1115
Assign rand_sets[48]: 986  LLC: 2048
rand_sets[48]: 986
Assign rand_sets[49]: 258  LLC: 2048
rand_sets[49]: 258
Assign rand_sets[50]: 633  LLC: 2048
rand_sets[50]: 633
Assign rand_sets[51]: 920  LLC: 2048
rand_sets[51]: 920
Assign rand_sets[52]: 204  LLC: 2048
rand_sets[52]: 204
Assign rand_sets[53]: 227  LLC: 2048
rand_sets[53]: 227
Assign rand_sets[54]: 1818  LLC: 2048
rand_sets[54]: 1818
Assign rand_sets[55]: 886  LLC: 2048
rand_sets[55]: 886
Assign rand_sets[56]: 1422  LLC: 2048
rand_sets[56]: 1422
Assign rand_sets[57]: 607  LLC: 2048
rand_sets[57]: 607
Assign rand_sets[58]: 217  LLC: 2048
rand_sets[58]: 217
Assign rand_sets[59]: 1945  LLC: 2048
rand_sets[59]: 1945
Assign rand_sets[60]: 143  LLC: 2048
rand_sets[60]: 143
Assign rand_sets[61]: 1311  LLC: 2048
rand_sets[61]: 1311
Assign rand_sets[62]: 319  LLC: 2048
rand_sets[62]: 319
Assign rand_sets[63]: 1846  LLC: 2048
rand_sets[63]: 1846
 CLEAN-RRIP-POLICY-1: 1-0-1-3-2-3-0-1- CLEAN-RRIP-POLICY-2: 1-0-1-3-2-3-0-1-
 DIRTY-RRIP-POLICY-1: 2-0-1-3-0-3-1-1- DIRTY-RRIP-POLICY-2: 2-0-1-3-0-3-1-1-
 PSEL width: 10
Heartbeat CPU 0 instructions: 10000001 cycles: 4387137 heartbeat IPC: 2.27939 cumulative IPC: 2.27939 (Simulation time: 0 hr 0 min 15 sec) 
Heartbeat CPU 0 instructions: 20000000 cycles: 8781295 heartbeat IPC: 2.27575 cumulative IPC: 2.27757 (Simulation time: 0 hr 0 min 30 sec) 
Heartbeat CPU 0 instructions: 30000003 cycles: 13213244 heartbeat IPC: 2.25634 cumulative IPC: 2.27045 (Simulation time: 0 hr 0 min 45 sec) 
Heartbeat CPU 0 instructions: 40000000 cycles: 17643858 heartbeat IPC: 2.25702 cumulative IPC: 2.26708 (Simulation time: 0 hr 0 min 59 sec) 
Heartbeat CPU 0 instructions: 50000000 cycles: 22052099 heartbeat IPC: 2.26848 cumulative IPC: 2.26736 (Simulation time: 0 hr 1 min 14 sec) 
Heartbeat CPU 0 instructions: 60000000 cycles: 26457815 heartbeat IPC: 2.26978 cumulative IPC: 2.26776 (Simulation time: 0 hr 1 min 29 sec) 
Heartbeat CPU 0 instructions: 70000000 cycles: 30858658 heartbeat IPC: 2.27229 cumulative IPC: 2.26841 (Simulation time: 0 hr 1 min 44 sec) 
Heartbeat CPU 0 instructions: 80000000 cycles: 35254233 heartbeat IPC: 2.27502 cumulative IPC: 2.26923 (Simulation time: 0 hr 1 min 59 sec) 
Heartbeat CPU 0 instructions: 90000000 cycles: 39648495 heartbeat IPC: 2.2757 cumulative IPC: 2.26995 (Simulation time: 0 hr 2 min 14 sec) 
Heartbeat CPU 0 instructions: 100000000 cycles: 44045833 heartbeat IPC: 2.2741 cumulative IPC: 2.27036 (Simulation time: 0 hr 2 min 30 sec) 

Warmup complete CPU 0 instructions: 100000002 cycles: 44045843 (Simulation time: 0 hr 2 min 30 sec) 

Heartbeat CPU 0 instructions: 110000000 cycles: 54521956 heartbeat IPC: 0.954552 cumulative IPC: 0.954552 (Simulation time: 0 hr 2 min 49 sec) 
Heartbeat CPU 0 instructions: 120000000 cycles: 64164329 heartbeat IPC: 1.03709 cumulative IPC: 0.99411 (Simulation time: 0 hr 3 min 9 sec) 
Heartbeat CPU 0 instructions: 130000000 cycles: 73709975 heartbeat IPC: 1.0476 cumulative IPC: 1.01132 (Simulation time: 0 hr 3 min 28 sec) 
Heartbeat CPU 0 instructions: 140000000 cycles: 83481023 heartbeat IPC: 1.02343 cumulative IPC: 1.01432 (Simulation time: 0 hr 3 min 48 sec) 
Heartbeat CPU 0 instructions: 150000000 cycles: 94363422 heartbeat IPC: 0.918915 cumulative IPC: 0.993688 (Simulation time: 0 hr 4 min 7 sec) 
Heartbeat CPU 0 instructions: 160000000 cycles: 104410254 heartbeat IPC: 0.995339 cumulative IPC: 0.993963 (Simulation time: 0 hr 4 min 27 sec) 
Heartbeat CPU 0 instructions: 170000003 cycles: 114393367 heartbeat IPC: 1.00169 cumulative IPC: 0.99506 (Simulation time: 0 hr 4 min 46 sec) 
Heartbeat CPU 0 instructions: 180000000 cycles: 124371070 heartbeat IPC: 1.00223 cumulative IPC: 0.995951 (Simulation time: 0 hr 5 min 5 sec) 
Heartbeat CPU 0 instructions: 190000002 cycles: 134481047 heartbeat IPC: 0.989122 cumulative IPC: 0.995188 (Simulation time: 0 hr 5 min 25 sec) 
Heartbeat CPU 0 instructions: 200000000 cycles: 144205188 heartbeat IPC: 1.02837 cumulative IPC: 0.998409 (Simulation time: 0 hr 5 min 44 sec) 
Heartbeat CPU 0 instructions: 210000000 cycles: 154211154 heartbeat IPC: 0.999404 cumulative IPC: 0.998499 (Simulation time: 0 hr 6 min 3 sec) 
Heartbeat CPU 0 instructions: 220000000 cycles: 163762501 heartbeat IPC: 1.04697 cumulative IPC: 1.00237 (Simulation time: 0 hr 6 min 23 sec) 
Heartbeat CPU 0 instructions: 230000001 cycles: 176075806 heartbeat IPC: 0.81213 cumulative IPC: 0.984625 (Simulation time: 0 hr 6 min 44 sec) 
Heartbeat CPU 0 instructions: 240000000 cycles: 186610575 heartbeat IPC: 0.949238 cumulative IPC: 0.98201 (Simulation time: 0 hr 7 min 3 sec) 
Heartbeat CPU 0 instructions: 250000002 cycles: 196579619 heartbeat IPC: 1.00311 cumulative IPC: 0.983389 (Simulation time: 0 hr 7 min 23 sec) 
Heartbeat CPU 0 instructions: 260000000 cycles: 206385786 heartbeat IPC: 1.01977 cumulative IPC: 0.985586 (Simulation time: 0 hr 7 min 42 sec) 
Heartbeat CPU 0 instructions: 270000001 cycles: 216151498 heartbeat IPC: 1.02399 cumulative IPC: 0.987765 (Simulation time: 0 hr 8 min 1 sec) 
Heartbeat CPU 0 instructions: 280000000 cycles: 226165898 heartbeat IPC: 0.998562 cumulative IPC: 0.988359 (Simulation time: 0 hr 8 min 20 sec) 
Heartbeat CPU 0 instructions: 290000002 cycles: 235721710 heartbeat IPC: 1.04648 cumulative IPC: 0.991257 (Simulation time: 0 hr 8 min 40 sec) 
Heartbeat CPU 0 instructions: 300000000 cycles: 245606053 heartbeat IPC: 1.0117 cumulative IPC: 0.992259 (Simulation time: 0 hr 8 min 59 sec) 
Heartbeat CPU 0 instructions: 310000000 cycles: 255098682 heartbeat IPC: 1.05345 cumulative IPC: 0.995012 (Simulation time: 0 hr 9 min 18 sec) 
Heartbeat CPU 0 instructions: 320000000 cycles: 264640546 heartbeat IPC: 1.04801 cumulative IPC: 0.997304 (Simulation time: 0 hr 9 min 38 sec) 
Heartbeat CPU 0 instructions: 330000002 cycles: 274257853 heartbeat IPC: 1.03979 cumulative IPC: 0.999079 (Simulation time: 0 hr 9 min 57 sec) 
Heartbeat CPU 0 instructions: 340000000 cycles: 284365403 heartbeat IPC: 0.989359 cumulative IPC: 0.99867 (Simulation time: 0 hr 10 min 17 sec) 
Heartbeat CPU 0 instructions: 350000000 cycles: 294523448 heartbeat IPC: 0.984441 cumulative IPC: 0.998093 (Simulation time: 0 hr 10 min 36 sec) 
Heartbeat CPU 0 instructions: 360000000 cycles: 304349388 heartbeat IPC: 1.01771 cumulative IPC: 0.998834 (Simulation time: 0 hr 10 min 55 sec) 
Heartbeat CPU 0 instructions: 370000000 cycles: 314066011 heartbeat IPC: 1.02916 cumulative IPC: 0.999925 (Simulation time: 0 hr 11 min 14 sec) 
Heartbeat CPU 0 instructions: 380000000 cycles: 323786937 heartbeat IPC: 1.02871 cumulative IPC: 1.00093 (Simulation time: 0 hr 11 min 33 sec) 
Heartbeat CPU 0 instructions: 390000002 cycles: 333365487 heartbeat IPC: 1.044 cumulative IPC: 1.00235 (Simulation time: 0 hr 11 min 53 sec) 
Heartbeat CPU 0 instructions: 400000000 cycles: 343213388 heartbeat IPC: 1.01544 cumulative IPC: 1.00278 (Simulation time: 0 hr 12 min 12 sec) 
Heartbeat CPU 0 instructions: 410000000 cycles: 352680839 heartbeat IPC: 1.05625 cumulative IPC: 1.00442 (Simulation time: 0 hr 12 min 31 sec) 
Heartbeat CPU 0 instructions: 420000000 cycles: 363850255 heartbeat IPC: 0.895302 cumulative IPC: 1.00061 (Simulation time: 0 hr 12 min 51 sec) 
Heartbeat CPU 0 instructions: 430000000 cycles: 374724976 heartbeat IPC: 0.919564 cumulative IPC: 0.997946 (Simulation time: 0 hr 13 min 10 sec) 
Heartbeat CPU 0 instructions: 440000000 cycles: 384757143 heartbeat IPC: 0.996794 cumulative IPC: 0.997912 (Simulation time: 0 hr 13 min 29 sec) 
Heartbeat CPU 0 instructions: 450000000 cycles: 394763562 heartbeat IPC: 0.999359 cumulative IPC: 0.997954 (Simulation time: 0 hr 13 min 48 sec) 
Heartbeat CPU 0 instructions: 460000000 cycles: 404787881 heartbeat IPC: 0.997574 cumulative IPC: 0.997943 (Simulation time: 0 hr 14 min 7 sec) 
Heartbeat CPU 0 instructions: 470000001 cycles: 414872187 heartbeat IPC: 0.99164 cumulative IPC: 0.997772 (Simulation time: 0 hr 14 min 26 sec) 
Heartbeat CPU 0 instructions: 480000000 cycles: 424557041 heartbeat IPC: 1.03254 cumulative IPC: 0.998657 (Simulation time: 0 hr 14 min 45 sec) 
Heartbeat CPU 0 instructions: 490000002 cycles: 434584347 heartbeat IPC: 0.997277 cumulative IPC: 0.998621 (Simulation time: 0 hr 15 min 4 sec) 
Heartbeat CPU 0 instructions: 500000000 cycles: 444329329 heartbeat IPC: 1.02617 cumulative IPC: 0.999292 (Simulation time: 0 hr 15 min 23 sec) 
Heartbeat CPU 0 instructions: 510000000 cycles: 453899658 heartbeat IPC: 1.0449 cumulative IPC: 1.00036 (Simulation time: 0 hr 15 min 42 sec) 
Heartbeat CPU 0 instructions: 520000000 cycles: 463608660 heartbeat IPC: 1.02997 cumulative IPC: 1.00104 (Simulation time: 0 hr 16 min 1 sec) 
Heartbeat CPU 0 instructions: 530000001 cycles: 473959241 heartbeat IPC: 0.966129 cumulative IPC: 1.0002 (Simulation time: 0 hr 16 min 20 sec) 
Heartbeat CPU 0 instructions: 540000000 cycles: 484309420 heartbeat IPC: 0.966167 cumulative IPC: 0.999401 (Simulation time: 0 hr 16 min 39 sec) 
Heartbeat CPU 0 instructions: 550000003 cycles: 494357315 heartbeat IPC: 0.995234 cumulative IPC: 0.999308 (Simulation time: 0 hr 16 min 57 sec) 
Heartbeat CPU 0 instructions: 560000000 cycles: 504269118 heartbeat IPC: 1.0089 cumulative IPC: 0.999515 (Simulation time: 0 hr 17 min 15 sec) 
Heartbeat CPU 0 instructions: 570000002 cycles: 514169100 heartbeat IPC: 1.0101 cumulative IPC: 0.999738 (Simulation time: 0 hr 17 min 34 sec) 
Heartbeat CPU 0 instructions: 580000000 cycles: 523925672 heartbeat IPC: 1.02495 cumulative IPC: 1.00025 (Simulation time: 0 hr 17 min 52 sec) 
Heartbeat CPU 0 instructions: 590000002 cycles: 533908281 heartbeat IPC: 1.00174 cumulative IPC: 1.00028 (Simulation time: 0 hr 18 min 10 sec) 
Heartbeat CPU 0 instructions: 600000000 cycles: 543597107 heartbeat IPC: 1.03212 cumulative IPC: 1.0009 (Simulation time: 0 hr 18 min 29 sec) 
Finished CPU 0 instructions: 500000000 cycles: 499551278 cumulative IPC: 1.0009 (Simulation time: 0 hr 18 min 29 sec) 

CPU 0 Branch Prediction Accuracy: 97.8526% MPKI: 2.66709
Number of Branches: 62099103 Number of Mispredictions: 1333545
Number of LOAD Instructions: 210576465
Number of LOAD Instructions (ROI): 210576465
Number of STORE Instructions: 16915507
Number of STORE Instructions (ROI): 16915507
Total Destination Memory Operands: 16918869
Total Destination Memory Operands (ROI): 16918869
Total Source Memory Operands: 210576465
Total Source Memory Operands (ROI): 210576465
Number of DEPENDED LOADS: 345024
Number of DEPENDED LOADS (ROI): 345024
Number of SQ_ADDED: 16918826
Number of SQ_ADDED (ROI): 16918826
Number of LQ_ADDED: 210611379
Number of LQ_ADDED (ROI): 210611379
Number of Instructions read from trace: 600000257

ChampSim completed all CPUs

Region of Interest Statistics

CPU 0 cumulative IPC: 1.0009 instructions: 500000000 cycles: 499551278
ITLB TOTAL     ACCESS:   76258405  HIT:   76258367  MISS:         38
ITLB LOAD      ACCESS:   76258405  HIT:   76258367  MISS:         38
ITLB RFO       ACCESS:          0  HIT:          0  MISS:          0
ITLB PREFETCH  ACCESS:          0  HIT:          0  MISS:          0
ITLB WRITEBACK ACCESS:          0  HIT:          0  MISS:          0
ITLB PREFETCH  REQUESTED:          0  ISSUED:          0  USEFUL:          0  USELESS:          0
ITLB TOTAL MSHR MERGED:         37
ITLB LOAD MSHR MERGED:         37
ITLB RFO MSHR MERGED:          0
ITLB PREFETCH MSHR MERGED:          0
ITLB WRITEBACK MSHR MERGED:          0
ITLB TOTAL ACCESSES:   76258442 HITS:   76258367 MISSES:         75
ITLB LOAD ACCESSES:   76258442 HITS:   76258367 MISSES:         75
ITLB RFO ACCESSES:          0 HITS:          0 MISSES:          0
ITLB PREFETCH ACCESSES:          0 HITS:          0 MISSES:          0
ITLB WRITEBACK ACCESSES:          0 HITS:          0 MISSES:          0
ITLB RQ ACCESS:  500000188
ITLB RQ TO_CACHE:   76258443
ITLB RQ MERGED:  423741745
ITLB RQ FORWARD:          0
ITLB WQ ACCESS:          0
ITLB WQ TO_CACHE:          0
ITLB WQ MERGED:          0
ITLB WQ FORWARD:          0
DTLB TOTAL     ACCESS:  136874516  HIT:  136671725  MISS:     202791
DTLB LOAD      ACCESS:  128812363  HIT:  128612293  MISS:     200070
DTLB RFO       ACCESS:    8062153  HIT:    8059432  MISS:       2721
DTLB PREFETCH  ACCESS:          0  HIT:          0  MISS:          0
DTLB WRITEBACK ACCESS:          0  HIT:          0  MISS:          0
DTLB PREFETCH  REQUESTED:          0  ISSUED:          0  USEFUL:          0  USELESS:          0
DTLB TOTAL MSHR MERGED:     448052
DTLB LOAD MSHR MERGED:     444351
DTLB RFO MSHR MERGED:       3701
DTLB PREFETCH MSHR MERGED:          0
DTLB WRITEBACK MSHR MERGED:          0
DTLB TOTAL ACCESSES:  137322568 HITS:  136671725 MISSES:     650843
DTLB LOAD ACCESSES:  129256714 HITS:  128612293 MISSES:     644421
DTLB RFO ACCESSES:    8065854 HITS:    8059432 MISSES:       6422
DTLB PREFETCH ACCESSES:          0 HITS:          0 MISSES:          0
DTLB WRITEBACK ACCESSES:          0 HITS:          0 MISSES:          0
DTLB RQ ACCESS:  189419544
DTLB RQ TO_CACHE:  137322568
DTLB RQ MERGED:   52096976
DTLB RQ FORWARD:          0
DTLB WQ ACCESS:          0
DTLB WQ TO_CACHE:          0
DTLB WQ MERGED:          0
DTLB WQ FORWARD:          0
L1D TOTAL     ACCESS:  125488237  HIT:  107931392  MISS:   17556845
L1D LOAD      ACCESS:   72334416  HIT:   62071901  MISS:   10262515
L1D RFO       ACCESS:   14015746  HIT:   13862908  MISS:     152838
L1D PREFETCH  ACCESS:   39138075  HIT:   31996583  MISS:    7141492
L1D WRITEBACK ACCESS:          0  HIT:          0  MISS:          0
L1D PREFETCH  REQUESTED:   85578568  ISSUED:   84256365  USEFUL:    5882261  USELESS:    1259242
L1D TOTAL MSHR MERGED:   31491783
L1D LOAD MSHR MERGED:   18405224
L1D RFO MSHR MERGED:     265586
L1D PREFETCH MSHR MERGED:   12820973
L1D WRITEBACK MSHR MERGED:          0
L1D TOTAL ACCESSES:  156980526 HITS:  107931899 MISSES:   49048627
L1D LOAD ACCESSES:   85578587 HITS:   62071920 MISSES:   23506667
L1D RFO ACCESSES:   14281305 HITS:   13862908 MISSES:     418397
L1D PREFETCH ACCESSES:   57120634 HITS:   31997071 MISSES:   25123563
L1D WRITEBACK ACCESSES:          0 HITS:          0 MISSES:          0
L1D RQ ACCESS:  175130522
L1D RQ TO_CACHE:   85578568
L1D RQ MERGED:   89551935
L1D RQ FORWARD:          0
L1D WQ ACCESS:   14289037
L1D WQ TO_CACHE:   14281305
L1D WQ MERGED:       7732
L1D WQ FORWARD:        507
L1I TOTAL     ACCESS:   93280199  HIT:   93278403  MISS:       1796
L1I LOAD      ACCESS:   93280199  HIT:   93278403  MISS:       1796
L1I RFO       ACCESS:          0  HIT:          0  MISS:          0
L1I PREFETCH  ACCESS:          0  HIT:          0  MISS:          0
L1I WRITEBACK ACCESS:          0  HIT:          0  MISS:          0
L1I PREFETCH  REQUESTED:          0  ISSUED:          0  USEFUL:          0  USELESS:          0
L1I TOTAL MSHR MERGED:       2315
L1I LOAD MSHR MERGED:       2315
L1I RFO MSHR MERGED:          0
L1I PREFETCH MSHR MERGED:          0
L1I WRITEBACK MSHR MERGED:          0
L1I TOTAL ACCESSES:   93282514 HITS:   93278403 MISSES:       4111
L1I LOAD ACCESSES:   93282514 HITS:   93278403 MISSES:       4111
L1I RFO ACCESSES:          0 HITS:          0 MISSES:          0
L1I PREFETCH ACCESSES:          0 HITS:          0 MISSES:          0
L1I WRITEBACK ACCESSES:          0 HITS:          0 MISSES:          0
L1I RQ ACCESS:  500000187
L1I RQ TO_CACHE:   93282514
L1I RQ MERGED:  406717673
L1I RQ FORWARD:          0
L1I WQ ACCESS:          0
L1I WQ TO_CACHE:          0
L1I WQ MERGED:          0
L1I WQ FORWARD:          0
L2C TOTAL     ACCESS:   20892781  HIT:    8663461  MISS:   12229320
L2C LOAD      ACCESS:    5103217  HIT:    2139340  MISS:    2963877
L2C RFO       ACCESS:     152811  HIT:       6507  MISS:     146304
L2C PREFETCH  ACCESS:   13863998  HIT:    4744969  MISS:    9119029
L2C WRITEBACK ACCESS:    1772755  HIT:    1772645  MISS:        110
L2C PREFETCH  REQUESTED:    1798517  ISSUED:    1798517  USEFUL:    1070186  USELESS:    8050457
L2C TOTAL MSHR MERGED:      96801
L2C LOAD MSHR MERGED:      22044
L2C RFO MSHR MERGED:          0
L2C PREFETCH MSHR MERGED:      74757
L2C WRITEBACK MSHR MERGED:          0
L2C TOTAL ACCESSES:   21012383 HITS:    8663499 MISSES:   12348884
L2C LOAD ACCESSES:    5103239 HITS:    2139362 MISSES:    2963877
L2C RFO ACCESSES:     152811 HITS:       6507 MISSES:     146304
L2C PREFETCH ACCESSES:   13983578 HITS:    4744985 MISSES:    9238593
L2C WRITEBACK ACCESSES:    1772755 HITS:    1772645 MISSES:        110
L2C RQ ACCESS:    5256050
L2C RQ TO_CACHE:    5256028
L2C RQ MERGED:          0
L2C RQ FORWARD:          0
L2C WQ ACCESS:    1772755
L2C WQ TO_CACHE:    1772755
L2C WQ MERGED:          0
L2C WQ FORWARD:         38
LLC TOTAL     ACCESS:   12532308  HIT:    6528597  MISS:    6003711
LLC LOAD      ACCESS:    2941811  HIT:    2446091  MISS:     495720
LLC RFO       ACCESS:     146304  HIT:      64566  MISS:      81738
LLC PREFETCH  ACCESS:    9158214  HIT:    3812175  MISS:    5346039
LLC WRITEBACK ACCESS:     285979  HIT:     205765  MISS:      80214
LLC PREFETCH  REQUESTED:          0  ISSUED:          0  USEFUL:      15379  USELESS:    5330327
LLC TOTAL MSHR MERGED:       1635
LLC LOAD MSHR MERGED:        394
LLC RFO MSHR MERGED:          0
LLC PREFETCH MSHR MERGED:       1241
LLC WRITEBACK MSHR MERGED:          0
LLC TOTAL ACCESSES:   12533977 HITS:    6528631 MISSES:    6005346
LLC LOAD ACCESSES:    2941833 HITS:    2446113 MISSES:     495720
LLC RFO ACCESSES:     146304 HITS:      64566 MISSES:      81738
LLC PREFETCH ACCESSES:    9159861 HITS:    3812187 MISSES:    5347674
LLC WRITEBACK ACCESSES:     285979 HITS:     205765 MISSES:      80214
LLC 0 RQ ACCESS:    3088137
LLC 0 RQ TO_CACHE:    3088115
LLC 0 RQ MERGED:          0
LLC 0 RQ FORWARD:          0
LLC WQ ACCESS:     285979
LLC WQ TO_CACHE:     285979
LLC WQ MERGED:          0
LLC WQ FORWARD:         34
Major fault: 0 Minor fault: 6524
CPU 0 L1D next line prefetcher final stats
CPU 0 L2C PC-based stride prefetcher final stats
All Misses: 7806112
All Hits: 7251209
SD Algo Stats - Switches: 0 SRR-Repls: 527868 BRR-Repls: 0

DRAM Statistics
 CHANNEL 0
 RQ ROW_BUFFER_HIT:    5055826  ROW_BUFFER_MISS:     858384
 DBUS_CONGESTED:    2004903
 WQ ROW_BUFFER_HIT:      15396  ROW_BUFFER_MISS:     108133  FULL:          0

 AVG_CONGESTED_CYCLE: 11
LOADS RETIRED: 175418235
INSTR RETIRED: 500000000
