
*** ChampSim Multicore Out-of-Order Simulator ***

Warmup Instructions: 100000000
Simulation Instructions: 500000000
Number of CPUs: 1
LLC sets: 2048
LLC ways: 16
Clean RRIP Policies: 1113010111130101 Dirty RRIP Policies: 1113210111132101 PSEL Width: 10 Track Set: 4294967295 PSEL Mask: 1 Demote Mask: 3000214430002144DS Algo: 0Window size: 0
Off-chip DRAM Size: 4096 MB Channels: 1 Width: 64-bit Data Rate: 1600 MT/s

CPU 0 runs /mnt/beegfs/iconst01/spec2017/Gcc.trace.gz
NOT SORTED
TRACE STRING: /mnt/beegfs/iconst01/spec2017/Gcc.trace.gz
SORTED
TRACE STRING: /mnt/beegfs/iconst01/spec2017/Gcc.trace.gz
INITIAL
TRACE STRING: /mnt/beegfs/iconst01/spec2017/Gcc.trace.gz

champsim_seed used: 269

CPU 0 L1D next line prefetcher
CPU 0 L2C IP-based stride prefetcher
Initialize DRRIP state
Assign rand_sets[0]: 454  LLC: 2048
rand_sets[0]: 454
Assign rand_sets[1]: 1662  LLC: 2048
rand_sets[1]: 1662
Assign rand_sets[2]: 1921  LLC: 2048
rand_sets[2]: 1921
Assign rand_sets[3]: 1131  LLC: 2048
rand_sets[3]: 1131
Assign rand_sets[4]: 331  LLC: 2048
rand_sets[4]: 331
Assign rand_sets[5]: 1531  LLC: 2048
rand_sets[5]: 1531
Assign rand_sets[6]: 482  LLC: 2048
rand_sets[6]: 482
Assign rand_sets[7]: 1275  LLC: 2048
rand_sets[7]: 1275
Assign rand_sets[8]: 1876  LLC: 2048
rand_sets[8]: 1876
Assign rand_sets[9]: 2038  LLC: 2048
rand_sets[9]: 2038
Assign rand_sets[10]: 701  LLC: 2048
rand_sets[10]: 701
Assign rand_sets[11]: 479  LLC: 2048
rand_sets[11]: 479
Assign rand_sets[12]: 892  LLC: 2048
rand_sets[12]: 892
Assign rand_sets[13]: 1820  LLC: 2048
rand_sets[13]: 1820
Assign rand_sets[14]: 1505  LLC: 2048
rand_sets[14]: 1505
Assign rand_sets[15]: 1159  LLC: 2048
rand_sets[15]: 1159
Assign rand_sets[16]: 513  LLC: 2048
rand_sets[16]: 513
Assign rand_sets[17]: 703  LLC: 2048
rand_sets[17]: 703
Assign rand_sets[18]: 561  LLC: 2048
rand_sets[18]: 561
Assign rand_sets[19]: 990  LLC: 2048
rand_sets[19]: 990
Assign rand_sets[20]: 342  LLC: 2048
rand_sets[20]: 342
Assign rand_sets[21]: 882  LLC: 2048
rand_sets[21]: 882
Assign rand_sets[22]: 15  LLC: 2048
rand_sets[22]: 15
Assign rand_sets[23]: 71  LLC: 2048
rand_sets[23]: 71
Assign rand_sets[24]: 1127  LLC: 2048
rand_sets[24]: 1127
Assign rand_sets[25]: 1382  LLC: 2048
rand_sets[25]: 1382
Assign rand_sets[26]: 647  LLC: 2048
rand_sets[26]: 647
Assign rand_sets[27]: 857  LLC: 2048
rand_sets[27]: 857
Assign rand_sets[28]: 1450  LLC: 2048
rand_sets[28]: 1450
Assign rand_sets[29]: 1160  LLC: 2048
rand_sets[29]: 1160
Assign rand_sets[30]: 1852  LLC: 2048
rand_sets[30]: 1852
Assign rand_sets[31]: 1881  LLC: 2048
rand_sets[31]: 1881
Assign rand_sets[32]: 1770  LLC: 2048
rand_sets[32]: 1770
Assign rand_sets[33]: 1622  LLC: 2048
rand_sets[33]: 1622
Assign rand_sets[34]: 275  LLC: 2048
rand_sets[34]: 275
Assign rand_sets[35]: 635  LLC: 2048
rand_sets[35]: 635
Assign rand_sets[36]: 466  LLC: 2048
rand_sets[36]: 466
Assign rand_sets[37]: 1413  LLC: 2048
rand_sets[37]: 1413
Assign rand_sets[38]: 417  LLC: 2048
rand_sets[38]: 417
Assign rand_sets[39]: 472  LLC: 2048
rand_sets[39]: 472
Assign rand_sets[40]: 1340  LLC: 2048
rand_sets[40]: 1340
Assign rand_sets[41]: 852  LLC: 2048
rand_sets[41]: 852
Assign rand_sets[42]: 1365  LLC: 2048
rand_sets[42]: 1365
Assign rand_sets[43]: 47  LLC: 2048
rand_sets[43]: 47
Assign rand_sets[44]: 823  LLC: 2048
rand_sets[44]: 823
Assign rand_sets[45]: 686  LLC: 2048
rand_sets[45]: 686
Assign rand_sets[46]: 1637  LLC: 2048
rand_sets[46]: 1637
Assign rand_sets[47]: 1115  LLC: 2048
rand_sets[47]: 1115
Assign rand_sets[48]: 986  LLC: 2048
rand_sets[48]: 986
Assign rand_sets[49]: 258  LLC: 2048
rand_sets[49]: 258
Assign rand_sets[50]: 633  LLC: 2048
rand_sets[50]: 633
Assign rand_sets[51]: 920  LLC: 2048
rand_sets[51]: 920
Assign rand_sets[52]: 204  LLC: 2048
rand_sets[52]: 204
Assign rand_sets[53]: 227  LLC: 2048
rand_sets[53]: 227
Assign rand_sets[54]: 1818  LLC: 2048
rand_sets[54]: 1818
Assign rand_sets[55]: 886  LLC: 2048
rand_sets[55]: 886
Assign rand_sets[56]: 1422  LLC: 2048
rand_sets[56]: 1422
Assign rand_sets[57]: 607  LLC: 2048
rand_sets[57]: 607
Assign rand_sets[58]: 217  LLC: 2048
rand_sets[58]: 217
Assign rand_sets[59]: 1945  LLC: 2048
rand_sets[59]: 1945
Assign rand_sets[60]: 143  LLC: 2048
rand_sets[60]: 143
Assign rand_sets[61]: 1311  LLC: 2048
rand_sets[61]: 1311
Assign rand_sets[62]: 319  LLC: 2048
rand_sets[62]: 319
Assign rand_sets[63]: 1846  LLC: 2048
rand_sets[63]: 1846
 CLEAN-RRIP-POLICY-1: 1-1-1-3-0-1-0-1- CLEAN-RRIP-POLICY-2: 1-1-1-3-0-1-0-1-
 DIRTY-RRIP-POLICY-1: 1-1-1-3-2-1-0-1- DIRTY-RRIP-POLICY-2: 1-1-1-3-2-1-0-1-
 PSEL width: 10
Heartbeat CPU 0 instructions: 10000001 cycles: 7315980 heartbeat IPC: 1.36687 cumulative IPC: 1.36687 (Simulation time: 0 hr 0 min 16 sec) 
Heartbeat CPU 0 instructions: 20000000 cycles: 14307421 heartbeat IPC: 1.43032 cumulative IPC: 1.39788 (Simulation time: 0 hr 0 min 31 sec) 
Heartbeat CPU 0 instructions: 30000001 cycles: 21020221 heartbeat IPC: 1.48969 cumulative IPC: 1.4272 (Simulation time: 0 hr 0 min 47 sec) 
Heartbeat CPU 0 instructions: 40000000 cycles: 27480997 heartbeat IPC: 1.5478 cumulative IPC: 1.45555 (Simulation time: 0 hr 1 min 4 sec) 
Heartbeat CPU 0 instructions: 50000001 cycles: 33582572 heartbeat IPC: 1.63892 cumulative IPC: 1.48887 (Simulation time: 0 hr 1 min 20 sec) 
Heartbeat CPU 0 instructions: 60000000 cycles: 40063617 heartbeat IPC: 1.54296 cumulative IPC: 1.49762 (Simulation time: 0 hr 1 min 36 sec) 
Heartbeat CPU 0 instructions: 70000000 cycles: 47100785 heartbeat IPC: 1.42103 cumulative IPC: 1.48617 (Simulation time: 0 hr 1 min 51 sec) 
Heartbeat CPU 0 instructions: 80000000 cycles: 54190025 heartbeat IPC: 1.41059 cumulative IPC: 1.47629 (Simulation time: 0 hr 2 min 7 sec) 
Heartbeat CPU 0 instructions: 90000003 cycles: 61194122 heartbeat IPC: 1.42774 cumulative IPC: 1.47073 (Simulation time: 0 hr 2 min 22 sec) 
Heartbeat CPU 0 instructions: 100000000 cycles: 68360971 heartbeat IPC: 1.39531 cumulative IPC: 1.46282 (Simulation time: 0 hr 2 min 37 sec) 

Warmup complete CPU 0 instructions: 100000004 cycles: 68360972 (Simulation time: 0 hr 2 min 37 sec) 

Heartbeat CPU 0 instructions: 110000003 cycles: 95950115 heartbeat IPC: 0.362462 cumulative IPC: 0.362461 (Simulation time: 0 hr 3 min 7 sec) 
Heartbeat CPU 0 instructions: 120000000 cycles: 123382958 heartbeat IPC: 0.364526 cumulative IPC: 0.363491 (Simulation time: 0 hr 3 min 37 sec) 
Heartbeat CPU 0 instructions: 130000000 cycles: 148332136 heartbeat IPC: 0.400815 cumulative IPC: 0.375135 (Simulation time: 0 hr 4 min 7 sec) 
Heartbeat CPU 0 instructions: 140000000 cycles: 177667164 heartbeat IPC: 0.340889 cumulative IPC: 0.365944 (Simulation time: 0 hr 4 min 36 sec) 
Heartbeat CPU 0 instructions: 150000000 cycles: 207459899 heartbeat IPC: 0.335652 cumulative IPC: 0.359456 (Simulation time: 0 hr 5 min 6 sec) 
Heartbeat CPU 0 instructions: 160000000 cycles: 234838356 heartbeat IPC: 0.365251 cumulative IPC: 0.360409 (Simulation time: 0 hr 5 min 35 sec) 
Heartbeat CPU 0 instructions: 170000001 cycles: 262809155 heartbeat IPC: 0.357516 cumulative IPC: 0.359993 (Simulation time: 0 hr 6 min 6 sec) 
Heartbeat CPU 0 instructions: 180000000 cycles: 291188561 heartbeat IPC: 0.352368 cumulative IPC: 0.359022 (Simulation time: 0 hr 6 min 37 sec) 
Heartbeat CPU 0 instructions: 190000002 cycles: 319107544 heartbeat IPC: 0.358179 cumulative IPC: 0.358928 (Simulation time: 0 hr 7 min 7 sec) 
Heartbeat CPU 0 instructions: 200000000 cycles: 347395167 heartbeat IPC: 0.353511 cumulative IPC: 0.358379 (Simulation time: 0 hr 7 min 37 sec) 
Heartbeat CPU 0 instructions: 210000002 cycles: 375155375 heartbeat IPC: 0.360228 cumulative IPC: 0.358546 (Simulation time: 0 hr 8 min 7 sec) 
Heartbeat CPU 0 instructions: 220000000 cycles: 404163110 heartbeat IPC: 0.344736 cumulative IPC: 0.357353 (Simulation time: 0 hr 8 min 36 sec) 
Heartbeat CPU 0 instructions: 230000000 cycles: 431648590 heartbeat IPC: 0.363828 cumulative IPC: 0.357843 (Simulation time: 0 hr 9 min 5 sec) 
Heartbeat CPU 0 instructions: 240000000 cycles: 457585453 heartbeat IPC: 0.385552 cumulative IPC: 0.35969 (Simulation time: 0 hr 9 min 33 sec) 
Heartbeat CPU 0 instructions: 250000000 cycles: 487655496 heartbeat IPC: 0.332557 cumulative IPC: 0.357744 (Simulation time: 0 hr 10 min 5 sec) 
Heartbeat CPU 0 instructions: 260000000 cycles: 514714511 heartbeat IPC: 0.369563 cumulative IPC: 0.35846 (Simulation time: 0 hr 10 min 34 sec) 
Heartbeat CPU 0 instructions: 270000003 cycles: 543043001 heartbeat IPC: 0.353002 cumulative IPC: 0.358134 (Simulation time: 0 hr 11 min 5 sec) 
Heartbeat CPU 0 instructions: 280000000 cycles: 571109716 heartbeat IPC: 0.356294 cumulative IPC: 0.358032 (Simulation time: 0 hr 11 min 36 sec) 
Heartbeat CPU 0 instructions: 290000000 cycles: 599894903 heartbeat IPC: 0.347401 cumulative IPC: 0.357456 (Simulation time: 0 hr 12 min 7 sec) 
Heartbeat CPU 0 instructions: 300000000 cycles: 629589593 heartbeat IPC: 0.336761 cumulative IPC: 0.356361 (Simulation time: 0 hr 12 min 37 sec) 
Heartbeat CPU 0 instructions: 310000001 cycles: 658875373 heartbeat IPC: 0.341463 cumulative IPC: 0.355622 (Simulation time: 0 hr 13 min 7 sec) 
Heartbeat CPU 0 instructions: 320000000 cycles: 686974770 heartbeat IPC: 0.355879 cumulative IPC: 0.355634 (Simulation time: 0 hr 13 min 36 sec) 
Heartbeat CPU 0 instructions: 330000000 cycles: 715519267 heartbeat IPC: 0.35033 cumulative IPC: 0.3554 (Simulation time: 0 hr 14 min 6 sec) 
Heartbeat CPU 0 instructions: 340000000 cycles: 744716562 heartbeat IPC: 0.342497 cumulative IPC: 0.354843 (Simulation time: 0 hr 14 min 35 sec) 
Heartbeat CPU 0 instructions: 350000003 cycles: 771661202 heartbeat IPC: 0.371131 cumulative IPC: 0.355467 (Simulation time: 0 hr 15 min 5 sec) 
Heartbeat CPU 0 instructions: 360000000 cycles: 799710887 heartbeat IPC: 0.35651 cumulative IPC: 0.355507 (Simulation time: 0 hr 15 min 33 sec) 
Heartbeat CPU 0 instructions: 370000000 cycles: 827886626 heartbeat IPC: 0.354915 cumulative IPC: 0.355485 (Simulation time: 0 hr 16 min 2 sec) 
Heartbeat CPU 0 instructions: 380000000 cycles: 856377692 heartbeat IPC: 0.350987 cumulative IPC: 0.355322 (Simulation time: 0 hr 16 min 30 sec) 
Heartbeat CPU 0 instructions: 390000001 cycles: 883973846 heartbeat IPC: 0.362369 cumulative IPC: 0.355561 (Simulation time: 0 hr 16 min 59 sec) 
Heartbeat CPU 0 instructions: 400000000 cycles: 912601630 heartbeat IPC: 0.349311 cumulative IPC: 0.355349 (Simulation time: 0 hr 17 min 27 sec) 
Heartbeat CPU 0 instructions: 410000001 cycles: 939914451 heartbeat IPC: 0.366128 cumulative IPC: 0.355687 (Simulation time: 0 hr 17 min 56 sec) 
Heartbeat CPU 0 instructions: 420000000 cycles: 967236448 heartbeat IPC: 0.366005 cumulative IPC: 0.356 (Simulation time: 0 hr 18 min 24 sec) 
Heartbeat CPU 0 instructions: 430000002 cycles: 994913409 heartbeat IPC: 0.361311 cumulative IPC: 0.356159 (Simulation time: 0 hr 18 min 53 sec) 
Heartbeat CPU 0 instructions: 440000000 cycles: 1024372550 heartbeat IPC: 0.339453 cumulative IPC: 0.355644 (Simulation time: 0 hr 19 min 21 sec) 
Heartbeat CPU 0 instructions: 450000002 cycles: 1053588801 heartbeat IPC: 0.342275 cumulative IPC: 0.355248 (Simulation time: 0 hr 19 min 50 sec) 
Heartbeat CPU 0 instructions: 460000000 cycles: 1081274108 heartbeat IPC: 0.361202 cumulative IPC: 0.355411 (Simulation time: 0 hr 20 min 19 sec) 
Heartbeat CPU 0 instructions: 470000000 cycles: 1108910089 heartbeat IPC: 0.361847 cumulative IPC: 0.355581 (Simulation time: 0 hr 20 min 47 sec) 
Heartbeat CPU 0 instructions: 480000000 cycles: 1136796286 heartbeat IPC: 0.3586 cumulative IPC: 0.35566 (Simulation time: 0 hr 21 min 16 sec) 
Heartbeat CPU 0 instructions: 490000000 cycles: 1164393753 heartbeat IPC: 0.362352 cumulative IPC: 0.355829 (Simulation time: 0 hr 21 min 44 sec) 
Heartbeat CPU 0 instructions: 500000000 cycles: 1192651872 heartbeat IPC: 0.353881 cumulative IPC: 0.35578 (Simulation time: 0 hr 22 min 13 sec) 
Heartbeat CPU 0 instructions: 510000000 cycles: 1227880865 heartbeat IPC: 0.283857 cumulative IPC: 0.353595 (Simulation time: 0 hr 22 min 46 sec) 
Heartbeat CPU 0 instructions: 520000000 cycles: 1255902695 heartbeat IPC: 0.356865 cumulative IPC: 0.353672 (Simulation time: 0 hr 23 min 15 sec) 
Heartbeat CPU 0 instructions: 530000001 cycles: 1285285305 heartbeat IPC: 0.340337 cumulative IPC: 0.35335 (Simulation time: 0 hr 23 min 45 sec) 
Heartbeat CPU 0 instructions: 540000000 cycles: 1313353670 heartbeat IPC: 0.356273 cumulative IPC: 0.353416 (Simulation time: 0 hr 24 min 15 sec) 
Heartbeat CPU 0 instructions: 550000001 cycles: 1342543145 heartbeat IPC: 0.342589 cumulative IPC: 0.353168 (Simulation time: 0 hr 24 min 46 sec) 
Heartbeat CPU 0 instructions: 560000000 cycles: 1367916579 heartbeat IPC: 0.394113 cumulative IPC: 0.353967 (Simulation time: 0 hr 25 min 15 sec) 
Heartbeat CPU 0 instructions: 570000000 cycles: 1397321215 heartbeat IPC: 0.340082 cumulative IPC: 0.35366 (Simulation time: 0 hr 25 min 45 sec) 
Heartbeat CPU 0 instructions: 580000000 cycles: 1425242487 heartbeat IPC: 0.35815 cumulative IPC: 0.353752 (Simulation time: 0 hr 26 min 15 sec) 
Heartbeat CPU 0 instructions: 590000001 cycles: 1450046172 heartbeat IPC: 0.403166 cumulative IPC: 0.354639 (Simulation time: 0 hr 26 min 43 sec) 
Heartbeat CPU 0 instructions: 600000000 cycles: 1476218023 heartbeat IPC: 0.38209 cumulative IPC: 0.35515 (Simulation time: 0 hr 27 min 12 sec) 
Finished CPU 0 instructions: 500000000 cycles: 1407857073 cumulative IPC: 0.35515 (Simulation time: 0 hr 27 min 12 sec) 

CPU 0 Branch Prediction Accuracy: 86.4311% MPKI: 26.2662
Number of Branches: 96788573 Number of Mispredictions: 13133102
Number of LOAD Instructions: 164682285
Number of LOAD Instructions (ROI): 164682285
Number of STORE Instructions: 78194750
Number of STORE Instructions (ROI): 78194750
Total Destination Memory Operands: 83268534
Total Destination Memory Operands (ROI): 83268534
Total Source Memory Operands: 164712438
Total Source Memory Operands (ROI): 164712438
Number of DEPENDED LOADS: 7062663
Number of DEPENDED LOADS (ROI): 7062663
Number of SQ_ADDED: 83268522
Number of SQ_ADDED (ROI): 83268522
Number of LQ_ADDED: 236720750
Number of LQ_ADDED (ROI): 236720750
Number of Instructions read from trace: 600000066

ChampSim completed all CPUs

Region of Interest Statistics

CPU 0 cumulative IPC: 0.35515 instructions: 500000000 cycles: 1407857073
ITLB TOTAL     ACCESS:  100507158  HIT:  100302712  MISS:     204446
ITLB LOAD      ACCESS:  100507158  HIT:  100302712  MISS:     204446
ITLB RFO       ACCESS:          0  HIT:          0  MISS:          0
ITLB PREFETCH  ACCESS:          0  HIT:          0  MISS:          0
ITLB WRITEBACK ACCESS:          0  HIT:          0  MISS:          0
ITLB PREFETCH  REQUESTED:          0  ISSUED:          0  USEFUL:          0  USELESS:          0
ITLB TOTAL MSHR MERGED:     172424
ITLB LOAD MSHR MERGED:     172424
ITLB RFO MSHR MERGED:          0
ITLB PREFETCH MSHR MERGED:          0
ITLB WRITEBACK MSHR MERGED:          0
ITLB TOTAL ACCESSES:  100679582 HITS:  100302712 MISSES:     376870
ITLB LOAD ACCESSES:  100679582 HITS:  100302712 MISSES:     376870
ITLB RFO ACCESSES:          0 HITS:          0 MISSES:          0
ITLB PREFETCH ACCESSES:          0 HITS:          0 MISSES:          0
ITLB WRITEBACK ACCESSES:          0 HITS:          0 MISSES:          0
ITLB RQ ACCESS:  500000057
ITLB RQ TO_CACHE:  100679582
ITLB RQ MERGED:  399320475
ITLB RQ FORWARD:          0
ITLB WQ ACCESS:          0
ITLB WQ TO_CACHE:          0
ITLB WQ MERGED:          0
ITLB WQ FORWARD:          0
DTLB TOTAL     ACCESS:  165332820  HIT:  164698473  MISS:     634347
DTLB LOAD      ACCESS:  106289498  HIT:  105719503  MISS:     569995
DTLB RFO       ACCESS:   59043322  HIT:   58978970  MISS:      64352
DTLB PREFETCH  ACCESS:          0  HIT:          0  MISS:          0
DTLB WRITEBACK ACCESS:          0  HIT:          0  MISS:          0
DTLB PREFETCH  REQUESTED:          0  ISSUED:          0  USEFUL:          0  USELESS:          0
DTLB TOTAL MSHR MERGED:      99975
DTLB LOAD MSHR MERGED:      59468
DTLB RFO MSHR MERGED:      40507
DTLB PREFETCH MSHR MERGED:          0
DTLB WRITEBACK MSHR MERGED:          0
DTLB TOTAL ACCESSES:  165432795 HITS:  164698473 MISSES:     734322
DTLB LOAD ACCESSES:  106348966 HITS:  105719503 MISSES:     629463
DTLB RFO ACCESSES:   59083829 HITS:   58978970 MISSES:     104859
DTLB PREFETCH ACCESSES:          0 HITS:          0 MISSES:          0
DTLB WRITEBACK ACCESSES:          0 HITS:          0 MISSES:          0
DTLB RQ ACCESS:  200308254
DTLB RQ TO_CACHE:  165432795
DTLB RQ MERGED:   34875459
DTLB RQ FORWARD:          0
DTLB WQ ACCESS:          0
DTLB WQ TO_CACHE:          0
DTLB WQ MERGED:          0
DTLB WQ FORWARD:          0
L1D TOTAL     ACCESS:  281801579  HIT:  273892304  MISS:    7909275
L1D LOAD      ACCESS:  110412470  HIT:  107133930  MISS:    3278540
L1D RFO       ACCESS:   67101828  HIT:   66210567  MISS:     891261
L1D PREFETCH  ACCESS:  104287281  HIT:  100547807  MISS:    3739474
L1D WRITEBACK ACCESS:          0  HIT:          0  MISS:          0
L1D PREFETCH  REQUESTED:  110813863  ISSUED:  109114595  USEFUL:    1660283  USELESS:    2079155
L1D TOTAL MSHR MERGED:    2896285
L1D LOAD MSHR MERGED:     499391
L1D RFO MSHR MERGED:    1884733
L1D PREFETCH MSHR MERGED:     512161
L1D WRITEBACK MSHR MERGED:          0
L1D TOTAL ACCESSES:  284725427 HITS:  273919867 MISSES:   10805560
L1D LOAD ACCESSES:  110815416 HITS:  107135483 MISSES:    3679933
L1D RFO ACCESSES:   68974098 HITS:   66210567 MISSES:    2763531
L1D PREFETCH ACCESSES:  104935913 HITS:  100573817 MISSES:    4362096
L1D WRITEBACK ACCESSES:          0 HITS:          0 MISSES:          0
L1D RQ ACCESS:  130755651
L1D RQ TO_CACHE:  110813866
L1D RQ MERGED:   19940232
L1D RQ FORWARD:          0
L1D WQ ACCESS:   69552603
L1D WQ TO_CACHE:   68974099
L1D WQ MERGED:     578504
L1D WQ FORWARD:      27563
L1I TOTAL     ACCESS:  126554985  HIT:  122316431  MISS:    4238554
L1I LOAD      ACCESS:  126554985  HIT:  122316431  MISS:    4238554
L1I RFO       ACCESS:          0  HIT:          0  MISS:          0
L1I PREFETCH  ACCESS:          0  HIT:          0  MISS:          0
L1I WRITEBACK ACCESS:          0  HIT:          0  MISS:          0
L1I PREFETCH  REQUESTED:          0  ISSUED:          0  USEFUL:          0  USELESS:          0
L1I TOTAL MSHR MERGED:    1834373
L1I LOAD MSHR MERGED:    1834373
L1I RFO MSHR MERGED:          0
L1I PREFETCH MSHR MERGED:          0
L1I WRITEBACK MSHR MERGED:          0
L1I TOTAL ACCESSES:  128389361 HITS:  122316431 MISSES:    6072930
L1I LOAD ACCESSES:  128389361 HITS:  122316431 MISSES:    6072930
L1I RFO ACCESSES:          0 HITS:          0 MISSES:          0
L1I PREFETCH ACCESSES:          0 HITS:          0 MISSES:          0
L1I WRITEBACK ACCESSES:          0 HITS:          0 MISSES:          0
L1I RQ ACCESS:  500000057
L1I RQ TO_CACHE:  128389361
L1I RQ MERGED:  371610696
L1I RQ FORWARD:          0
L1I WQ ACCESS:          0
L1I WQ TO_CACHE:          0
L1I WQ MERGED:          0
L1I WQ FORWARD:          0
L2C TOTAL     ACCESS:   14904511  HIT:   11158019  MISS:    3746492
L2C LOAD      ACCESS:    7418889  HIT:    5098695  MISS:    2320194
L2C RFO       ACCESS:     878700  HIT:     409891  MISS:     468809
L2C PREFETCH  ACCESS:    4567694  HIT:    3627457  MISS:     940237
L2C WRITEBACK ACCESS:    2039228  HIT:    2021976  MISS:      17252
L2C PREFETCH  REQUESTED:     842735  ISSUED:     842735  USEFUL:     203211  USELESS:     736732
L2C TOTAL MSHR MERGED:       7651
L2C LOAD MSHR MERGED:        914
L2C RFO MSHR MERGED:          1
L2C PREFETCH MSHR MERGED:       6736
L2C WRITEBACK MSHR MERGED:          0
L2C TOTAL ACCESSES:   14913080 HITS:   11158467 MISSES:    3754613
L2C LOAD ACCESSES:    7419096 HITS:    5098902 MISSES:    2320194
L2C RFO ACCESSES:     878798 HITS:     409989 MISSES:     468809
L2C PREFETCH ACCESSES:    4575958 HITS:    3627600 MISSES:     948358
L2C WRITEBACK ACCESSES:    2039228 HITS:    2021976 MISSES:      17252
L2C RQ ACCESS:    8297897
L2C RQ TO_CACHE:    8297592
L2C RQ MERGED:          0
L2C RQ FORWARD:          0
L2C WQ ACCESS:    2039228
L2C WQ TO_CACHE:    2039228
L2C WQ MERGED:          0
L2C WQ FORWARD:        448
LLC TOTAL     ACCESS:    4609854  HIT:    3931727  MISS:     678127
LLC LOAD      ACCESS:    2319265  HIT:    2099945  MISS:     219320
LLC RFO       ACCESS:     468798  HIT:     379322  MISS:      89476
LLC PREFETCH  ACCESS:     941487  HIT:     636380  MISS:     305107
LLC WRITEBACK ACCESS:     880304  HIT:     816080  MISS:      64224
LLC PREFETCH  REQUESTED:          0  ISSUED:          0  USEFUL:      16691  USELESS:     289163
LLC TOTAL MSHR MERGED:        119
LLC LOAD MSHR MERGED:         43
LLC RFO MSHR MERGED:          0
LLC PREFETCH MSHR MERGED:         76
LLC WRITEBACK MSHR MERGED:          0
LLC TOTAL ACCESSES:    4610008 HITS:    3931762 MISSES:     678246
LLC LOAD ACCESSES:    2319280 HITS:    2099960 MISSES:     219320
LLC RFO ACCESSES:     468808 HITS:     379332 MISSES:      89476
LLC PREFETCH ACCESSES:     941616 HITS:     636390 MISSES:     305226
LLC WRITEBACK ACCESSES:     880304 HITS:     816080 MISSES:      64224
LLC 0 RQ ACCESS:    2788088
LLC 0 RQ TO_CACHE:    2788063
LLC 0 RQ MERGED:          0
LLC 0 RQ FORWARD:          0
LLC WQ ACCESS:     880304
LLC WQ TO_CACHE:     880304
LLC WQ MERGED:          0
LLC WQ FORWARD:         35
Major fault: 0 Minor fault: 12862
CPU 0 L1D next line prefetcher final stats
CPU 0 L2C PC-based stride prefetcher final stats
All Misses: 794299
All Hits: 4632561
SD Algo Stats - Switches: 0 SRR-Repls: 255399 BRR-Repls: 0

DRAM Statistics
 CHANNEL 0
 RQ ROW_BUFFER_HIT:     119025  ROW_BUFFER_MISS:     493533
 DBUS_CONGESTED:     427660
 WQ ROW_BUFFER_HIT:      25083  ROW_BUFFER_MISS:     235099  FULL:          0

 AVG_CONGESTED_CYCLE: 13
LOADS RETIRED: 136549171
INSTR RETIRED: 500000000
