
*** ChampSim Multicore Out-of-Order Simulator ***

Warmup Instructions: 100000000
Simulation Instructions: 500000000
Number of CPUs: 1
LLC sets: 2048
LLC ways: 16
Clean RRIP Policies: 1212230112122301 Dirty RRIP Policies: 2202130122021301 PSEL Width: 10 Track Set: 4294967295 PSEL Mask: 1 Demote Mask: 3010100030101000DS Algo: 0Window size: 0
Off-chip DRAM Size: 4096 MB Channels: 1 Width: 64-bit Data Rate: 1600 MT/s

CPU 0 runs /mnt/beegfs/iconst01/spec2017/Parest.trace.gz
NOT SORTED
TRACE STRING: /mnt/beegfs/iconst01/spec2017/Parest.trace.gz
SORTED
TRACE STRING: /mnt/beegfs/iconst01/spec2017/Parest.trace.gz
INITIAL
TRACE STRING: /mnt/beegfs/iconst01/spec2017/Parest.trace.gz

champsim_seed used: 623

CPU 0 L1D next line prefetcher
CPU 0 L2C IP-based stride prefetcher
Initialize DRRIP state
Assign rand_sets[0]: 454  LLC: 2048
rand_sets[0]: 454
Assign rand_sets[1]: 1662  LLC: 2048
rand_sets[1]: 1662
Assign rand_sets[2]: 1921  LLC: 2048
rand_sets[2]: 1921
Assign rand_sets[3]: 1131  LLC: 2048
rand_sets[3]: 1131
Assign rand_sets[4]: 331  LLC: 2048
rand_sets[4]: 331
Assign rand_sets[5]: 1531  LLC: 2048
rand_sets[5]: 1531
Assign rand_sets[6]: 482  LLC: 2048
rand_sets[6]: 482
Assign rand_sets[7]: 1275  LLC: 2048
rand_sets[7]: 1275
Assign rand_sets[8]: 1876  LLC: 2048
rand_sets[8]: 1876
Assign rand_sets[9]: 2038  LLC: 2048
rand_sets[9]: 2038
Assign rand_sets[10]: 701  LLC: 2048
rand_sets[10]: 701
Assign rand_sets[11]: 479  LLC: 2048
rand_sets[11]: 479
Assign rand_sets[12]: 892  LLC: 2048
rand_sets[12]: 892
Assign rand_sets[13]: 1820  LLC: 2048
rand_sets[13]: 1820
Assign rand_sets[14]: 1505  LLC: 2048
rand_sets[14]: 1505
Assign rand_sets[15]: 1159  LLC: 2048
rand_sets[15]: 1159
Assign rand_sets[16]: 513  LLC: 2048
rand_sets[16]: 513
Assign rand_sets[17]: 703  LLC: 2048
rand_sets[17]: 703
Assign rand_sets[18]: 561  LLC: 2048
rand_sets[18]: 561
Assign rand_sets[19]: 990  LLC: 2048
rand_sets[19]: 990
Assign rand_sets[20]: 342  LLC: 2048
rand_sets[20]: 342
Assign rand_sets[21]: 882  LLC: 2048
rand_sets[21]: 882
Assign rand_sets[22]: 15  LLC: 2048
rand_sets[22]: 15
Assign rand_sets[23]: 71  LLC: 2048
rand_sets[23]: 71
Assign rand_sets[24]: 1127  LLC: 2048
rand_sets[24]: 1127
Assign rand_sets[25]: 1382  LLC: 2048
rand_sets[25]: 1382
Assign rand_sets[26]: 647  LLC: 2048
rand_sets[26]: 647
Assign rand_sets[27]: 857  LLC: 2048
rand_sets[27]: 857
Assign rand_sets[28]: 1450  LLC: 2048
rand_sets[28]: 1450
Assign rand_sets[29]: 1160  LLC: 2048
rand_sets[29]: 1160
Assign rand_sets[30]: 1852  LLC: 2048
rand_sets[30]: 1852
Assign rand_sets[31]: 1881  LLC: 2048
rand_sets[31]: 1881
Assign rand_sets[32]: 1770  LLC: 2048
rand_sets[32]: 1770
Assign rand_sets[33]: 1622  LLC: 2048
rand_sets[33]: 1622
Assign rand_sets[34]: 275  LLC: 2048
rand_sets[34]: 275
Assign rand_sets[35]: 635  LLC: 2048
rand_sets[35]: 635
Assign rand_sets[36]: 466  LLC: 2048
rand_sets[36]: 466
Assign rand_sets[37]: 1413  LLC: 2048
rand_sets[37]: 1413
Assign rand_sets[38]: 417  LLC: 2048
rand_sets[38]: 417
Assign rand_sets[39]: 472  LLC: 2048
rand_sets[39]: 472
Assign rand_sets[40]: 1340  LLC: 2048
rand_sets[40]: 1340
Assign rand_sets[41]: 852  LLC: 2048
rand_sets[41]: 852
Assign rand_sets[42]: 1365  LLC: 2048
rand_sets[42]: 1365
Assign rand_sets[43]: 47  LLC: 2048
rand_sets[43]: 47
Assign rand_sets[44]: 823  LLC: 2048
rand_sets[44]: 823
Assign rand_sets[45]: 686  LLC: 2048
rand_sets[45]: 686
Assign rand_sets[46]: 1637  LLC: 2048
rand_sets[46]: 1637
Assign rand_sets[47]: 1115  LLC: 2048
rand_sets[47]: 1115
Assign rand_sets[48]: 986  LLC: 2048
rand_sets[48]: 986
Assign rand_sets[49]: 258  LLC: 2048
rand_sets[49]: 258
Assign rand_sets[50]: 633  LLC: 2048
rand_sets[50]: 633
Assign rand_sets[51]: 920  LLC: 2048
rand_sets[51]: 920
Assign rand_sets[52]: 204  LLC: 2048
rand_sets[52]: 204
Assign rand_sets[53]: 227  LLC: 2048
rand_sets[53]: 227
Assign rand_sets[54]: 1818  LLC: 2048
rand_sets[54]: 1818
Assign rand_sets[55]: 886  LLC: 2048
rand_sets[55]: 886
Assign rand_sets[56]: 1422  LLC: 2048
rand_sets[56]: 1422
Assign rand_sets[57]: 607  LLC: 2048
rand_sets[57]: 607
Assign rand_sets[58]: 217  LLC: 2048
rand_sets[58]: 217
Assign rand_sets[59]: 1945  LLC: 2048
rand_sets[59]: 1945
Assign rand_sets[60]: 143  LLC: 2048
rand_sets[60]: 143
Assign rand_sets[61]: 1311  LLC: 2048
rand_sets[61]: 1311
Assign rand_sets[62]: 319  LLC: 2048
rand_sets[62]: 319
Assign rand_sets[63]: 1846  LLC: 2048
rand_sets[63]: 1846
 CLEAN-RRIP-POLICY-1: 1-2-1-2-2-3-0-1- CLEAN-RRIP-POLICY-2: 1-2-1-2-2-3-0-1-
 DIRTY-RRIP-POLICY-1: 2-2-0-2-1-3-0-1- DIRTY-RRIP-POLICY-2: 2-2-0-2-1-3-0-1-
 PSEL width: 10
Heartbeat CPU 0 instructions: 10000001 cycles: 4386629 heartbeat IPC: 2.27965 cumulative IPC: 2.27965 (Simulation time: 0 hr 0 min 14 sec) 
Heartbeat CPU 0 instructions: 20000000 cycles: 8779806 heartbeat IPC: 2.27626 cumulative IPC: 2.27795 (Simulation time: 0 hr 0 min 28 sec) 
Heartbeat CPU 0 instructions: 30000003 cycles: 13211466 heartbeat IPC: 2.25649 cumulative IPC: 2.27076 (Simulation time: 0 hr 0 min 42 sec) 
Heartbeat CPU 0 instructions: 40000000 cycles: 17641599 heartbeat IPC: 2.25727 cumulative IPC: 2.26737 (Simulation time: 0 hr 0 min 56 sec) 
Heartbeat CPU 0 instructions: 50000000 cycles: 22049302 heartbeat IPC: 2.26876 cumulative IPC: 2.26765 (Simulation time: 0 hr 1 min 10 sec) 
Heartbeat CPU 0 instructions: 60000000 cycles: 26454415 heartbeat IPC: 2.27009 cumulative IPC: 2.26805 (Simulation time: 0 hr 1 min 23 sec) 
Heartbeat CPU 0 instructions: 70000000 cycles: 30854750 heartbeat IPC: 2.27255 cumulative IPC: 2.26869 (Simulation time: 0 hr 1 min 37 sec) 
Heartbeat CPU 0 instructions: 80000000 cycles: 35249840 heartbeat IPC: 2.27527 cumulative IPC: 2.26951 (Simulation time: 0 hr 1 min 52 sec) 
Heartbeat CPU 0 instructions: 90000000 cycles: 39643123 heartbeat IPC: 2.2762 cumulative IPC: 2.27026 (Simulation time: 0 hr 2 min 6 sec) 
Heartbeat CPU 0 instructions: 100000000 cycles: 44039945 heartbeat IPC: 2.27437 cumulative IPC: 2.27067 (Simulation time: 0 hr 2 min 20 sec) 

Warmup complete CPU 0 instructions: 100000002 cycles: 44039955 (Simulation time: 0 hr 2 min 20 sec) 

Heartbeat CPU 0 instructions: 110000000 cycles: 54605010 heartbeat IPC: 0.946516 cumulative IPC: 0.946516 (Simulation time: 0 hr 2 min 39 sec) 
Heartbeat CPU 0 instructions: 120000000 cycles: 64589008 heartbeat IPC: 1.0016 cumulative IPC: 0.973281 (Simulation time: 0 hr 2 min 57 sec) 
Heartbeat CPU 0 instructions: 130000000 cycles: 74485320 heartbeat IPC: 1.01048 cumulative IPC: 0.985372 (Simulation time: 0 hr 3 min 15 sec) 
Heartbeat CPU 0 instructions: 140000000 cycles: 84457095 heartbeat IPC: 1.00283 cumulative IPC: 0.989679 (Simulation time: 0 hr 3 min 34 sec) 
Heartbeat CPU 0 instructions: 150000000 cycles: 96154089 heartbeat IPC: 0.854921 cumulative IPC: 0.959433 (Simulation time: 0 hr 3 min 53 sec) 
Heartbeat CPU 0 instructions: 160000000 cycles: 107065018 heartbeat IPC: 0.916512 cumulative IPC: 0.952002 (Simulation time: 0 hr 4 min 11 sec) 
Heartbeat CPU 0 instructions: 170000000 cycles: 117828771 heartbeat IPC: 0.929044 cumulative IPC: 0.948653 (Simulation time: 0 hr 4 min 29 sec) 
Heartbeat CPU 0 instructions: 180000000 cycles: 128562482 heartbeat IPC: 0.931644 cumulative IPC: 0.946493 (Simulation time: 0 hr 4 min 47 sec) 
Heartbeat CPU 0 instructions: 190000002 cycles: 139318456 heartbeat IPC: 0.929716 cumulative IPC: 0.944599 (Simulation time: 0 hr 5 min 6 sec) 
Heartbeat CPU 0 instructions: 200000000 cycles: 149483745 heartbeat IPC: 0.98374 cumulative IPC: 0.948373 (Simulation time: 0 hr 5 min 24 sec) 
Heartbeat CPU 0 instructions: 210000000 cycles: 160076854 heartbeat IPC: 0.94401 cumulative IPC: 0.947974 (Simulation time: 0 hr 5 min 43 sec) 
Heartbeat CPU 0 instructions: 220000000 cycles: 169915366 heartbeat IPC: 1.01641 cumulative IPC: 0.953324 (Simulation time: 0 hr 6 min 1 sec) 
Heartbeat CPU 0 instructions: 230000001 cycles: 181771467 heartbeat IPC: 0.843448 cumulative IPC: 0.943865 (Simulation time: 0 hr 6 min 20 sec) 
Heartbeat CPU 0 instructions: 240000000 cycles: 192804210 heartbeat IPC: 0.906393 cumulative IPC: 0.941086 (Simulation time: 0 hr 6 min 39 sec) 
Heartbeat CPU 0 instructions: 250000002 cycles: 203596978 heartbeat IPC: 0.926547 cumulative IPC: 0.940103 (Simulation time: 0 hr 6 min 57 sec) 
Heartbeat CPU 0 instructions: 260000000 cycles: 214176258 heartbeat IPC: 0.945244 cumulative IPC: 0.940422 (Simulation time: 0 hr 7 min 15 sec) 
Heartbeat CPU 0 instructions: 270000001 cycles: 224583815 heartbeat IPC: 0.96084 cumulative IPC: 0.941599 (Simulation time: 0 hr 7 min 34 sec) 
Heartbeat CPU 0 instructions: 280000000 cycles: 235287114 heartbeat IPC: 0.934291 cumulative IPC: 0.94119 (Simulation time: 0 hr 7 min 52 sec) 
Heartbeat CPU 0 instructions: 290000002 cycles: 245246401 heartbeat IPC: 1.00409 cumulative IPC: 0.944304 (Simulation time: 0 hr 8 min 10 sec) 
Heartbeat CPU 0 instructions: 300000000 cycles: 255724135 heartbeat IPC: 0.954405 cumulative IPC: 0.944804 (Simulation time: 0 hr 8 min 29 sec) 
Heartbeat CPU 0 instructions: 310000000 cycles: 265616795 heartbeat IPC: 1.01085 cumulative IPC: 0.947752 (Simulation time: 0 hr 8 min 47 sec) 
Heartbeat CPU 0 instructions: 320000000 cycles: 275459360 heartbeat IPC: 1.016 cumulative IPC: 0.950655 (Simulation time: 0 hr 9 min 5 sec) 
Heartbeat CPU 0 instructions: 330000003 cycles: 285502042 heartbeat IPC: 0.99575 cumulative IPC: 0.952531 (Simulation time: 0 hr 9 min 23 sec) 
Heartbeat CPU 0 instructions: 340000000 cycles: 296056622 heartbeat IPC: 0.947456 cumulative IPC: 0.952318 (Simulation time: 0 hr 9 min 42 sec) 
Heartbeat CPU 0 instructions: 350000000 cycles: 307122991 heartbeat IPC: 0.903639 cumulative IPC: 0.95027 (Simulation time: 0 hr 10 min 0 sec) 
Heartbeat CPU 0 instructions: 360000000 cycles: 317882034 heartbeat IPC: 0.929451 cumulative IPC: 0.949452 (Simulation time: 0 hr 10 min 19 sec) 
Heartbeat CPU 0 instructions: 370000000 cycles: 328415939 heartbeat IPC: 0.949316 cumulative IPC: 0.949447 (Simulation time: 0 hr 10 min 37 sec) 
Heartbeat CPU 0 instructions: 380000000 cycles: 338783054 heartbeat IPC: 0.964589 cumulative IPC: 0.94998 (Simulation time: 0 hr 10 min 55 sec) 
Heartbeat CPU 0 instructions: 390000002 cycles: 348860318 heartbeat IPC: 0.992333 cumulative IPC: 0.95138 (Simulation time: 0 hr 11 min 13 sec) 
Heartbeat CPU 0 instructions: 400000000 cycles: 359373519 heartbeat IPC: 0.951185 cumulative IPC: 0.951374 (Simulation time: 0 hr 11 min 32 sec) 
Heartbeat CPU 0 instructions: 410000000 cycles: 369176591 heartbeat IPC: 1.02009 cumulative IPC: 0.953445 (Simulation time: 0 hr 11 min 50 sec) 
Heartbeat CPU 0 instructions: 420000000 cycles: 380184729 heartbeat IPC: 0.908419 cumulative IPC: 0.951971 (Simulation time: 0 hr 12 min 8 sec) 
Heartbeat CPU 0 instructions: 430000000 cycles: 391565555 heartbeat IPC: 0.878671 cumulative IPC: 0.94957 (Simulation time: 0 hr 12 min 26 sec) 
Heartbeat CPU 0 instructions: 440000000 cycles: 402355792 heartbeat IPC: 0.926764 cumulative IPC: 0.948884 (Simulation time: 0 hr 12 min 45 sec) 
Heartbeat CPU 0 instructions: 450000000 cycles: 413067057 heartbeat IPC: 0.933597 cumulative IPC: 0.94844 (Simulation time: 0 hr 13 min 3 sec) 
Heartbeat CPU 0 instructions: 460000000 cycles: 423758850 heartbeat IPC: 0.935297 cumulative IPC: 0.94807 (Simulation time: 0 hr 13 min 21 sec) 
Heartbeat CPU 0 instructions: 470000001 cycles: 434460062 heartbeat IPC: 0.934474 cumulative IPC: 0.947697 (Simulation time: 0 hr 13 min 39 sec) 
Heartbeat CPU 0 instructions: 480000000 cycles: 444508710 heartbeat IPC: 0.995159 cumulative IPC: 0.948888 (Simulation time: 0 hr 13 min 57 sec) 
Heartbeat CPU 0 instructions: 490000002 cycles: 455110206 heartbeat IPC: 0.943263 cumulative IPC: 0.948743 (Simulation time: 0 hr 14 min 15 sec) 
Heartbeat CPU 0 instructions: 500000000 cycles: 465286235 heartbeat IPC: 0.982701 cumulative IPC: 0.949563 (Simulation time: 0 hr 14 min 33 sec) 
Heartbeat CPU 0 instructions: 510000000 cycles: 475085030 heartbeat IPC: 1.02053 cumulative IPC: 0.951177 (Simulation time: 0 hr 14 min 51 sec) 
Heartbeat CPU 0 instructions: 520000000 cycles: 485221867 heartbeat IPC: 0.986501 cumulative IPC: 0.951988 (Simulation time: 0 hr 15 min 9 sec) 
Heartbeat CPU 0 instructions: 530000001 cycles: 496010910 heartbeat IPC: 0.926866 cumulative IPC: 0.951389 (Simulation time: 0 hr 15 min 27 sec) 
Heartbeat CPU 0 instructions: 540000000 cycles: 507116677 heartbeat IPC: 0.900433 cumulative IPC: 0.950167 (Simulation time: 0 hr 15 min 46 sec) 
Heartbeat CPU 0 instructions: 550000003 cycles: 518092529 heartbeat IPC: 0.911091 cumulative IPC: 0.949262 (Simulation time: 0 hr 16 min 4 sec) 
Heartbeat CPU 0 instructions: 560000000 cycles: 528759550 heartbeat IPC: 0.937469 cumulative IPC: 0.949002 (Simulation time: 0 hr 16 min 22 sec) 
Heartbeat CPU 0 instructions: 570000002 cycles: 539157921 heartbeat IPC: 0.961689 cumulative IPC: 0.949269 (Simulation time: 0 hr 16 min 40 sec) 
Heartbeat CPU 0 instructions: 580000000 cycles: 549468916 heartbeat IPC: 0.969838 cumulative IPC: 0.949688 (Simulation time: 0 hr 16 min 57 sec) 
Heartbeat CPU 0 instructions: 590000002 cycles: 560065379 heartbeat IPC: 0.943711 cumulative IPC: 0.949566 (Simulation time: 0 hr 17 min 16 sec) 
Heartbeat CPU 0 instructions: 600000000 cycles: 570148664 heartbeat IPC: 0.99174 cumulative IPC: 0.950374 (Simulation time: 0 hr 17 min 33 sec) 
Finished CPU 0 instructions: 500000000 cycles: 526108723 cumulative IPC: 0.950374 (Simulation time: 0 hr 17 min 33 sec) 

CPU 0 Branch Prediction Accuracy: 97.8526% MPKI: 2.66709
Number of Branches: 62099103 Number of Mispredictions: 1333545
Number of LOAD Instructions: 210576465
Number of LOAD Instructions (ROI): 210576465
Number of STORE Instructions: 16915507
Number of STORE Instructions (ROI): 16915507
Total Destination Memory Operands: 16918869
Total Destination Memory Operands (ROI): 16918869
Total Source Memory Operands: 210576465
Total Source Memory Operands (ROI): 210576465
Number of DEPENDED LOADS: 355278
Number of DEPENDED LOADS (ROI): 355278
Number of SQ_ADDED: 16918826
Number of SQ_ADDED (ROI): 16918826
Number of LQ_ADDED: 210628449
Number of LQ_ADDED (ROI): 210628449
Number of Instructions read from trace: 600000257

ChampSim completed all CPUs

Region of Interest Statistics

CPU 0 cumulative IPC: 0.950374 instructions: 500000000 cycles: 526108723
ITLB TOTAL     ACCESS:   76703167  HIT:   76703129  MISS:         38
ITLB LOAD      ACCESS:   76703167  HIT:   76703129  MISS:         38
ITLB RFO       ACCESS:          0  HIT:          0  MISS:          0
ITLB PREFETCH  ACCESS:          0  HIT:          0  MISS:          0
ITLB WRITEBACK ACCESS:          0  HIT:          0  MISS:          0
ITLB PREFETCH  REQUESTED:          0  ISSUED:          0  USEFUL:          0  USELESS:          0
ITLB TOTAL MSHR MERGED:         37
ITLB LOAD MSHR MERGED:         37
ITLB RFO MSHR MERGED:          0
ITLB PREFETCH MSHR MERGED:          0
ITLB WRITEBACK MSHR MERGED:          0
ITLB TOTAL ACCESSES:   76703204 HITS:   76703129 MISSES:         75
ITLB LOAD ACCESSES:   76703204 HITS:   76703129 MISSES:         75
ITLB RFO ACCESSES:          0 HITS:          0 MISSES:          0
ITLB PREFETCH ACCESSES:          0 HITS:          0 MISSES:          0
ITLB WRITEBACK ACCESSES:          0 HITS:          0 MISSES:          0
ITLB RQ ACCESS:  500000188
ITLB RQ TO_CACHE:   76703205
ITLB RQ MERGED:  423296983
ITLB RQ FORWARD:          0
ITLB WQ ACCESS:          0
ITLB WQ TO_CACHE:          0
ITLB WQ MERGED:          0
ITLB WQ FORWARD:          0
DTLB TOTAL     ACCESS:  136569150  HIT:  136366361  MISS:     202789
DTLB LOAD      ACCESS:  128508220  HIT:  128308152  MISS:     200068
DTLB RFO       ACCESS:    8060930  HIT:    8058209  MISS:       2721
DTLB PREFETCH  ACCESS:          0  HIT:          0  MISS:          0
DTLB WRITEBACK ACCESS:          0  HIT:          0  MISS:          0
DTLB PREFETCH  REQUESTED:          0  ISSUED:          0  USEFUL:          0  USELESS:          0
DTLB TOTAL MSHR MERGED:     439826
DTLB LOAD MSHR MERGED:     436296
DTLB RFO MSHR MERGED:       3530
DTLB PREFETCH MSHR MERGED:          0
DTLB WRITEBACK MSHR MERGED:          0
DTLB TOTAL ACCESSES:  137008976 HITS:  136366361 MISSES:     642615
DTLB LOAD ACCESSES:  128944516 HITS:  128308152 MISSES:     636364
DTLB RFO ACCESSES:    8064460 HITS:    8058209 MISSES:       6251
DTLB PREFETCH ACCESSES:          0 HITS:          0 MISSES:          0
DTLB WRITEBACK ACCESSES:          0 HITS:          0 MISSES:          0
DTLB RQ ACCESS:  189408906
DTLB RQ TO_CACHE:  137008976
DTLB RQ MERGED:   52399930
DTLB RQ FORWARD:          0
DTLB WQ ACCESS:          0
DTLB WQ TO_CACHE:          0
DTLB WQ MERGED:          0
DTLB WQ FORWARD:          0
L1D TOTAL     ACCESS:  124511792  HIT:  106955005  MISS:   17556787
L1D LOAD      ACCESS:   71886928  HIT:   61372413  MISS:   10514515
L1D RFO       ACCESS:   14019974  HIT:   13867143  MISS:     152831
L1D PREFETCH  ACCESS:   38604890  HIT:   31715449  MISS:    6889441
L1D WRITEBACK ACCESS:          0  HIT:          0  MISS:          0
L1D PREFETCH  REQUESTED:   85703255  ISSUED:   84379444  USEFUL:    5630201  USELESS:    1259251
L1D TOTAL MSHR MERGED:   33455953
L1D LOAD MSHR MERGED:   19302910
L1D RFO MSHR MERGED:     268575
L1D PREFETCH MSHR MERGED:   13884468
L1D WRITEBACK MSHR MERGED:          0
L1D TOTAL ACCESSES:  157968329 HITS:  106955590 MISSES:   51012739
L1D LOAD ACCESSES:   85703264 HITS:   61372422 MISSES:   24330842
L1D RFO ACCESSES:   14288529 HITS:   13867143 MISSES:     421386
L1D PREFETCH ACCESSES:   57976536 HITS:   31716025 MISSES:   26260511
L1D WRITEBACK ACCESSES:          0 HITS:          0 MISSES:          0
L1D RQ ACCESS:  175119884
L1D RQ TO_CACHE:   85703255
L1D RQ MERGED:   89416620
L1D RQ FORWARD:          0
L1D WQ ACCESS:   14289037
L1D WQ TO_CACHE:   14288529
L1D WQ MERGED:        508
L1D WQ FORWARD:        585
L1I TOTAL     ACCESS:   93751189  HIT:   93749393  MISS:       1796
L1I LOAD      ACCESS:   93751189  HIT:   93749393  MISS:       1796
L1I RFO       ACCESS:          0  HIT:          0  MISS:          0
L1I PREFETCH  ACCESS:          0  HIT:          0  MISS:          0
L1I WRITEBACK ACCESS:          0  HIT:          0  MISS:          0
L1I PREFETCH  REQUESTED:          0  ISSUED:          0  USEFUL:          0  USELESS:          0
L1I TOTAL MSHR MERGED:       2354
L1I LOAD MSHR MERGED:       2354
L1I RFO MSHR MERGED:          0
L1I PREFETCH MSHR MERGED:          0
L1I WRITEBACK MSHR MERGED:          0
L1I TOTAL ACCESSES:   93753543 HITS:   93749393 MISSES:       4150
L1I LOAD ACCESSES:   93753543 HITS:   93749393 MISSES:       4150
L1I RFO ACCESSES:          0 HITS:          0 MISSES:          0
L1I PREFETCH ACCESSES:          0 HITS:          0 MISSES:          0
L1I WRITEBACK ACCESSES:          0 HITS:          0 MISSES:          0
L1I RQ ACCESS:  500000187
L1I RQ TO_CACHE:   93753543
L1I RQ MERGED:  406246644
L1I RQ FORWARD:          0
L1I WQ ACCESS:          0
L1I WQ TO_CACHE:          0
L1I WQ MERGED:          0
L1I WQ FORWARD:          0
L2C TOTAL     ACCESS:   20915987  HIT:    8686814  MISS:   12229173
L2C LOAD      ACCESS:    5029698  HIT:    2137569  MISS:    2892129
L2C RFO       ACCESS:     152811  HIT:       6511  MISS:     146300
L2C PREFETCH  ACCESS:   13960722  HIT:    4770087  MISS:    9190635
L2C WRITEBACK ACCESS:    1772756  HIT:    1772647  MISS:        109
L2C PREFETCH  REQUESTED:    1793566  ISSUED:    1793566  USEFUL:    1076902  USELESS:    8115394
L2C TOTAL MSHR MERGED:      68946
L2C LOAD MSHR MERGED:      13941
L2C RFO MSHR MERGED:          0
L2C PREFETCH MSHR MERGED:      55005
L2C WRITEBACK MSHR MERGED:          0
L2C TOTAL ACCESSES:   21012847 HITS:    8686861 MISSES:   12325986
L2C LOAD ACCESSES:    5029728 HITS:    2137599 MISSES:    2892129
L2C RFO ACCESSES:     152811 HITS:       6511 MISSES:     146300
L2C PREFETCH ACCESSES:   14057552 HITS:    4770104 MISSES:    9287448
L2C WRITEBACK ACCESSES:    1772756 HITS:    1772647 MISSES:        109
L2C RQ ACCESS:    5182539
L2C RQ TO_CACHE:    5182509
L2C RQ MERGED:          0
L2C RQ FORWARD:          0
L2C WQ ACCESS:    1772756
L2C WQ TO_CACHE:    1772756
L2C WQ MERGED:          0
L2C WQ FORWARD:         47
LLC TOTAL     ACCESS:   12535213  HIT:    4689958  MISS:    7845255
LLC LOAD      ACCESS:    2878174  HIT:    1803202  MISS:    1074972
LLC RFO       ACCESS:     146300  HIT:      31352  MISS:     114948
LLC PREFETCH  ACCESS:    9224747  HIT:    2662750  MISS:    6561997
LLC WRITEBACK ACCESS:     285992  HIT:     192654  MISS:      93338
LLC PREFETCH  REQUESTED:          0  ISSUED:          0  USEFUL:     397426  USELESS:    6172452
LLC TOTAL MSHR MERGED:       3569
LLC LOAD MSHR MERGED:        705
LLC RFO MSHR MERGED:          0
LLC PREFETCH MSHR MERGED:       2864
LLC WRITEBACK MSHR MERGED:          0
LLC TOTAL ACCESSES:   12538814 HITS:    4689990 MISSES:    7848824
LLC LOAD ACCESSES:    2878188 HITS:    1803216 MISSES:    1074972
LLC RFO ACCESSES:     146300 HITS:      31352 MISSES:     114948
LLC PREFETCH ACCESSES:    9228334 HITS:    2662768 MISSES:    6565566
LLC WRITEBACK ACCESSES:     285992 HITS:     192654 MISSES:      93338
LLC 0 RQ ACCESS:    3024488
LLC 0 RQ TO_CACHE:    3024474
LLC 0 RQ MERGED:          0
LLC 0 RQ FORWARD:          0
LLC WQ ACCESS:     285992
LLC WQ TO_CACHE:     285992
LLC WQ MERGED:          0
LLC WQ FORWARD:         32
Major fault: 0 Minor fault: 6524
CPU 0 L1D next line prefetcher final stats
CPU 0 L2C PC-based stride prefetcher final stats
All Misses: 9461089
All Hits: 5599149
SD Algo Stats - Switches: 0 SRR-Repls: 1117457 BRR-Repls: 0

DRAM Statistics
 CHANNEL 0
 RQ ROW_BUFFER_HIT:    6937497  ROW_BUFFER_MISS:     806147
 DBUS_CONGESTED:    3278844
 WQ ROW_BUFFER_HIT:      31825  ROW_BUFFER_MISS:      96283  FULL:          0

 AVG_CONGESTED_CYCLE: 11
LOADS RETIRED: 175418235
INSTR RETIRED: 500000000
