
*** ChampSim Multicore Out-of-Order Simulator ***

Warmup Instructions: 100000000
Simulation Instructions: 500000000
Number of CPUs: 1
LLC sets: 2048
LLC ways: 16
Clean RRIP Policies: 1212230112122301 Dirty RRIP Policies: 2202130122021301 PSEL Width: 10 Track Set: 4294967295 PSEL Mask: 1 Demote Mask: 3010100030101000DS Algo: 0Window size: 0
Off-chip DRAM Size: 4096 MB Channels: 1 Width: 64-bit Data Rate: 1600 MT/s

CPU 0 runs /mnt/beegfs/iconst01/spec2017/Xalancbmk.trace.gz
NOT SORTED
TRACE STRING: /mnt/beegfs/iconst01/spec2017/Xalancbmk.trace.gz
SORTED
TRACE STRING: /mnt/beegfs/iconst01/spec2017/Xalancbmk.trace.gz
INITIAL
TRACE STRING: /mnt/beegfs/iconst01/spec2017/Xalancbmk.trace.gz

champsim_seed used: 913

CPU 0 L1D next line prefetcher
CPU 0 L2C IP-based stride prefetcher
Initialize DRRIP state
Assign rand_sets[0]: 454  LLC: 2048
rand_sets[0]: 454
Assign rand_sets[1]: 1662  LLC: 2048
rand_sets[1]: 1662
Assign rand_sets[2]: 1921  LLC: 2048
rand_sets[2]: 1921
Assign rand_sets[3]: 1131  LLC: 2048
rand_sets[3]: 1131
Assign rand_sets[4]: 331  LLC: 2048
rand_sets[4]: 331
Assign rand_sets[5]: 1531  LLC: 2048
rand_sets[5]: 1531
Assign rand_sets[6]: 482  LLC: 2048
rand_sets[6]: 482
Assign rand_sets[7]: 1275  LLC: 2048
rand_sets[7]: 1275
Assign rand_sets[8]: 1876  LLC: 2048
rand_sets[8]: 1876
Assign rand_sets[9]: 2038  LLC: 2048
rand_sets[9]: 2038
Assign rand_sets[10]: 701  LLC: 2048
rand_sets[10]: 701
Assign rand_sets[11]: 479  LLC: 2048
rand_sets[11]: 479
Assign rand_sets[12]: 892  LLC: 2048
rand_sets[12]: 892
Assign rand_sets[13]: 1820  LLC: 2048
rand_sets[13]: 1820
Assign rand_sets[14]: 1505  LLC: 2048
rand_sets[14]: 1505
Assign rand_sets[15]: 1159  LLC: 2048
rand_sets[15]: 1159
Assign rand_sets[16]: 513  LLC: 2048
rand_sets[16]: 513
Assign rand_sets[17]: 703  LLC: 2048
rand_sets[17]: 703
Assign rand_sets[18]: 561  LLC: 2048
rand_sets[18]: 561
Assign rand_sets[19]: 990  LLC: 2048
rand_sets[19]: 990
Assign rand_sets[20]: 342  LLC: 2048
rand_sets[20]: 342
Assign rand_sets[21]: 882  LLC: 2048
rand_sets[21]: 882
Assign rand_sets[22]: 15  LLC: 2048
rand_sets[22]: 15
Assign rand_sets[23]: 71  LLC: 2048
rand_sets[23]: 71
Assign rand_sets[24]: 1127  LLC: 2048
rand_sets[24]: 1127
Assign rand_sets[25]: 1382  LLC: 2048
rand_sets[25]: 1382
Assign rand_sets[26]: 647  LLC: 2048
rand_sets[26]: 647
Assign rand_sets[27]: 857  LLC: 2048
rand_sets[27]: 857
Assign rand_sets[28]: 1450  LLC: 2048
rand_sets[28]: 1450
Assign rand_sets[29]: 1160  LLC: 2048
rand_sets[29]: 1160
Assign rand_sets[30]: 1852  LLC: 2048
rand_sets[30]: 1852
Assign rand_sets[31]: 1881  LLC: 2048
rand_sets[31]: 1881
Assign rand_sets[32]: 1770  LLC: 2048
rand_sets[32]: 1770
Assign rand_sets[33]: 1622  LLC: 2048
rand_sets[33]: 1622
Assign rand_sets[34]: 275  LLC: 2048
rand_sets[34]: 275
Assign rand_sets[35]: 635  LLC: 2048
rand_sets[35]: 635
Assign rand_sets[36]: 466  LLC: 2048
rand_sets[36]: 466
Assign rand_sets[37]: 1413  LLC: 2048
rand_sets[37]: 1413
Assign rand_sets[38]: 417  LLC: 2048
rand_sets[38]: 417
Assign rand_sets[39]: 472  LLC: 2048
rand_sets[39]: 472
Assign rand_sets[40]: 1340  LLC: 2048
rand_sets[40]: 1340
Assign rand_sets[41]: 852  LLC: 2048
rand_sets[41]: 852
Assign rand_sets[42]: 1365  LLC: 2048
rand_sets[42]: 1365
Assign rand_sets[43]: 47  LLC: 2048
rand_sets[43]: 47
Assign rand_sets[44]: 823  LLC: 2048
rand_sets[44]: 823
Assign rand_sets[45]: 686  LLC: 2048
rand_sets[45]: 686
Assign rand_sets[46]: 1637  LLC: 2048
rand_sets[46]: 1637
Assign rand_sets[47]: 1115  LLC: 2048
rand_sets[47]: 1115
Assign rand_sets[48]: 986  LLC: 2048
rand_sets[48]: 986
Assign rand_sets[49]: 258  LLC: 2048
rand_sets[49]: 258
Assign rand_sets[50]: 633  LLC: 2048
rand_sets[50]: 633
Assign rand_sets[51]: 920  LLC: 2048
rand_sets[51]: 920
Assign rand_sets[52]: 204  LLC: 2048
rand_sets[52]: 204
Assign rand_sets[53]: 227  LLC: 2048
rand_sets[53]: 227
Assign rand_sets[54]: 1818  LLC: 2048
rand_sets[54]: 1818
Assign rand_sets[55]: 886  LLC: 2048
rand_sets[55]: 886
Assign rand_sets[56]: 1422  LLC: 2048
rand_sets[56]: 1422
Assign rand_sets[57]: 607  LLC: 2048
rand_sets[57]: 607
Assign rand_sets[58]: 217  LLC: 2048
rand_sets[58]: 217
Assign rand_sets[59]: 1945  LLC: 2048
rand_sets[59]: 1945
Assign rand_sets[60]: 143  LLC: 2048
rand_sets[60]: 143
Assign rand_sets[61]: 1311  LLC: 2048
rand_sets[61]: 1311
Assign rand_sets[62]: 319  LLC: 2048
rand_sets[62]: 319
Assign rand_sets[63]: 1846  LLC: 2048
rand_sets[63]: 1846
 CLEAN-RRIP-POLICY-1: 1-2-1-2-2-3-0-1- CLEAN-RRIP-POLICY-2: 1-2-1-2-2-3-0-1-
 DIRTY-RRIP-POLICY-1: 2-2-0-2-1-3-0-1- DIRTY-RRIP-POLICY-2: 2-2-0-2-1-3-0-1-
 PSEL width: 10
Heartbeat CPU 0 instructions: 10000003 cycles: 4611808 heartbeat IPC: 2.16835 cumulative IPC: 2.16835 (Simulation time: 0 hr 0 min 15 sec) 
Heartbeat CPU 0 instructions: 20000000 cycles: 9031910 heartbeat IPC: 2.26239 cumulative IPC: 2.21437 (Simulation time: 0 hr 0 min 29 sec) 
Heartbeat CPU 0 instructions: 30000000 cycles: 13483640 heartbeat IPC: 2.24632 cumulative IPC: 2.22492 (Simulation time: 0 hr 0 min 43 sec) 
Heartbeat CPU 0 instructions: 40000000 cycles: 18130665 heartbeat IPC: 2.15191 cumulative IPC: 2.20621 (Simulation time: 0 hr 0 min 59 sec) 
Heartbeat CPU 0 instructions: 50000002 cycles: 22573284 heartbeat IPC: 2.25093 cumulative IPC: 2.21501 (Simulation time: 0 hr 1 min 13 sec) 
Heartbeat CPU 0 instructions: 60000000 cycles: 27246989 heartbeat IPC: 2.13963 cumulative IPC: 2.20208 (Simulation time: 0 hr 1 min 28 sec) 
Heartbeat CPU 0 instructions: 70000003 cycles: 31680339 heartbeat IPC: 2.25563 cumulative IPC: 2.20957 (Simulation time: 0 hr 1 min 42 sec) 
Heartbeat CPU 0 instructions: 80000000 cycles: 36141395 heartbeat IPC: 2.24162 cumulative IPC: 2.21353 (Simulation time: 0 hr 1 min 57 sec) 
Heartbeat CPU 0 instructions: 90000002 cycles: 40639936 heartbeat IPC: 2.22294 cumulative IPC: 2.21457 (Simulation time: 0 hr 2 min 11 sec) 
Heartbeat CPU 0 instructions: 100000000 cycles: 45135230 heartbeat IPC: 2.22455 cumulative IPC: 2.21556 (Simulation time: 0 hr 2 min 26 sec) 

Warmup complete CPU 0 instructions: 100000003 cycles: 45135231 (Simulation time: 0 hr 2 min 26 sec) 

Heartbeat CPU 0 instructions: 110000000 cycles: 73954692 heartbeat IPC: 0.346988 cumulative IPC: 0.346988 (Simulation time: 0 hr 2 min 57 sec) 
Heartbeat CPU 0 instructions: 120000000 cycles: 106966280 heartbeat IPC: 0.302924 cumulative IPC: 0.323462 (Simulation time: 0 hr 3 min 32 sec) 
Heartbeat CPU 0 instructions: 130000000 cycles: 131996837 heartbeat IPC: 0.399512 cumulative IPC: 0.345377 (Simulation time: 0 hr 4 min 1 sec) 
Heartbeat CPU 0 instructions: 140000000 cycles: 156182359 heartbeat IPC: 0.413471 cumulative IPC: 0.360207 (Simulation time: 0 hr 4 min 29 sec) 
Heartbeat CPU 0 instructions: 150000000 cycles: 181620247 heartbeat IPC: 0.393114 cumulative IPC: 0.366341 (Simulation time: 0 hr 4 min 58 sec) 
Heartbeat CPU 0 instructions: 160000000 cycles: 208026770 heartbeat IPC: 0.378694 cumulative IPC: 0.368343 (Simulation time: 0 hr 5 min 28 sec) 
Heartbeat CPU 0 instructions: 170000002 cycles: 230476727 heartbeat IPC: 0.445435 cumulative IPC: 0.377681 (Simulation time: 0 hr 5 min 55 sec) 
Heartbeat CPU 0 instructions: 180000000 cycles: 254347030 heartbeat IPC: 0.418931 cumulative IPC: 0.382388 (Simulation time: 0 hr 6 min 23 sec) 
Heartbeat CPU 0 instructions: 190000000 cycles: 275440045 heartbeat IPC: 0.474091 cumulative IPC: 0.390786 (Simulation time: 0 hr 6 min 49 sec) 
Heartbeat CPU 0 instructions: 200000000 cycles: 296685319 heartbeat IPC: 0.470693 cumulative IPC: 0.397535 (Simulation time: 0 hr 7 min 15 sec) 
Heartbeat CPU 0 instructions: 210000001 cycles: 324618541 heartbeat IPC: 0.357997 cumulative IPC: 0.393583 (Simulation time: 0 hr 7 min 46 sec) 
Heartbeat CPU 0 instructions: 220000000 cycles: 352618950 heartbeat IPC: 0.357138 cumulative IPC: 0.390265 (Simulation time: 0 hr 8 min 16 sec) 
Heartbeat CPU 0 instructions: 230000000 cycles: 376249715 heartbeat IPC: 0.423177 cumulative IPC: 0.392613 (Simulation time: 0 hr 8 min 44 sec) 
Heartbeat CPU 0 instructions: 240000000 cycles: 402746975 heartbeat IPC: 0.377398 cumulative IPC: 0.391486 (Simulation time: 0 hr 9 min 14 sec) 
Heartbeat CPU 0 instructions: 250000001 cycles: 429742014 heartbeat IPC: 0.370438 cumulative IPC: 0.390009 (Simulation time: 0 hr 9 min 44 sec) 
Heartbeat CPU 0 instructions: 260000000 cycles: 451707433 heartbeat IPC: 0.455261 cumulative IPC: 0.393534 (Simulation time: 0 hr 10 min 11 sec) 
Heartbeat CPU 0 instructions: 270000000 cycles: 474476001 heartbeat IPC: 0.439202 cumulative IPC: 0.395956 (Simulation time: 0 hr 10 min 38 sec) 
Heartbeat CPU 0 instructions: 280000000 cycles: 505133885 heartbeat IPC: 0.32618 cumulative IPC: 0.391305 (Simulation time: 0 hr 11 min 10 sec) 
Heartbeat CPU 0 instructions: 290000000 cycles: 527774679 heartbeat IPC: 0.441681 cumulative IPC: 0.393669 (Simulation time: 0 hr 11 min 37 sec) 
Heartbeat CPU 0 instructions: 300000000 cycles: 548764420 heartbeat IPC: 0.476423 cumulative IPC: 0.397118 (Simulation time: 0 hr 12 min 3 sec) 
Heartbeat CPU 0 instructions: 310000000 cycles: 569735323 heartbeat IPC: 0.476851 cumulative IPC: 0.400305 (Simulation time: 0 hr 12 min 28 sec) 
Heartbeat CPU 0 instructions: 320000000 cycles: 602236012 heartbeat IPC: 0.307686 cumulative IPC: 0.394902 (Simulation time: 0 hr 13 min 1 sec) 
Heartbeat CPU 0 instructions: 330000001 cycles: 622439872 heartbeat IPC: 0.494955 cumulative IPC: 0.398403 (Simulation time: 0 hr 13 min 27 sec) 
Heartbeat CPU 0 instructions: 340000000 cycles: 642896685 heartbeat IPC: 0.488835 cumulative IPC: 0.401498 (Simulation time: 0 hr 13 min 52 sec) 
Heartbeat CPU 0 instructions: 350000002 cycles: 669712957 heartbeat IPC: 0.372908 cumulative IPC: 0.40027 (Simulation time: 0 hr 14 min 21 sec) 
Heartbeat CPU 0 instructions: 360000000 cycles: 692576468 heartbeat IPC: 0.437378 cumulative IPC: 0.401581 (Simulation time: 0 hr 14 min 48 sec) 
Heartbeat CPU 0 instructions: 370000001 cycles: 718641425 heartbeat IPC: 0.383657 cumulative IPC: 0.400887 (Simulation time: 0 hr 15 min 17 sec) 
Heartbeat CPU 0 instructions: 380000000 cycles: 742624688 heartbeat IPC: 0.416957 cumulative IPC: 0.40144 (Simulation time: 0 hr 15 min 44 sec) 
Heartbeat CPU 0 instructions: 390000000 cycles: 761589375 heartbeat IPC: 0.527296 cumulative IPC: 0.404771 (Simulation time: 0 hr 16 min 9 sec) 
Heartbeat CPU 0 instructions: 400000000 cycles: 782982510 heartbeat IPC: 0.46744 cumulative IPC: 0.406588 (Simulation time: 0 hr 16 min 34 sec) 
Heartbeat CPU 0 instructions: 410000001 cycles: 810592295 heartbeat IPC: 0.36219 cumulative IPC: 0.404987 (Simulation time: 0 hr 17 min 4 sec) 
Heartbeat CPU 0 instructions: 420000000 cycles: 836871655 heartbeat IPC: 0.380527 cumulative IPC: 0.404175 (Simulation time: 0 hr 17 min 33 sec) 
Heartbeat CPU 0 instructions: 430000002 cycles: 859465173 heartbeat IPC: 0.442605 cumulative IPC: 0.405241 (Simulation time: 0 hr 18 min 0 sec) 
Heartbeat CPU 0 instructions: 440000000 cycles: 880326890 heartbeat IPC: 0.479347 cumulative IPC: 0.407092 (Simulation time: 0 hr 18 min 25 sec) 
Heartbeat CPU 0 instructions: 450000002 cycles: 909170791 heartbeat IPC: 0.346694 cumulative IPC: 0.405076 (Simulation time: 0 hr 18 min 56 sec) 
Heartbeat CPU 0 instructions: 460000000 cycles: 938025671 heartbeat IPC: 0.346562 cumulative IPC: 0.403185 (Simulation time: 0 hr 19 min 26 sec) 
Heartbeat CPU 0 instructions: 470000002 cycles: 965638063 heartbeat IPC: 0.362156 cumulative IPC: 0.401954 (Simulation time: 0 hr 19 min 56 sec) 
Heartbeat CPU 0 instructions: 480000000 cycles: 991233153 heartbeat IPC: 0.3907 cumulative IPC: 0.40165 (Simulation time: 0 hr 20 min 24 sec) 
Heartbeat CPU 0 instructions: 490000000 cycles: 1013092894 heartbeat IPC: 0.457462 cumulative IPC: 0.40291 (Simulation time: 0 hr 20 min 50 sec) 
Heartbeat CPU 0 instructions: 500000000 cycles: 1039121916 heartbeat IPC: 0.384187 cumulative IPC: 0.40242 (Simulation time: 0 hr 21 min 19 sec) 
Heartbeat CPU 0 instructions: 510000000 cycles: 1065586437 heartbeat IPC: 0.377864 cumulative IPC: 0.401783 (Simulation time: 0 hr 21 min 48 sec) 
Heartbeat CPU 0 instructions: 520000000 cycles: 1087363663 heartbeat IPC: 0.459195 cumulative IPC: 0.402983 (Simulation time: 0 hr 22 min 14 sec) 
Heartbeat CPU 0 instructions: 530000003 cycles: 1114336577 heartbeat IPC: 0.370742 cumulative IPC: 0.402169 (Simulation time: 0 hr 22 min 43 sec) 
Heartbeat CPU 0 instructions: 540000000 cycles: 1138488206 heartbeat IPC: 0.414051 cumulative IPC: 0.402432 (Simulation time: 0 hr 23 min 11 sec) 
Heartbeat CPU 0 instructions: 550000000 cycles: 1165442682 heartbeat IPC: 0.370996 cumulative IPC: 0.401675 (Simulation time: 0 hr 23 min 40 sec) 
Heartbeat CPU 0 instructions: 560000000 cycles: 1189896773 heartbeat IPC: 0.40893 cumulative IPC: 0.40183 (Simulation time: 0 hr 24 min 7 sec) 
Heartbeat CPU 0 instructions: 570000002 cycles: 1214560895 heartbeat IPC: 0.405447 cumulative IPC: 0.401907 (Simulation time: 0 hr 24 min 35 sec) 
Heartbeat CPU 0 instructions: 580000000 cycles: 1236412409 heartbeat IPC: 0.457634 cumulative IPC: 0.402929 (Simulation time: 0 hr 25 min 1 sec) 
Heartbeat CPU 0 instructions: 590000001 cycles: 1261421216 heartbeat IPC: 0.399859 cumulative IPC: 0.402866 (Simulation time: 0 hr 25 min 29 sec) 
Heartbeat CPU 0 instructions: 600000000 cycles: 1281175007 heartbeat IPC: 0.506232 cumulative IPC: 0.404518 (Simulation time: 0 hr 25 min 54 sec) 
Finished CPU 0 instructions: 500000000 cycles: 1236039797 cumulative IPC: 0.404518 (Simulation time: 0 hr 25 min 54 sec) 

CPU 0 Branch Prediction Accuracy: 99.5434% MPKI: 1.33026
Number of Branches: 145676990 Number of Mispredictions: 665128
Number of LOAD Instructions: 188863207
Number of LOAD Instructions (ROI): 188863207
Number of STORE Instructions: 7332002
Number of STORE Instructions (ROI): 7332002
Total Destination Memory Operands: 10029285
Total Destination Memory Operands (ROI): 10029285
Total Source Memory Operands: 188863207
Total Source Memory Operands (ROI): 188863207
Number of DEPENDED LOADS: 294966
Number of DEPENDED LOADS (ROI): 294966
Number of SQ_ADDED: 10029285
Number of SQ_ADDED (ROI): 10029285
Number of LQ_ADDED: 200982718
Number of LQ_ADDED (ROI): 200982718
Number of Instructions read from trace: 600000010

ChampSim completed all CPUs

Region of Interest Statistics

CPU 0 cumulative IPC: 0.404518 instructions: 500000000 cycles: 1236039797
ITLB TOTAL     ACCESS:  145745701  HIT:  145706161  MISS:      39540
ITLB LOAD      ACCESS:  145745701  HIT:  145706161  MISS:      39540
ITLB RFO       ACCESS:          0  HIT:          0  MISS:          0
ITLB PREFETCH  ACCESS:          0  HIT:          0  MISS:          0
ITLB WRITEBACK ACCESS:          0  HIT:          0  MISS:          0
ITLB PREFETCH  REQUESTED:          0  ISSUED:          0  USEFUL:          0  USELESS:          0
ITLB TOTAL MSHR MERGED:      57422
ITLB LOAD MSHR MERGED:      57422
ITLB RFO MSHR MERGED:          0
ITLB PREFETCH MSHR MERGED:          0
ITLB WRITEBACK MSHR MERGED:          0
ITLB TOTAL ACCESSES:  145803123 HITS:  145706161 MISSES:      96962
ITLB LOAD ACCESSES:  145803123 HITS:  145706161 MISSES:      96962
ITLB RFO ACCESSES:          0 HITS:          0 MISSES:          0
ITLB PREFETCH ACCESSES:          0 HITS:          0 MISSES:          0
ITLB WRITEBACK ACCESSES:          0 HITS:          0 MISSES:          0
ITLB RQ ACCESS:  499999754
ITLB RQ TO_CACHE:  145803123
ITLB RQ MERGED:  354196631
ITLB RQ FORWARD:          0
ITLB WQ ACCESS:          0
ITLB WQ TO_CACHE:          0
ITLB WQ MERGED:          0
ITLB WQ FORWARD:          0
DTLB TOTAL     ACCESS:  135321885  HIT:  134153532  MISS:    1168353
DTLB LOAD      ACCESS:  127280591  HIT:  126121336  MISS:    1159255
DTLB RFO       ACCESS:    8041294  HIT:    8032196  MISS:       9098
DTLB PREFETCH  ACCESS:          0  HIT:          0  MISS:          0
DTLB WRITEBACK ACCESS:          0  HIT:          0  MISS:          0
DTLB PREFETCH  REQUESTED:          0  ISSUED:          0  USEFUL:          0  USELESS:          0
DTLB TOTAL MSHR MERGED:     567149
DTLB LOAD MSHR MERGED:     562829
DTLB RFO MSHR MERGED:       4320
DTLB PREFETCH MSHR MERGED:          0
DTLB WRITEBACK MSHR MERGED:          0
DTLB TOTAL ACCESSES:  135889034 HITS:  134153532 MISSES:    1735502
DTLB LOAD ACCESSES:  127843420 HITS:  126121336 MISSES:    1722084
DTLB RFO ACCESSES:    8045614 HITS:    8032196 MISSES:      13418
DTLB PREFETCH ACCESSES:          0 HITS:          0 MISSES:          0
DTLB WRITEBACK ACCESSES:          0 HITS:          0 MISSES:          0
DTLB RQ ACCESS:  165759415
DTLB RQ TO_CACHE:  135889034
DTLB RQ MERGED:   29870381
DTLB RQ FORWARD:          0
DTLB WQ ACCESS:          0
DTLB WQ TO_CACHE:          0
DTLB WQ MERGED:          0
DTLB WQ FORWARD:          0
L1D TOTAL     ACCESS:  157629612  HIT:  140313906  MISS:   17315706
L1D LOAD      ACCESS:   90079521  HIT:   79087149  MISS:   10992372
L1D RFO       ACCESS:    8494836  HIT:    8407677  MISS:      87159
L1D PREFETCH  ACCESS:   59055255  HIT:   52819080  MISS:    6236175
L1D WRITEBACK ACCESS:          0  HIT:          0  MISS:          0
L1D PREFETCH  REQUESTED:   93738576  ISSUED:   92870183  USEFUL:    2154710  USELESS:    4081539
L1D TOTAL MSHR MERGED:   14416422
L1D LOAD MSHR MERGED:    6936371
L1D RFO MSHR MERGED:     129635
L1D PREFETCH MSHR MERGED:    7350416
L1D WRITEBACK MSHR MERGED:          0
L1D TOTAL ACCESSES:  172046211 HITS:  140314082 MISSES:   31732129
L1D LOAD ACCESSES:   93738582 HITS:   79087155 MISSES:   14651427
L1D RFO ACCESSES:    8622616 HITS:    8407677 MISSES:     214939
L1D PREFETCH ACCESSES:   69685013 HITS:   52819250 MISSES:   16865763
L1D WRITEBACK ACCESSES:          0 HITS:          0 MISSES:          0
L1D RQ ACCESS:  157120209
L1D RQ TO_CACHE:   93738576
L1D RQ MERGED:   63381627
L1D RQ FORWARD:          0
L1D WQ ACCESS:    8639208
L1D WQ TO_CACHE:    8622616
L1D WQ MERGED:      16592
L1D WQ FORWARD:        176
L1I TOTAL     ACCESS:  178710897  HIT:  178047489  MISS:     663408
L1I LOAD      ACCESS:  178710897  HIT:  178047489  MISS:     663408
L1I RFO       ACCESS:          0  HIT:          0  MISS:          0
L1I PREFETCH  ACCESS:          0  HIT:          0  MISS:          0
L1I WRITEBACK ACCESS:          0  HIT:          0  MISS:          0
L1I PREFETCH  REQUESTED:          0  ISSUED:          0  USEFUL:          0  USELESS:          0
L1I TOTAL MSHR MERGED:     610940
L1I LOAD MSHR MERGED:     610940
L1I RFO MSHR MERGED:          0
L1I PREFETCH MSHR MERGED:          0
L1I WRITEBACK MSHR MERGED:          0
L1I TOTAL ACCESSES:  179321837 HITS:  178047489 MISSES:    1274348
L1I LOAD ACCESSES:  179321837 HITS:  178047489 MISSES:    1274348
L1I RFO ACCESSES:          0 HITS:          0 MISSES:          0
L1I PREFETCH ACCESSES:          0 HITS:          0 MISSES:          0
L1I WRITEBACK ACCESSES:          0 HITS:          0 MISSES:          0
L1I RQ ACCESS:  499999757
L1I RQ TO_CACHE:  179321837
L1I RQ MERGED:  320677920
L1I RQ FORWARD:          0
L1I WQ ACCESS:          0
L1I WQ TO_CACHE:          0
L1I WQ MERGED:          0
L1I WQ FORWARD:          0
L2C TOTAL     ACCESS:   19271108  HIT:    2053289  MISS:   17217819
L2C LOAD      ACCESS:    8378360  HIT:     949770  MISS:    7428590
L2C RFO       ACCESS:      85281  HIT:      53728  MISS:      31553
L2C PREFETCH  ACCESS:   10522476  HIT:     767610  MISS:    9754866
L2C WRITEBACK ACCESS:     284991  HIT:     282181  MISS:       2810
L2C PREFETCH  REQUESTED:    1009651  ISSUED:    1009651  USEFUL:     273594  USELESS:    9480358
L2C TOTAL MSHR MERGED:        809
L2C LOAD MSHR MERGED:        173
L2C RFO MSHR MERGED:          1
L2C PREFETCH MSHR MERGED:        635
L2C WRITEBACK MSHR MERGED:          0
L2C TOTAL ACCESSES:   19272494 HITS:    2053480 MISSES:   17219014
L2C LOAD ACCESSES:    8378464 HITS:     949874 MISSES:    7428590
L2C RFO ACCESSES:      85304 HITS:      53751 MISSES:      31553
L2C PREFETCH ACCESSES:   10523735 HITS:     767674 MISSES:    9756061
L2C WRITEBACK ACCESSES:     284991 HITS:     282181 MISSES:       2810
L2C RQ ACCESS:    8463768
L2C RQ TO_CACHE:    8463641
L2C RQ MERGED:          0
L2C RQ FORWARD:          0
L2C WQ ACCESS:     284991
L2C WQ TO_CACHE:     284991
L2C WQ MERGED:          0
L2C WQ FORWARD:        191
LLC TOTAL     ACCESS:   17321447  HIT:    2704411  MISS:   14617036
LLC LOAD      ACCESS:    7428417  HIT:    1594389  MISS:    5834028
LLC RFO       ACCESS:      31552  HIT:       6798  MISS:      24754
LLC PREFETCH  ACCESS:    9755420  HIT:    1018766  MISS:    8736654
LLC WRITEBACK ACCESS:     106058  HIT:      84458  MISS:      21600
LLC PREFETCH  REQUESTED:          0  ISSUED:          0  USEFUL:      49159  USELESS:    8684799
LLC TOTAL MSHR MERGED:          4
LLC LOAD MSHR MERGED:          0
LLC RFO MSHR MERGED:          0
LLC PREFETCH MSHR MERGED:          4
LLC WRITEBACK MSHR MERGED:          0
LLC TOTAL ACCESSES:   17321452 HITS:    2704411 MISSES:   14617041
LLC LOAD ACCESSES:    7428417 HITS:    1594389 MISSES:    5834028
LLC RFO ACCESSES:      31552 HITS:       6798 MISSES:      24754
LLC PREFETCH ACCESSES:    9755425 HITS:    1018766 MISSES:    8736659
LLC WRITEBACK ACCESSES:     106058 HITS:      84458 MISSES:      21600
LLC 0 RQ ACCESS:    7459969
LLC 0 RQ TO_CACHE:    7459969
LLC 0 RQ MERGED:          0
LLC 0 RQ FORWARD:          0
LLC WQ ACCESS:     106058
LLC WQ TO_CACHE:     106058
LLC WQ MERGED:          0
LLC WQ FORWARD:          0
Major fault: 0 Minor fault: 6432
CPU 0 L1D next line prefetcher final stats
CPU 0 L2C PC-based stride prefetcher final stats
All Misses: 17204202
All Hits: 3335996
SD Algo Stats - Switches: 0 SRR-Repls: 6409944 BRR-Repls: 0

DRAM Statistics
 CHANNEL 0
 RQ ROW_BUFFER_HIT:   11441749  ROW_BUFFER_MISS:    3147610
 DBUS_CONGESTED:    7827919
 WQ ROW_BUFFER_HIT:       2201  ROW_BUFFER_MISS:      71580  FULL:          0

 AVG_CONGESTED_CYCLE: 13
LOADS RETIRED: 157382665
INSTR RETIRED: 500000000
