
*** ChampSim Multicore Out-of-Order Simulator ***

Warmup Instructions: 100000000
Simulation Instructions: 500000000
Number of CPUs: 1
LLC sets: 2048
LLC ways: 16
Clean RRIP Policies: 2023030220230302 Dirty RRIP Policies: 1003130210031302 PSEL Width: 10 Track Set: 4294967295 PSEL Mask: 1 Demote Mask: 3040100030401000DS Algo: 0Window size: 0
Off-chip DRAM Size: 4096 MB Channels: 1 Width: 64-bit Data Rate: 1600 MT/s

CPU 0 runs /mnt/beegfs/iconst01/spec2017/Lbm.trace.gz
NOT SORTED
TRACE STRING: /mnt/beegfs/iconst01/spec2017/Lbm.trace.gz
SORTED
TRACE STRING: /mnt/beegfs/iconst01/spec2017/Lbm.trace.gz
INITIAL
TRACE STRING: /mnt/beegfs/iconst01/spec2017/Lbm.trace.gz

champsim_seed used: 283

CPU 0 L1D next line prefetcher
CPU 0 L2C IP-based stride prefetcher
Initialize DRRIP state
Assign rand_sets[0]: 454  LLC: 2048
rand_sets[0]: 454
Assign rand_sets[1]: 1662  LLC: 2048
rand_sets[1]: 1662
Assign rand_sets[2]: 1921  LLC: 2048
rand_sets[2]: 1921
Assign rand_sets[3]: 1131  LLC: 2048
rand_sets[3]: 1131
Assign rand_sets[4]: 331  LLC: 2048
rand_sets[4]: 331
Assign rand_sets[5]: 1531  LLC: 2048
rand_sets[5]: 1531
Assign rand_sets[6]: 482  LLC: 2048
rand_sets[6]: 482
Assign rand_sets[7]: 1275  LLC: 2048
rand_sets[7]: 1275
Assign rand_sets[8]: 1876  LLC: 2048
rand_sets[8]: 1876
Assign rand_sets[9]: 2038  LLC: 2048
rand_sets[9]: 2038
Assign rand_sets[10]: 701  LLC: 2048
rand_sets[10]: 701
Assign rand_sets[11]: 479  LLC: 2048
rand_sets[11]: 479
Assign rand_sets[12]: 892  LLC: 2048
rand_sets[12]: 892
Assign rand_sets[13]: 1820  LLC: 2048
rand_sets[13]: 1820
Assign rand_sets[14]: 1505  LLC: 2048
rand_sets[14]: 1505
Assign rand_sets[15]: 1159  LLC: 2048
rand_sets[15]: 1159
Assign rand_sets[16]: 513  LLC: 2048
rand_sets[16]: 513
Assign rand_sets[17]: 703  LLC: 2048
rand_sets[17]: 703
Assign rand_sets[18]: 561  LLC: 2048
rand_sets[18]: 561
Assign rand_sets[19]: 990  LLC: 2048
rand_sets[19]: 990
Assign rand_sets[20]: 342  LLC: 2048
rand_sets[20]: 342
Assign rand_sets[21]: 882  LLC: 2048
rand_sets[21]: 882
Assign rand_sets[22]: 15  LLC: 2048
rand_sets[22]: 15
Assign rand_sets[23]: 71  LLC: 2048
rand_sets[23]: 71
Assign rand_sets[24]: 1127  LLC: 2048
rand_sets[24]: 1127
Assign rand_sets[25]: 1382  LLC: 2048
rand_sets[25]: 1382
Assign rand_sets[26]: 647  LLC: 2048
rand_sets[26]: 647
Assign rand_sets[27]: 857  LLC: 2048
rand_sets[27]: 857
Assign rand_sets[28]: 1450  LLC: 2048
rand_sets[28]: 1450
Assign rand_sets[29]: 1160  LLC: 2048
rand_sets[29]: 1160
Assign rand_sets[30]: 1852  LLC: 2048
rand_sets[30]: 1852
Assign rand_sets[31]: 1881  LLC: 2048
rand_sets[31]: 1881
Assign rand_sets[32]: 1770  LLC: 2048
rand_sets[32]: 1770
Assign rand_sets[33]: 1622  LLC: 2048
rand_sets[33]: 1622
Assign rand_sets[34]: 275  LLC: 2048
rand_sets[34]: 275
Assign rand_sets[35]: 635  LLC: 2048
rand_sets[35]: 635
Assign rand_sets[36]: 466  LLC: 2048
rand_sets[36]: 466
Assign rand_sets[37]: 1413  LLC: 2048
rand_sets[37]: 1413
Assign rand_sets[38]: 417  LLC: 2048
rand_sets[38]: 417
Assign rand_sets[39]: 472  LLC: 2048
rand_sets[39]: 472
Assign rand_sets[40]: 1340  LLC: 2048
rand_sets[40]: 1340
Assign rand_sets[41]: 852  LLC: 2048
rand_sets[41]: 852
Assign rand_sets[42]: 1365  LLC: 2048
rand_sets[42]: 1365
Assign rand_sets[43]: 47  LLC: 2048
rand_sets[43]: 47
Assign rand_sets[44]: 823  LLC: 2048
rand_sets[44]: 823
Assign rand_sets[45]: 686  LLC: 2048
rand_sets[45]: 686
Assign rand_sets[46]: 1637  LLC: 2048
rand_sets[46]: 1637
Assign rand_sets[47]: 1115  LLC: 2048
rand_sets[47]: 1115
Assign rand_sets[48]: 986  LLC: 2048
rand_sets[48]: 986
Assign rand_sets[49]: 258  LLC: 2048
rand_sets[49]: 258
Assign rand_sets[50]: 633  LLC: 2048
rand_sets[50]: 633
Assign rand_sets[51]: 920  LLC: 2048
rand_sets[51]: 920
Assign rand_sets[52]: 204  LLC: 2048
rand_sets[52]: 204
Assign rand_sets[53]: 227  LLC: 2048
rand_sets[53]: 227
Assign rand_sets[54]: 1818  LLC: 2048
rand_sets[54]: 1818
Assign rand_sets[55]: 886  LLC: 2048
rand_sets[55]: 886
Assign rand_sets[56]: 1422  LLC: 2048
rand_sets[56]: 1422
Assign rand_sets[57]: 607  LLC: 2048
rand_sets[57]: 607
Assign rand_sets[58]: 217  LLC: 2048
rand_sets[58]: 217
Assign rand_sets[59]: 1945  LLC: 2048
rand_sets[59]: 1945
Assign rand_sets[60]: 143  LLC: 2048
rand_sets[60]: 143
Assign rand_sets[61]: 1311  LLC: 2048
rand_sets[61]: 1311
Assign rand_sets[62]: 319  LLC: 2048
rand_sets[62]: 319
Assign rand_sets[63]: 1846  LLC: 2048
rand_sets[63]: 1846
 CLEAN-RRIP-POLICY-1: 2-0-2-3-0-3-0-2- CLEAN-RRIP-POLICY-2: 2-0-2-3-0-3-0-2-
 DIRTY-RRIP-POLICY-1: 1-0-0-3-1-3-0-2- DIRTY-RRIP-POLICY-2: 1-0-0-3-1-3-0-2-
 PSEL width: 10
Heartbeat CPU 0 instructions: 10000000 cycles: 4321568 heartbeat IPC: 2.31397 cumulative IPC: 2.31397 (Simulation time: 0 hr 0 min 18 sec) 
Heartbeat CPU 0 instructions: 20000000 cycles: 8643614 heartbeat IPC: 2.31372 cumulative IPC: 2.31385 (Simulation time: 0 hr 0 min 36 sec) 
Heartbeat CPU 0 instructions: 30000000 cycles: 12965423 heartbeat IPC: 2.31385 cumulative IPC: 2.31385 (Simulation time: 0 hr 0 min 55 sec) 
Heartbeat CPU 0 instructions: 40000000 cycles: 17291183 heartbeat IPC: 2.31173 cumulative IPC: 2.31332 (Simulation time: 0 hr 1 min 13 sec) 
Heartbeat CPU 0 instructions: 50000000 cycles: 21613108 heartbeat IPC: 2.31378 cumulative IPC: 2.31341 (Simulation time: 0 hr 1 min 31 sec) 
Heartbeat CPU 0 instructions: 60000000 cycles: 25934974 heartbeat IPC: 2.31382 cumulative IPC: 2.31348 (Simulation time: 0 hr 1 min 50 sec) 
Heartbeat CPU 0 instructions: 70000000 cycles: 30256548 heartbeat IPC: 2.31397 cumulative IPC: 2.31355 (Simulation time: 0 hr 2 min 8 sec) 
Heartbeat CPU 0 instructions: 80000000 cycles: 34582820 heartbeat IPC: 2.31146 cumulative IPC: 2.31329 (Simulation time: 0 hr 2 min 26 sec) 
Heartbeat CPU 0 instructions: 90000003 cycles: 38904952 heartbeat IPC: 2.31367 cumulative IPC: 2.31333 (Simulation time: 0 hr 2 min 44 sec) 
Heartbeat CPU 0 instructions: 100000000 cycles: 43226507 heartbeat IPC: 2.31398 cumulative IPC: 2.3134 (Simulation time: 0 hr 3 min 3 sec) 

Warmup complete CPU 0 instructions: 100000001 cycles: 43226508 (Simulation time: 0 hr 3 min 3 sec) 

Heartbeat CPU 0 instructions: 110000000 cycles: 57760960 heartbeat IPC: 0.68802 cumulative IPC: 0.68802 (Simulation time: 0 hr 3 min 29 sec) 
Heartbeat CPU 0 instructions: 120000000 cycles: 72556563 heartbeat IPC: 0.675876 cumulative IPC: 0.681894 (Simulation time: 0 hr 3 min 55 sec) 
Heartbeat CPU 0 instructions: 130000000 cycles: 87264484 heartbeat IPC: 0.679906 cumulative IPC: 0.68123 (Simulation time: 0 hr 4 min 21 sec) 
Heartbeat CPU 0 instructions: 140000000 cycles: 101888822 heartbeat IPC: 0.683792 cumulative IPC: 0.681869 (Simulation time: 0 hr 4 min 47 sec) 
Heartbeat CPU 0 instructions: 150000003 cycles: 115844981 heartbeat IPC: 0.71653 cumulative IPC: 0.68853 (Simulation time: 0 hr 5 min 13 sec) 
Heartbeat CPU 0 instructions: 160000000 cycles: 129856092 heartbeat IPC: 0.713719 cumulative IPC: 0.692604 (Simulation time: 0 hr 5 min 39 sec) 
Heartbeat CPU 0 instructions: 170000002 cycles: 144525227 heartbeat IPC: 0.681704 cumulative IPC: 0.691026 (Simulation time: 0 hr 6 min 5 sec) 
Heartbeat CPU 0 instructions: 180000000 cycles: 158804396 heartbeat IPC: 0.700321 cumulative IPC: 0.692174 (Simulation time: 0 hr 6 min 31 sec) 
Heartbeat CPU 0 instructions: 190000003 cycles: 176237980 heartbeat IPC: 0.573606 cumulative IPC: 0.676633 (Simulation time: 0 hr 7 min 0 sec) 
Heartbeat CPU 0 instructions: 200000000 cycles: 197053112 heartbeat IPC: 0.48042 cumulative IPC: 0.650083 (Simulation time: 0 hr 7 min 32 sec) 
Heartbeat CPU 0 instructions: 210000001 cycles: 211350198 heartbeat IPC: 0.699443 cumulative IPC: 0.65428 (Simulation time: 0 hr 7 min 58 sec) 
Heartbeat CPU 0 instructions: 220000000 cycles: 225523784 heartbeat IPC: 0.705538 cumulative IPC: 0.658265 (Simulation time: 0 hr 8 min 24 sec) 
Heartbeat CPU 0 instructions: 230000001 cycles: 240118475 heartbeat IPC: 0.685181 cumulative IPC: 0.660261 (Simulation time: 0 hr 8 min 50 sec) 
Heartbeat CPU 0 instructions: 240000000 cycles: 254669929 heartbeat IPC: 0.687216 cumulative IPC: 0.662116 (Simulation time: 0 hr 9 min 16 sec) 
Heartbeat CPU 0 instructions: 250000000 cycles: 269578325 heartbeat IPC: 0.670763 cumulative IPC: 0.662685 (Simulation time: 0 hr 9 min 43 sec) 
Heartbeat CPU 0 instructions: 260000000 cycles: 284538643 heartbeat IPC: 0.668435 cumulative IPC: 0.663042 (Simulation time: 0 hr 10 min 10 sec) 
Heartbeat CPU 0 instructions: 270000002 cycles: 299821989 heartbeat IPC: 0.654307 cumulative IPC: 0.662521 (Simulation time: 0 hr 10 min 36 sec) 
Heartbeat CPU 0 instructions: 280000000 cycles: 315281869 heartbeat IPC: 0.646835 cumulative IPC: 0.66163 (Simulation time: 0 hr 11 min 3 sec) 
Heartbeat CPU 0 instructions: 290000003 cycles: 331153192 heartbeat IPC: 0.630067 cumulative IPC: 0.65989 (Simulation time: 0 hr 11 min 31 sec) 
Heartbeat CPU 0 instructions: 300000000 cycles: 346310899 heartbeat IPC: 0.65973 cumulative IPC: 0.659882 (Simulation time: 0 hr 11 min 57 sec) 
Heartbeat CPU 0 instructions: 310000000 cycles: 362579877 heartbeat IPC: 0.614667 cumulative IPC: 0.657579 (Simulation time: 0 hr 12 min 25 sec) 
Heartbeat CPU 0 instructions: 320000000 cycles: 378815008 heartbeat IPC: 0.615948 cumulative IPC: 0.655565 (Simulation time: 0 hr 12 min 52 sec) 
Heartbeat CPU 0 instructions: 330000002 cycles: 394142805 heartbeat IPC: 0.65241 cumulative IPC: 0.655427 (Simulation time: 0 hr 13 min 19 sec) 
Heartbeat CPU 0 instructions: 340000000 cycles: 410579882 heartbeat IPC: 0.608381 cumulative IPC: 0.653322 (Simulation time: 0 hr 13 min 46 sec) 
Heartbeat CPU 0 instructions: 350000001 cycles: 425673522 heartbeat IPC: 0.662531 cumulative IPC: 0.653685 (Simulation time: 0 hr 14 min 12 sec) 
Heartbeat CPU 0 instructions: 360000000 cycles: 441464711 heartbeat IPC: 0.633264 cumulative IPC: 0.652876 (Simulation time: 0 hr 14 min 39 sec) 
Heartbeat CPU 0 instructions: 370000000 cycles: 456565657 heartbeat IPC: 0.66221 cumulative IPC: 0.653217 (Simulation time: 0 hr 15 min 5 sec) 
Heartbeat CPU 0 instructions: 380000000 cycles: 471929512 heartbeat IPC: 0.650878 cumulative IPC: 0.653133 (Simulation time: 0 hr 15 min 32 sec) 
Heartbeat CPU 0 instructions: 390000000 cycles: 486684195 heartbeat IPC: 0.677751 cumulative IPC: 0.653952 (Simulation time: 0 hr 15 min 58 sec) 
Heartbeat CPU 0 instructions: 400000000 cycles: 501443961 heartbeat IPC: 0.677518 cumulative IPC: 0.654711 (Simulation time: 0 hr 16 min 23 sec) 
Heartbeat CPU 0 instructions: 410000000 cycles: 515998258 heartbeat IPC: 0.687082 cumulative IPC: 0.655708 (Simulation time: 0 hr 16 min 48 sec) 
Heartbeat CPU 0 instructions: 420000000 cycles: 530315503 heartbeat IPC: 0.698458 cumulative IPC: 0.656964 (Simulation time: 0 hr 17 min 13 sec) 
Heartbeat CPU 0 instructions: 430000002 cycles: 544218519 heartbeat IPC: 0.719269 cumulative IPC: 0.658693 (Simulation time: 0 hr 17 min 37 sec) 
Heartbeat CPU 0 instructions: 440000000 cycles: 558291001 heartbeat IPC: 0.710607 cumulative IPC: 0.660111 (Simulation time: 0 hr 18 min 1 sec) 
Heartbeat CPU 0 instructions: 450000000 cycles: 572770145 heartbeat IPC: 0.690649 cumulative IPC: 0.660946 (Simulation time: 0 hr 18 min 26 sec) 
Heartbeat CPU 0 instructions: 460000000 cycles: 587715412 heartbeat IPC: 0.669108 cumulative IPC: 0.66117 (Simulation time: 0 hr 18 min 51 sec) 
Heartbeat CPU 0 instructions: 470000000 cycles: 602225237 heartbeat IPC: 0.689188 cumulative IPC: 0.661898 (Simulation time: 0 hr 19 min 15 sec) 
Heartbeat CPU 0 instructions: 480000000 cycles: 616338450 heartbeat IPC: 0.708556 cumulative IPC: 0.663047 (Simulation time: 0 hr 19 min 39 sec) 
Heartbeat CPU 0 instructions: 490000001 cycles: 631182835 heartbeat IPC: 0.673655 cumulative IPC: 0.663315 (Simulation time: 0 hr 20 min 4 sec) 
Heartbeat CPU 0 instructions: 500000000 cycles: 645681218 heartbeat IPC: 0.689732 cumulative IPC: 0.66395 (Simulation time: 0 hr 20 min 29 sec) 
Heartbeat CPU 0 instructions: 510000002 cycles: 660005591 heartbeat IPC: 0.698111 cumulative IPC: 0.664744 (Simulation time: 0 hr 20 min 53 sec) 
Heartbeat CPU 0 instructions: 520000000 cycles: 673940955 heartbeat IPC: 0.717599 cumulative IPC: 0.665911 (Simulation time: 0 hr 21 min 17 sec) 
Heartbeat CPU 0 instructions: 530000001 cycles: 688469289 heartbeat IPC: 0.68831 cumulative IPC: 0.666416 (Simulation time: 0 hr 21 min 42 sec) 
Heartbeat CPU 0 instructions: 540000000 cycles: 702964289 heartbeat IPC: 0.689893 cumulative IPC: 0.666932 (Simulation time: 0 hr 22 min 6 sec) 
Heartbeat CPU 0 instructions: 550000003 cycles: 717115022 heartbeat IPC: 0.706677 cumulative IPC: 0.667766 (Simulation time: 0 hr 22 min 30 sec) 
Heartbeat CPU 0 instructions: 560000000 cycles: 731956668 heartbeat IPC: 0.673779 cumulative IPC: 0.667896 (Simulation time: 0 hr 22 min 55 sec) 
Heartbeat CPU 0 instructions: 570000001 cycles: 746315640 heartbeat IPC: 0.696429 cumulative IPC: 0.668479 (Simulation time: 0 hr 23 min 20 sec) 
Heartbeat CPU 0 instructions: 580000000 cycles: 760064863 heartbeat IPC: 0.727314 cumulative IPC: 0.669607 (Simulation time: 0 hr 23 min 44 sec) 
Heartbeat CPU 0 instructions: 590000003 cycles: 773177562 heartbeat IPC: 0.76262 cumulative IPC: 0.671278 (Simulation time: 0 hr 24 min 7 sec) 
Heartbeat CPU 0 instructions: 600000000 cycles: 787251295 heartbeat IPC: 0.710543 cumulative IPC: 0.672021 (Simulation time: 0 hr 24 min 31 sec) 
Finished CPU 0 instructions: 500000000 cycles: 744024795 cumulative IPC: 0.672021 (Simulation time: 0 hr 24 min 31 sec) 

CPU 0 Branch Prediction Accuracy: 99.5915% MPKI: 0.037126
Number of Branches: 4544106 Number of Mispredictions: 18563
Number of LOAD Instructions: 149787067
Number of LOAD Instructions (ROI): 149787067
Number of STORE Instructions: 77239062
Number of STORE Instructions (ROI): 77239062
Total Destination Memory Operands: 77239062
Total Destination Memory Operands (ROI): 77239062
Total Source Memory Operands: 149787067
Total Source Memory Operands (ROI): 149787067
Number of DEPENDED LOADS: 19249942
Number of DEPENDED LOADS (ROI): 19249942
Number of SQ_ADDED: 77239036
Number of SQ_ADDED (ROI): 77239036
Number of LQ_ADDED: 149787020
Number of LQ_ADDED (ROI): 149787020
Number of Instructions read from trace: 600000256

ChampSim completed all CPUs

Region of Interest Statistics

CPU 0 cumulative IPC: 0.672021 instructions: 500000000 cycles: 744024795
ITLB TOTAL     ACCESS:   86448919  HIT:   86448918  MISS:          1
ITLB LOAD      ACCESS:   86448919  HIT:   86448918  MISS:          1
ITLB RFO       ACCESS:          0  HIT:          0  MISS:          0
ITLB PREFETCH  ACCESS:          0  HIT:          0  MISS:          0
ITLB WRITEBACK ACCESS:          0  HIT:          0  MISS:          0
ITLB PREFETCH  REQUESTED:          0  ISSUED:          0  USEFUL:          0  USELESS:          0
ITLB TOTAL MSHR MERGED:          1
ITLB LOAD MSHR MERGED:          1
ITLB RFO MSHR MERGED:          0
ITLB PREFETCH MSHR MERGED:          0
ITLB WRITEBACK MSHR MERGED:          0
ITLB TOTAL ACCESSES:   86448920 HITS:   86448918 MISSES:          2
ITLB LOAD ACCESSES:   86448920 HITS:   86448918 MISSES:          2
ITLB RFO ACCESSES:          0 HITS:          0 MISSES:          0
ITLB PREFETCH ACCESSES:          0 HITS:          0 MISSES:          0
ITLB WRITEBACK ACCESSES:          0 HITS:          0 MISSES:          0
ITLB RQ ACCESS:  500000002
ITLB RQ TO_CACHE:   86448920
ITLB RQ MERGED:  413551082
ITLB RQ FORWARD:          0
ITLB WQ ACCESS:          0
ITLB WQ TO_CACHE:          0
ITLB WQ MERGED:          0
ITLB WQ FORWARD:          0
DTLB TOTAL     ACCESS:   98102543  HIT:   97917282  MISS:     185261
DTLB LOAD      ACCESS:   55038929  HIT:   54992618  MISS:      46311
DTLB RFO       ACCESS:   43063614  HIT:   42924664  MISS:     138950
DTLB PREFETCH  ACCESS:          0  HIT:          0  MISS:          0
DTLB WRITEBACK ACCESS:          0  HIT:          0  MISS:          0
DTLB PREFETCH  REQUESTED:          0  ISSUED:          0  USEFUL:          0  USELESS:          0
DTLB TOTAL MSHR MERGED:      83605
DTLB LOAD MSHR MERGED:      83600
DTLB RFO MSHR MERGED:          5
DTLB PREFETCH MSHR MERGED:          0
DTLB WRITEBACK MSHR MERGED:          0
DTLB TOTAL ACCESSES:   98186148 HITS:   97917282 MISSES:     268866
DTLB LOAD ACCESSES:   55122529 HITS:   54992618 MISSES:     129911
DTLB RFO ACCESSES:   43063619 HITS:   42924664 MISSES:     138955
DTLB PREFETCH ACCESSES:          0 HITS:          0 MISSES:          0
DTLB WRITEBACK ACCESSES:          0 HITS:          0 MISSES:          0
DTLB RQ ACCESS:  173632585
DTLB RQ TO_CACHE:   98186148
DTLB RQ MERGED:   75446437
DTLB RQ FORWARD:          0
DTLB WQ ACCESS:          0
DTLB WQ TO_CACHE:          0
DTLB WQ MERGED:          0
DTLB WQ FORWARD:          0
L1D TOTAL     ACCESS:  164516178  HIT:  144943630  MISS:   19572548
L1D LOAD      ACCESS:   60492812  HIT:   58640736  MISS:    1852076
L1D RFO       ACCESS:   64513235  HIT:   47911097  MISS:   16602138
L1D PREFETCH  ACCESS:   39510131  HIT:   38391797  MISS:    1118334
L1D WRITEBACK ACCESS:          0  HIT:          0  MISS:          0
L1D PREFETCH  REQUESTED:   61646921  ISSUED:   61355287  USEFUL:    1116419  USELESS:       1916
L1D TOTAL MSHR MERGED:    3487460
L1D LOAD MSHR MERGED:    1224692
L1D RFO MSHR MERGED:      11212
L1D PREFETCH MSHR MERGED:    2251556
L1D WRITEBACK MSHR MERGED:          0
L1D TOTAL ACCESSES:  168584694 HITS:  145524686 MISSES:   23060008
L1D LOAD ACCESSES:   61921289 HITS:   58915104 MISSES:    3006185
L1D RFO ACCESSES:   64524413 HITS:   47911097 MISSES:   16613316
L1D PREFETCH ACCESSES:   42138992 HITS:   38698485 MISSES:    3440507
L1D WRITEBACK ACCESSES:          0 HITS:          0 MISSES:          0
L1D RQ ACCESS:  109091270
L1D RQ TO_CACHE:   61646921
L1D RQ MERGED:   47169981
L1D RQ FORWARD:          0
L1D WQ ACCESS:   64541313
L1D WQ TO_CACHE:   64524414
L1D WQ MERGED:      16899
L1D WQ FORWARD:     581056
L1I TOTAL     ACCESS:  107757519  HIT:  107757511  MISS:          8
L1I LOAD      ACCESS:  107757519  HIT:  107757511  MISS:          8
L1I RFO       ACCESS:          0  HIT:          0  MISS:          0
L1I PREFETCH  ACCESS:          0  HIT:          0  MISS:          0
L1I WRITEBACK ACCESS:          0  HIT:          0  MISS:          0
L1I PREFETCH  REQUESTED:          0  ISSUED:          0  USEFUL:          0  USELESS:          0
L1I TOTAL MSHR MERGED:          3
L1I LOAD MSHR MERGED:          3
L1I RFO MSHR MERGED:          0
L1I PREFETCH MSHR MERGED:          0
L1I WRITEBACK MSHR MERGED:          0
L1I TOTAL ACCESSES:  107757522 HITS:  107757511 MISSES:         11
L1I LOAD ACCESSES:  107757522 HITS:  107757511 MISSES:         11
L1I RFO ACCESSES:          0 HITS:          0 MISSES:          0
L1I PREFETCH ACCESSES:          0 HITS:          0 MISSES:          0
L1I WRITEBACK ACCESSES:          0 HITS:          0 MISSES:          0
L1I RQ ACCESS:  500000007
L1I RQ TO_CACHE:  107757522
L1I RQ MERGED:  392242485
L1I RQ FORWARD:          0
L1I WQ ACCESS:          0
L1I WQ TO_CACHE:          0
L1I WQ MERGED:          0
L1I WQ FORWARD:          0
L2C TOTAL     ACCESS:   36792745  HIT:   24835173  MISS:   11957572
L2C LOAD      ACCESS:    1781501  HIT:     249998  MISS:    1531503
L2C RFO       ACCESS:   16602102  HIT:    7610730  MISS:    8991372
L2C PREFETCH  ACCESS:    1806958  HIT:     373485  MISS:    1433473
L2C WRITEBACK ACCESS:   16602184  HIT:   16600960  MISS:       1224
L2C PREFETCH  REQUESTED:     815589  ISSUED:     815589  USEFUL:     247673  USELESS:    1186081
L2C TOTAL MSHR MERGED:       2621
L2C LOAD MSHR MERGED:        614
L2C RFO MSHR MERGED:          0
L2C PREFETCH MSHR MERGED:       2007
L2C WRITEBACK MSHR MERGED:          0
L2C TOTAL ACCESSES:   36990252 HITS:   24835176 MISSES:   12155076
L2C LOAD ACCESSES:    1781501 HITS:     249998 MISSES:    1531503
L2C RFO ACCESSES:   16602104 HITS:    7610733 MISSES:    8991371
L2C PREFETCH ACCESSES:    2004463 HITS:     373485 MISSES:    1630978
L2C WRITEBACK ACCESSES:   16602184 HITS:   16600960 MISSES:       1224
L2C RQ ACCESS:   18383605
L2C RQ TO_CACHE:   18383602
L2C RQ MERGED:          0
L2C RQ FORWARD:          0
L2C WQ ACCESS:   16602184
L2C WQ TO_CACHE:   16602184
L2C WQ MERGED:          0
L2C WQ FORWARD:          3
LLC TOTAL     ACCESS:   21140122  HIT:    1031512  MISS:   20108610
LLC LOAD      ACCESS:    1530889  HIT:      70433  MISS:    1460456
LLC RFO       ACCESS:    8991355  HIT:     356045  MISS:    8635310
LLC PREFETCH  ACCESS:    1625684  HIT:     120722  MISS:    1504962
LLC WRITEBACK ACCESS:    8992194  HIT:     484312  MISS:    8507882
LLC PREFETCH  REQUESTED:          0  ISSUED:          0  USEFUL:      70333  USELESS:    1434597
LLC TOTAL MSHR MERGED:       2901
LLC LOAD MSHR MERGED:        229
LLC RFO MSHR MERGED:          0
LLC PREFETCH MSHR MERGED:       2672
LLC WRITEBACK MSHR MERGED:          0
LLC TOTAL ACCESSES:   21143039 HITS:    1031529 MISSES:   20111510
LLC LOAD ACCESSES:    1530889 HITS:      70433 MISSES:    1460456
LLC RFO ACCESSES:    8991371 HITS:     356062 MISSES:    8635309
LLC PREFETCH ACCESSES:    1628585 HITS:     120722 MISSES:    1507863
LLC WRITEBACK ACCESSES:    8992194 HITS:     484312 MISSES:    8507882
LLC 0 RQ ACCESS:   10522260
LLC 0 RQ TO_CACHE:   10522243
LLC 0 RQ MERGED:          0
LLC 0 RQ FORWARD:          0
LLC WQ ACCESS:    8992194
LLC WQ TO_CACHE:    8992194
LLC WQ MERGED:          0
LLC WQ FORWARD:         17
Major fault: 0 Minor fault: 102360
CPU 0 L1D next line prefetcher final stats
CPU 0 L2C PC-based stride prefetcher final stats
All Misses: 23891217
All Hits: 1224416
SD Algo Stats - Switches: 0 SRR-Repls: 1639034 BRR-Repls: 0

DRAM Statistics
 CHANNEL 0
 RQ ROW_BUFFER_HIT:    3725309  ROW_BUFFER_MISS:    7874519
 DBUS_CONGESTED:   13951238
 WQ ROW_BUFFER_HIT:    1021875  ROW_BUFFER_MISS:    7629883  FULL:          0

 AVG_CONGESTED_CYCLE: 13
LOADS RETIRED: 124982196
INSTR RETIRED: 500000000
