
*** ChampSim Multicore Out-of-Order Simulator ***

Warmup Instructions: 100000000
Simulation Instructions: 500000000
Number of CPUs: 1
LLC sets: 2048
LLC ways: 16
Clean RRIP Policies: 2023030220230302 Dirty RRIP Policies: 1003130210031302 PSEL Width: 10 Track Set: 4294967295 PSEL Mask: 1 Demote Mask: 3040100030401000DS Algo: 0Window size: 0
Off-chip DRAM Size: 4096 MB Channels: 1 Width: 64-bit Data Rate: 1600 MT/s

CPU 0 runs /mnt/beegfs/iconst01/spec2017/Xalancbmk.trace.gz
NOT SORTED
TRACE STRING: /mnt/beegfs/iconst01/spec2017/Xalancbmk.trace.gz
SORTED
TRACE STRING: /mnt/beegfs/iconst01/spec2017/Xalancbmk.trace.gz
INITIAL
TRACE STRING: /mnt/beegfs/iconst01/spec2017/Xalancbmk.trace.gz

champsim_seed used: 913

CPU 0 L1D next line prefetcher
CPU 0 L2C IP-based stride prefetcher
Initialize DRRIP state
Assign rand_sets[0]: 454  LLC: 2048
rand_sets[0]: 454
Assign rand_sets[1]: 1662  LLC: 2048
rand_sets[1]: 1662
Assign rand_sets[2]: 1921  LLC: 2048
rand_sets[2]: 1921
Assign rand_sets[3]: 1131  LLC: 2048
rand_sets[3]: 1131
Assign rand_sets[4]: 331  LLC: 2048
rand_sets[4]: 331
Assign rand_sets[5]: 1531  LLC: 2048
rand_sets[5]: 1531
Assign rand_sets[6]: 482  LLC: 2048
rand_sets[6]: 482
Assign rand_sets[7]: 1275  LLC: 2048
rand_sets[7]: 1275
Assign rand_sets[8]: 1876  LLC: 2048
rand_sets[8]: 1876
Assign rand_sets[9]: 2038  LLC: 2048
rand_sets[9]: 2038
Assign rand_sets[10]: 701  LLC: 2048
rand_sets[10]: 701
Assign rand_sets[11]: 479  LLC: 2048
rand_sets[11]: 479
Assign rand_sets[12]: 892  LLC: 2048
rand_sets[12]: 892
Assign rand_sets[13]: 1820  LLC: 2048
rand_sets[13]: 1820
Assign rand_sets[14]: 1505  LLC: 2048
rand_sets[14]: 1505
Assign rand_sets[15]: 1159  LLC: 2048
rand_sets[15]: 1159
Assign rand_sets[16]: 513  LLC: 2048
rand_sets[16]: 513
Assign rand_sets[17]: 703  LLC: 2048
rand_sets[17]: 703
Assign rand_sets[18]: 561  LLC: 2048
rand_sets[18]: 561
Assign rand_sets[19]: 990  LLC: 2048
rand_sets[19]: 990
Assign rand_sets[20]: 342  LLC: 2048
rand_sets[20]: 342
Assign rand_sets[21]: 882  LLC: 2048
rand_sets[21]: 882
Assign rand_sets[22]: 15  LLC: 2048
rand_sets[22]: 15
Assign rand_sets[23]: 71  LLC: 2048
rand_sets[23]: 71
Assign rand_sets[24]: 1127  LLC: 2048
rand_sets[24]: 1127
Assign rand_sets[25]: 1382  LLC: 2048
rand_sets[25]: 1382
Assign rand_sets[26]: 647  LLC: 2048
rand_sets[26]: 647
Assign rand_sets[27]: 857  LLC: 2048
rand_sets[27]: 857
Assign rand_sets[28]: 1450  LLC: 2048
rand_sets[28]: 1450
Assign rand_sets[29]: 1160  LLC: 2048
rand_sets[29]: 1160
Assign rand_sets[30]: 1852  LLC: 2048
rand_sets[30]: 1852
Assign rand_sets[31]: 1881  LLC: 2048
rand_sets[31]: 1881
Assign rand_sets[32]: 1770  LLC: 2048
rand_sets[32]: 1770
Assign rand_sets[33]: 1622  LLC: 2048
rand_sets[33]: 1622
Assign rand_sets[34]: 275  LLC: 2048
rand_sets[34]: 275
Assign rand_sets[35]: 635  LLC: 2048
rand_sets[35]: 635
Assign rand_sets[36]: 466  LLC: 2048
rand_sets[36]: 466
Assign rand_sets[37]: 1413  LLC: 2048
rand_sets[37]: 1413
Assign rand_sets[38]: 417  LLC: 2048
rand_sets[38]: 417
Assign rand_sets[39]: 472  LLC: 2048
rand_sets[39]: 472
Assign rand_sets[40]: 1340  LLC: 2048
rand_sets[40]: 1340
Assign rand_sets[41]: 852  LLC: 2048
rand_sets[41]: 852
Assign rand_sets[42]: 1365  LLC: 2048
rand_sets[42]: 1365
Assign rand_sets[43]: 47  LLC: 2048
rand_sets[43]: 47
Assign rand_sets[44]: 823  LLC: 2048
rand_sets[44]: 823
Assign rand_sets[45]: 686  LLC: 2048
rand_sets[45]: 686
Assign rand_sets[46]: 1637  LLC: 2048
rand_sets[46]: 1637
Assign rand_sets[47]: 1115  LLC: 2048
rand_sets[47]: 1115
Assign rand_sets[48]: 986  LLC: 2048
rand_sets[48]: 986
Assign rand_sets[49]: 258  LLC: 2048
rand_sets[49]: 258
Assign rand_sets[50]: 633  LLC: 2048
rand_sets[50]: 633
Assign rand_sets[51]: 920  LLC: 2048
rand_sets[51]: 920
Assign rand_sets[52]: 204  LLC: 2048
rand_sets[52]: 204
Assign rand_sets[53]: 227  LLC: 2048
rand_sets[53]: 227
Assign rand_sets[54]: 1818  LLC: 2048
rand_sets[54]: 1818
Assign rand_sets[55]: 886  LLC: 2048
rand_sets[55]: 886
Assign rand_sets[56]: 1422  LLC: 2048
rand_sets[56]: 1422
Assign rand_sets[57]: 607  LLC: 2048
rand_sets[57]: 607
Assign rand_sets[58]: 217  LLC: 2048
rand_sets[58]: 217
Assign rand_sets[59]: 1945  LLC: 2048
rand_sets[59]: 1945
Assign rand_sets[60]: 143  LLC: 2048
rand_sets[60]: 143
Assign rand_sets[61]: 1311  LLC: 2048
rand_sets[61]: 1311
Assign rand_sets[62]: 319  LLC: 2048
rand_sets[62]: 319
Assign rand_sets[63]: 1846  LLC: 2048
rand_sets[63]: 1846
 CLEAN-RRIP-POLICY-1: 2-0-2-3-0-3-0-2- CLEAN-RRIP-POLICY-2: 2-0-2-3-0-3-0-2-
 DIRTY-RRIP-POLICY-1: 1-0-0-3-1-3-0-2- DIRTY-RRIP-POLICY-2: 1-0-0-3-1-3-0-2-
 PSEL width: 10
Heartbeat CPU 0 instructions: 10000003 cycles: 4591451 heartbeat IPC: 2.17796 cumulative IPC: 2.17796 (Simulation time: 0 hr 0 min 15 sec) 
Heartbeat CPU 0 instructions: 20000000 cycles: 8982404 heartbeat IPC: 2.27741 cumulative IPC: 2.22658 (Simulation time: 0 hr 0 min 28 sec) 
Heartbeat CPU 0 instructions: 30000000 cycles: 13389755 heartbeat IPC: 2.26894 cumulative IPC: 2.24052 (Simulation time: 0 hr 0 min 42 sec) 
Heartbeat CPU 0 instructions: 40000000 cycles: 18019354 heartbeat IPC: 2.16001 cumulative IPC: 2.21984 (Simulation time: 0 hr 0 min 58 sec) 
Heartbeat CPU 0 instructions: 50000002 cycles: 22434949 heartbeat IPC: 2.2647 cumulative IPC: 2.22867 (Simulation time: 0 hr 1 min 11 sec) 
Heartbeat CPU 0 instructions: 60000000 cycles: 27090994 heartbeat IPC: 2.14775 cumulative IPC: 2.21476 (Simulation time: 0 hr 1 min 27 sec) 
Heartbeat CPU 0 instructions: 70000003 cycles: 31495727 heartbeat IPC: 2.27029 cumulative IPC: 2.22252 (Simulation time: 0 hr 1 min 40 sec) 
Heartbeat CPU 0 instructions: 80000000 cycles: 35915262 heartbeat IPC: 2.26268 cumulative IPC: 2.22747 (Simulation time: 0 hr 1 min 54 sec) 
Heartbeat CPU 0 instructions: 90000002 cycles: 40369028 heartbeat IPC: 2.24529 cumulative IPC: 2.22943 (Simulation time: 0 hr 2 min 8 sec) 
Heartbeat CPU 0 instructions: 100000000 cycles: 44839809 heartbeat IPC: 2.23675 cumulative IPC: 2.23016 (Simulation time: 0 hr 2 min 22 sec) 

Warmup complete CPU 0 instructions: 100000003 cycles: 44839810 (Simulation time: 0 hr 2 min 22 sec) 

Heartbeat CPU 0 instructions: 110000000 cycles: 71926433 heartbeat IPC: 0.369186 cumulative IPC: 0.369186 (Simulation time: 0 hr 2 min 52 sec) 
Heartbeat CPU 0 instructions: 120000000 cycles: 100052378 heartbeat IPC: 0.355544 cumulative IPC: 0.362236 (Simulation time: 0 hr 3 min 23 sec) 
Heartbeat CPU 0 instructions: 130000000 cycles: 123464981 heartbeat IPC: 0.42712 cumulative IPC: 0.381557 (Simulation time: 0 hr 3 min 50 sec) 
Heartbeat CPU 0 instructions: 140000000 cycles: 146219496 heartbeat IPC: 0.439473 cumulative IPC: 0.394556 (Simulation time: 0 hr 4 min 17 sec) 
Heartbeat CPU 0 instructions: 150000000 cycles: 170764818 heartbeat IPC: 0.40741 cumulative IPC: 0.397062 (Simulation time: 0 hr 4 min 45 sec) 
Heartbeat CPU 0 instructions: 160000000 cycles: 195771941 heartbeat IPC: 0.399886 cumulative IPC: 0.39753 (Simulation time: 0 hr 5 min 14 sec) 
Heartbeat CPU 0 instructions: 170000002 cycles: 217124865 heartbeat IPC: 0.46832 cumulative IPC: 0.406303 (Simulation time: 0 hr 5 min 40 sec) 
Heartbeat CPU 0 instructions: 180000000 cycles: 239690380 heartbeat IPC: 0.443154 cumulative IPC: 0.410571 (Simulation time: 0 hr 6 min 7 sec) 
Heartbeat CPU 0 instructions: 190000000 cycles: 258545572 heartbeat IPC: 0.530358 cumulative IPC: 0.42114 (Simulation time: 0 hr 6 min 31 sec) 
Heartbeat CPU 0 instructions: 200000000 cycles: 279526383 heartbeat IPC: 0.476626 cumulative IPC: 0.4261 (Simulation time: 0 hr 6 min 57 sec) 
Heartbeat CPU 0 instructions: 210000001 cycles: 306132200 heartbeat IPC: 0.375858 cumulative IPC: 0.420984 (Simulation time: 0 hr 7 min 26 sec) 
Heartbeat CPU 0 instructions: 220000000 cycles: 331982373 heartbeat IPC: 0.386845 cumulative IPC: 0.417911 (Simulation time: 0 hr 7 min 55 sec) 
Heartbeat CPU 0 instructions: 230000000 cycles: 354205998 heartbeat IPC: 0.449972 cumulative IPC: 0.420214 (Simulation time: 0 hr 8 min 22 sec) 
Heartbeat CPU 0 instructions: 240000000 cycles: 380127272 heartbeat IPC: 0.385783 cumulative IPC: 0.417552 (Simulation time: 0 hr 8 min 51 sec) 
Heartbeat CPU 0 instructions: 250000001 cycles: 404976000 heartbeat IPC: 0.402435 cumulative IPC: 0.416509 (Simulation time: 0 hr 9 min 19 sec) 
Heartbeat CPU 0 instructions: 260000000 cycles: 425949174 heartbeat IPC: 0.4768 cumulative IPC: 0.419827 (Simulation time: 0 hr 9 min 45 sec) 
Heartbeat CPU 0 instructions: 270000000 cycles: 447531204 heartbeat IPC: 0.463348 cumulative IPC: 0.422159 (Simulation time: 0 hr 10 min 11 sec) 
Heartbeat CPU 0 instructions: 280000000 cycles: 475383663 heartbeat IPC: 0.359035 cumulative IPC: 0.418076 (Simulation time: 0 hr 10 min 41 sec) 
Heartbeat CPU 0 instructions: 290000000 cycles: 496572360 heartbeat IPC: 0.47195 cumulative IPC: 0.420603 (Simulation time: 0 hr 11 min 7 sec) 
Heartbeat CPU 0 instructions: 300000000 cycles: 517020439 heartbeat IPC: 0.489044 cumulative IPC: 0.423567 (Simulation time: 0 hr 11 min 33 sec) 
Heartbeat CPU 0 instructions: 310000000 cycles: 536114692 heartbeat IPC: 0.523718 cumulative IPC: 0.427459 (Simulation time: 0 hr 11 min 57 sec) 
Heartbeat CPU 0 instructions: 320000000 cycles: 565527894 heartbeat IPC: 0.339983 cumulative IPC: 0.422518 (Simulation time: 0 hr 12 min 29 sec) 
Heartbeat CPU 0 instructions: 330000001 cycles: 584971550 heartbeat IPC: 0.514307 cumulative IPC: 0.425822 (Simulation time: 0 hr 12 min 53 sec) 
Heartbeat CPU 0 instructions: 340000000 cycles: 604209128 heartbeat IPC: 0.519816 cumulative IPC: 0.429055 (Simulation time: 0 hr 13 min 18 sec) 
Heartbeat CPU 0 instructions: 350000002 cycles: 629434024 heartbeat IPC: 0.396434 cumulative IPC: 0.427647 (Simulation time: 0 hr 13 min 47 sec) 
Heartbeat CPU 0 instructions: 360000000 cycles: 651861591 heartbeat IPC: 0.44588 cumulative IPC: 0.428321 (Simulation time: 0 hr 14 min 13 sec) 
Heartbeat CPU 0 instructions: 370000001 cycles: 677140830 heartbeat IPC: 0.395582 cumulative IPC: 0.427012 (Simulation time: 0 hr 14 min 42 sec) 
Heartbeat CPU 0 instructions: 380000000 cycles: 700422064 heartbeat IPC: 0.42953 cumulative IPC: 0.427101 (Simulation time: 0 hr 15 min 9 sec) 
Heartbeat CPU 0 instructions: 390000000 cycles: 719236677 heartbeat IPC: 0.531502 cumulative IPC: 0.430014 (Simulation time: 0 hr 15 min 33 sec) 
Heartbeat CPU 0 instructions: 400000000 cycles: 739006511 heartbeat IPC: 0.505821 cumulative IPC: 0.432173 (Simulation time: 0 hr 15 min 58 sec) 
Heartbeat CPU 0 instructions: 410000001 cycles: 765455438 heartbeat IPC: 0.378087 cumulative IPC: 0.430188 (Simulation time: 0 hr 16 min 28 sec) 
Heartbeat CPU 0 instructions: 420000000 cycles: 790179781 heartbeat IPC: 0.40446 cumulative IPC: 0.429334 (Simulation time: 0 hr 16 min 56 sec) 
Heartbeat CPU 0 instructions: 430000002 cycles: 811423523 heartbeat IPC: 0.470727 cumulative IPC: 0.430481 (Simulation time: 0 hr 17 min 21 sec) 
Heartbeat CPU 0 instructions: 440000000 cycles: 831665986 heartbeat IPC: 0.494011 cumulative IPC: 0.432116 (Simulation time: 0 hr 17 min 46 sec) 
Heartbeat CPU 0 instructions: 450000002 cycles: 858526018 heartbeat IPC: 0.3723 cumulative IPC: 0.430141 (Simulation time: 0 hr 18 min 16 sec) 
Heartbeat CPU 0 instructions: 460000000 cycles: 884392084 heartbeat IPC: 0.386607 cumulative IPC: 0.4288 (Simulation time: 0 hr 18 min 45 sec) 
Heartbeat CPU 0 instructions: 470000002 cycles: 910355272 heartbeat IPC: 0.385161 cumulative IPC: 0.427491 (Simulation time: 0 hr 19 min 14 sec) 
Heartbeat CPU 0 instructions: 480000000 cycles: 934775093 heartbeat IPC: 0.409503 cumulative IPC: 0.426997 (Simulation time: 0 hr 19 min 42 sec) 
Heartbeat CPU 0 instructions: 490000000 cycles: 955700744 heartbeat IPC: 0.477882 cumulative IPC: 0.428166 (Simulation time: 0 hr 20 min 7 sec) 
Heartbeat CPU 0 instructions: 500000000 cycles: 980696291 heartbeat IPC: 0.400071 cumulative IPC: 0.427416 (Simulation time: 0 hr 20 min 35 sec) 
Heartbeat CPU 0 instructions: 510000000 cycles: 1005832347 heartbeat IPC: 0.397835 cumulative IPC: 0.426642 (Simulation time: 0 hr 21 min 4 sec) 
Heartbeat CPU 0 instructions: 520000000 cycles: 1026900455 heartbeat IPC: 0.474651 cumulative IPC: 0.427672 (Simulation time: 0 hr 21 min 29 sec) 
Heartbeat CPU 0 instructions: 530000003 cycles: 1052696736 heartbeat IPC: 0.387653 cumulative IPC: 0.426648 (Simulation time: 0 hr 21 min 58 sec) 
Heartbeat CPU 0 instructions: 540000000 cycles: 1075694091 heartbeat IPC: 0.434832 cumulative IPC: 0.42683 (Simulation time: 0 hr 22 min 25 sec) 
Heartbeat CPU 0 instructions: 550000000 cycles: 1101378752 heartbeat IPC: 0.389337 cumulative IPC: 0.425919 (Simulation time: 0 hr 22 min 54 sec) 
Heartbeat CPU 0 instructions: 560000000 cycles: 1124637374 heartbeat IPC: 0.429948 cumulative IPC: 0.426006 (Simulation time: 0 hr 23 min 21 sec) 
Heartbeat CPU 0 instructions: 570000002 cycles: 1148139517 heartbeat IPC: 0.425493 cumulative IPC: 0.425995 (Simulation time: 0 hr 23 min 48 sec) 
Heartbeat CPU 0 instructions: 580000000 cycles: 1169063332 heartbeat IPC: 0.477924 cumulative IPC: 0.426961 (Simulation time: 0 hr 24 min 14 sec) 
Heartbeat CPU 0 instructions: 590000001 cycles: 1193173051 heartbeat IPC: 0.414771 cumulative IPC: 0.426705 (Simulation time: 0 hr 24 min 41 sec) 
Heartbeat CPU 0 instructions: 600000000 cycles: 1212331947 heartbeat IPC: 0.521951 cumulative IPC: 0.428268 (Simulation time: 0 hr 25 min 5 sec) 
Finished CPU 0 instructions: 500000000 cycles: 1167492158 cumulative IPC: 0.428268 (Simulation time: 0 hr 25 min 5 sec) 

CPU 0 Branch Prediction Accuracy: 99.5434% MPKI: 1.33026
Number of Branches: 145676990 Number of Mispredictions: 665128
Number of LOAD Instructions: 188863207
Number of LOAD Instructions (ROI): 188863207
Number of STORE Instructions: 7332002
Number of STORE Instructions (ROI): 7332002
Total Destination Memory Operands: 10029285
Total Destination Memory Operands (ROI): 10029285
Total Source Memory Operands: 188863207
Total Source Memory Operands (ROI): 188863207
Number of DEPENDED LOADS: 290153
Number of DEPENDED LOADS (ROI): 290153
Number of SQ_ADDED: 10029285
Number of SQ_ADDED (ROI): 10029285
Number of LQ_ADDED: 200459260
Number of LQ_ADDED (ROI): 200459260
Number of Instructions read from trace: 600000010

ChampSim completed all CPUs

Region of Interest Statistics

CPU 0 cumulative IPC: 0.428268 instructions: 500000000 cycles: 1167492158
ITLB TOTAL     ACCESS:  145818399  HIT:  145778872  MISS:      39527
ITLB LOAD      ACCESS:  145818399  HIT:  145778872  MISS:      39527
ITLB RFO       ACCESS:          0  HIT:          0  MISS:          0
ITLB PREFETCH  ACCESS:          0  HIT:          0  MISS:          0
ITLB WRITEBACK ACCESS:          0  HIT:          0  MISS:          0
ITLB PREFETCH  REQUESTED:          0  ISSUED:          0  USEFUL:          0  USELESS:          0
ITLB TOTAL MSHR MERGED:      57357
ITLB LOAD MSHR MERGED:      57357
ITLB RFO MSHR MERGED:          0
ITLB PREFETCH MSHR MERGED:          0
ITLB WRITEBACK MSHR MERGED:          0
ITLB TOTAL ACCESSES:  145875756 HITS:  145778872 MISSES:      96884
ITLB LOAD ACCESSES:  145875756 HITS:  145778872 MISSES:      96884
ITLB RFO ACCESSES:          0 HITS:          0 MISSES:          0
ITLB PREFETCH ACCESSES:          0 HITS:          0 MISSES:          0
ITLB WRITEBACK ACCESSES:          0 HITS:          0 MISSES:          0
ITLB RQ ACCESS:  499999754
ITLB RQ TO_CACHE:  145875756
ITLB RQ MERGED:  354123998
ITLB RQ FORWARD:          0
ITLB WQ ACCESS:          0
ITLB WQ TO_CACHE:          0
ITLB WQ MERGED:          0
ITLB WQ FORWARD:          0
DTLB TOTAL     ACCESS:  135197306  HIT:  134028943  MISS:    1168363
DTLB LOAD      ACCESS:  127156560  HIT:  125997307  MISS:    1159253
DTLB RFO       ACCESS:    8040746  HIT:    8031636  MISS:       9110
DTLB PREFETCH  ACCESS:          0  HIT:          0  MISS:          0
DTLB WRITEBACK ACCESS:          0  HIT:          0  MISS:          0
DTLB PREFETCH  REQUESTED:          0  ISSUED:          0  USEFUL:          0  USELESS:          0
DTLB TOTAL MSHR MERGED:     579958
DTLB LOAD MSHR MERGED:     575584
DTLB RFO MSHR MERGED:       4374
DTLB PREFETCH MSHR MERGED:          0
DTLB WRITEBACK MSHR MERGED:          0
DTLB TOTAL ACCESSES:  135777264 HITS:  134028943 MISSES:    1748321
DTLB LOAD ACCESSES:  127732144 HITS:  125997307 MISSES:    1734837
DTLB RFO ACCESSES:    8045120 HITS:    8031636 MISSES:      13484
DTLB PREFETCH ACCESSES:          0 HITS:          0 MISSES:          0
DTLB WRITEBACK ACCESSES:          0 HITS:          0 MISSES:          0
DTLB RQ ACCESS:  165764187
DTLB RQ TO_CACHE:  135777264
DTLB RQ MERGED:   29986923
DTLB RQ FORWARD:          0
DTLB WQ ACCESS:          0
DTLB WQ TO_CACHE:          0
DTLB WQ MERGED:          0
DTLB WQ FORWARD:          0
L1D TOTAL     ACCESS:  156880639  HIT:  139564965  MISS:   17315674
L1D LOAD      ACCESS:   89965287  HIT:   78809933  MISS:   11155354
L1D RFO       ACCESS:    8502433  HIT:    8415313  MISS:      87120
L1D PREFETCH  ACCESS:   58412919  HIT:   52339719  MISS:    6073200
L1D WRITEBACK ACCESS:          0  HIT:          0  MISS:          0
L1D PREFETCH  REQUESTED:   93722124  ISSUED:   92854407  USEFUL:    1991812  USELESS:    4081462
L1D TOTAL MSHR MERGED:   15184668
L1D LOAD MSHR MERGED:    7171078
L1D RFO MSHR MERGED:     121879
L1D PREFETCH MSHR MERGED:    7891711
L1D WRITEBACK MSHR MERGED:          0
L1D TOTAL ACCESSES:  172065458 HITS:  139565115 MISSES:   32500343
L1D LOAD ACCESSES:   93722126 HITS:   78809935 MISSES:   14912191
L1D RFO ACCESSES:    8622519 HITS:    8415313 MISSES:     207206
L1D PREFETCH ACCESSES:   69720813 HITS:   52339867 MISSES:   17380946
L1D WRITEBACK ACCESSES:          0 HITS:          0 MISSES:          0
L1D RQ ACCESS:  157124981
L1D RQ TO_CACHE:   93722124
L1D RQ MERGED:   63402855
L1D RQ FORWARD:          0
L1D WQ ACCESS:    8639208
L1D WQ TO_CACHE:    8622519
L1D WQ MERGED:      16689
L1D WQ FORWARD:        150
L1I TOTAL     ACCESS:  178801540  HIT:  178137845  MISS:     663695
L1I LOAD      ACCESS:  178801540  HIT:  178137845  MISS:     663695
L1I RFO       ACCESS:          0  HIT:          0  MISS:          0
L1I PREFETCH  ACCESS:          0  HIT:          0  MISS:          0
L1I WRITEBACK ACCESS:          0  HIT:          0  MISS:          0
L1I PREFETCH  REQUESTED:          0  ISSUED:          0  USEFUL:          0  USELESS:          0
L1I TOTAL MSHR MERGED:     596622
L1I LOAD MSHR MERGED:     596622
L1I RFO MSHR MERGED:          0
L1I PREFETCH MSHR MERGED:          0
L1I WRITEBACK MSHR MERGED:          0
L1I TOTAL ACCESSES:  179398162 HITS:  178137845 MISSES:    1260317
L1I LOAD ACCESSES:  179398162 HITS:  178137845 MISSES:    1260317
L1I RFO ACCESSES:          0 HITS:          0 MISSES:          0
L1I PREFETCH ACCESSES:          0 HITS:          0 MISSES:          0
L1I WRITEBACK ACCESSES:          0 HITS:          0 MISSES:          0
L1I RQ ACCESS:  499999757
L1I RQ TO_CACHE:  179398162
L1I RQ MERGED:  320601595
L1I RQ FORWARD:          0
L1I WQ ACCESS:          0
L1I WQ TO_CACHE:          0
L1I WQ MERGED:          0
L1I WQ FORWARD:          0
L2C TOTAL     ACCESS:   19277134  HIT:    2057818  MISS:   17219316
L2C LOAD      ACCESS:    8404704  HIT:     951315  MISS:    7453389
L2C RFO       ACCESS:      85304  HIT:      53735  MISS:      31569
L2C PREFETCH  ACCESS:   10502098  HIT:     770550  MISS:    9731548
L2C WRITEBACK ACCESS:     285028  HIT:     282218  MISS:       2810
L2C PREFETCH  REQUESTED:    1017502  ISSUED:    1017502  USEFUL:     274875  USELESS:    9455769
L2C TOTAL MSHR MERGED:        997
L2C LOAD MSHR MERGED:        220
L2C RFO MSHR MERGED:          1
L2C PREFETCH MSHR MERGED:        776
L2C WRITEBACK MSHR MERGED:          0
L2C TOTAL ACCESSES:   19280648 HITS:    2058011 MISSES:   17222637
L2C LOAD ACCESSES:    8404808 HITS:     951419 MISSES:    7453389
L2C RFO ACCESSES:      85327 HITS:      53758 MISSES:      31569
L2C PREFETCH ACCESSES:   10505485 HITS:     770616 MISSES:    9734869
L2C WRITEBACK ACCESSES:     285028 HITS:     282218 MISSES:       2810
L2C RQ ACCESS:    8490135
L2C RQ TO_CACHE:    8490008
L2C RQ MERGED:          0
L2C RQ FORWARD:          0
L2C WQ ACCESS:     285028
L2C WQ TO_CACHE:     285028
L2C WQ MERGED:          0
L2C WQ FORWARD:        193
LLC TOTAL     ACCESS:   17324885  HIT:    4714048  MISS:   12610837
LLC LOAD      ACCESS:    7453169  HIT:    3942050  MISS:    3511119
LLC RFO       ACCESS:      31568  HIT:      22501  MISS:       9067
LLC PREFETCH  ACCESS:    9734089  HIT:     656185  MISS:    9077904
LLC WRITEBACK ACCESS:     106059  HIT:      93312  MISS:      12747
LLC PREFETCH  REQUESTED:          0  ISSUED:          0  USEFUL:       1869  USELESS:    9075422
LLC TOTAL MSHR MERGED:          2
LLC LOAD MSHR MERGED:          0
LLC RFO MSHR MERGED:          0
LLC PREFETCH MSHR MERGED:          2
LLC WRITEBACK MSHR MERGED:          0
LLC TOTAL ACCESSES:   17324888 HITS:    4714048 MISSES:   12610840
LLC LOAD ACCESSES:    7453169 HITS:    3942050 MISSES:    3511119
LLC RFO ACCESSES:      31568 HITS:      22501 MISSES:       9067
LLC PREFETCH ACCESSES:    9734092 HITS:     656185 MISSES:    9077907
LLC WRITEBACK ACCESSES:     106059 HITS:      93312 MISSES:      12747
LLC 0 RQ ACCESS:    7484737
LLC 0 RQ TO_CACHE:    7484737
LLC 0 RQ MERGED:          0
LLC 0 RQ FORWARD:          0
LLC WQ ACCESS:     106059
LLC WQ TO_CACHE:     106059
LLC WQ MERGED:          0
LLC WQ FORWARD:          0
Major fault: 0 Minor fault: 6432
CPU 0 L1D next line prefetcher final stats
CPU 0 L2C PC-based stride prefetcher final stats
All Misses: 14895772
All Hits: 5648735
SD Algo Stats - Switches: 0 SRR-Repls: 3754325 BRR-Repls: 0

DRAM Statistics
 CHANNEL 0
 RQ ROW_BUFFER_HIT:    9583157  ROW_BUFFER_MISS:    3012155
 DBUS_CONGESTED:    5867978
 WQ ROW_BUFFER_HIT:        995  ROW_BUFFER_MISS:      21733  FULL:          0

 AVG_CONGESTED_CYCLE: 12
LOADS RETIRED: 157382665
INSTR RETIRED: 500000000
