
*** ChampSim Multicore Out-of-Order Simulator ***

Warmup Instructions: 100000000
Simulation Instructions: 500000000
Number of CPUs: 1
LLC sets: 2048
LLC ways: 16
Clean RRIP Policies: 2202101222021012 Dirty RRIP Policies: 2202200222022002 PSEL Width: 10 Track Set: 4294967295 PSEL Mask: 1 Demote Mask: 441404404414044DS Algo: 0Window size: 0
Off-chip DRAM Size: 4096 MB Channels: 1 Width: 64-bit Data Rate: 1600 MT/s

CPU 0 runs /mnt/beegfs/iconst01/spec2017/Xalancbmk.trace.gz
NOT SORTED
TRACE STRING: /mnt/beegfs/iconst01/spec2017/Xalancbmk.trace.gz
SORTED
TRACE STRING: /mnt/beegfs/iconst01/spec2017/Xalancbmk.trace.gz
INITIAL
TRACE STRING: /mnt/beegfs/iconst01/spec2017/Xalancbmk.trace.gz

champsim_seed used: 913

CPU 0 L1D next line prefetcher
CPU 0 L2C IP-based stride prefetcher
Initialize DRRIP state
Assign rand_sets[0]: 454  LLC: 2048
rand_sets[0]: 454
Assign rand_sets[1]: 1662  LLC: 2048
rand_sets[1]: 1662
Assign rand_sets[2]: 1921  LLC: 2048
rand_sets[2]: 1921
Assign rand_sets[3]: 1131  LLC: 2048
rand_sets[3]: 1131
Assign rand_sets[4]: 331  LLC: 2048
rand_sets[4]: 331
Assign rand_sets[5]: 1531  LLC: 2048
rand_sets[5]: 1531
Assign rand_sets[6]: 482  LLC: 2048
rand_sets[6]: 482
Assign rand_sets[7]: 1275  LLC: 2048
rand_sets[7]: 1275
Assign rand_sets[8]: 1876  LLC: 2048
rand_sets[8]: 1876
Assign rand_sets[9]: 2038  LLC: 2048
rand_sets[9]: 2038
Assign rand_sets[10]: 701  LLC: 2048
rand_sets[10]: 701
Assign rand_sets[11]: 479  LLC: 2048
rand_sets[11]: 479
Assign rand_sets[12]: 892  LLC: 2048
rand_sets[12]: 892
Assign rand_sets[13]: 1820  LLC: 2048
rand_sets[13]: 1820
Assign rand_sets[14]: 1505  LLC: 2048
rand_sets[14]: 1505
Assign rand_sets[15]: 1159  LLC: 2048
rand_sets[15]: 1159
Assign rand_sets[16]: 513  LLC: 2048
rand_sets[16]: 513
Assign rand_sets[17]: 703  LLC: 2048
rand_sets[17]: 703
Assign rand_sets[18]: 561  LLC: 2048
rand_sets[18]: 561
Assign rand_sets[19]: 990  LLC: 2048
rand_sets[19]: 990
Assign rand_sets[20]: 342  LLC: 2048
rand_sets[20]: 342
Assign rand_sets[21]: 882  LLC: 2048
rand_sets[21]: 882
Assign rand_sets[22]: 15  LLC: 2048
rand_sets[22]: 15
Assign rand_sets[23]: 71  LLC: 2048
rand_sets[23]: 71
Assign rand_sets[24]: 1127  LLC: 2048
rand_sets[24]: 1127
Assign rand_sets[25]: 1382  LLC: 2048
rand_sets[25]: 1382
Assign rand_sets[26]: 647  LLC: 2048
rand_sets[26]: 647
Assign rand_sets[27]: 857  LLC: 2048
rand_sets[27]: 857
Assign rand_sets[28]: 1450  LLC: 2048
rand_sets[28]: 1450
Assign rand_sets[29]: 1160  LLC: 2048
rand_sets[29]: 1160
Assign rand_sets[30]: 1852  LLC: 2048
rand_sets[30]: 1852
Assign rand_sets[31]: 1881  LLC: 2048
rand_sets[31]: 1881
Assign rand_sets[32]: 1770  LLC: 2048
rand_sets[32]: 1770
Assign rand_sets[33]: 1622  LLC: 2048
rand_sets[33]: 1622
Assign rand_sets[34]: 275  LLC: 2048
rand_sets[34]: 275
Assign rand_sets[35]: 635  LLC: 2048
rand_sets[35]: 635
Assign rand_sets[36]: 466  LLC: 2048
rand_sets[36]: 466
Assign rand_sets[37]: 1413  LLC: 2048
rand_sets[37]: 1413
Assign rand_sets[38]: 417  LLC: 2048
rand_sets[38]: 417
Assign rand_sets[39]: 472  LLC: 2048
rand_sets[39]: 472
Assign rand_sets[40]: 1340  LLC: 2048
rand_sets[40]: 1340
Assign rand_sets[41]: 852  LLC: 2048
rand_sets[41]: 852
Assign rand_sets[42]: 1365  LLC: 2048
rand_sets[42]: 1365
Assign rand_sets[43]: 47  LLC: 2048
rand_sets[43]: 47
Assign rand_sets[44]: 823  LLC: 2048
rand_sets[44]: 823
Assign rand_sets[45]: 686  LLC: 2048
rand_sets[45]: 686
Assign rand_sets[46]: 1637  LLC: 2048
rand_sets[46]: 1637
Assign rand_sets[47]: 1115  LLC: 2048
rand_sets[47]: 1115
Assign rand_sets[48]: 986  LLC: 2048
rand_sets[48]: 986
Assign rand_sets[49]: 258  LLC: 2048
rand_sets[49]: 258
Assign rand_sets[50]: 633  LLC: 2048
rand_sets[50]: 633
Assign rand_sets[51]: 920  LLC: 2048
rand_sets[51]: 920
Assign rand_sets[52]: 204  LLC: 2048
rand_sets[52]: 204
Assign rand_sets[53]: 227  LLC: 2048
rand_sets[53]: 227
Assign rand_sets[54]: 1818  LLC: 2048
rand_sets[54]: 1818
Assign rand_sets[55]: 886  LLC: 2048
rand_sets[55]: 886
Assign rand_sets[56]: 1422  LLC: 2048
rand_sets[56]: 1422
Assign rand_sets[57]: 607  LLC: 2048
rand_sets[57]: 607
Assign rand_sets[58]: 217  LLC: 2048
rand_sets[58]: 217
Assign rand_sets[59]: 1945  LLC: 2048
rand_sets[59]: 1945
Assign rand_sets[60]: 143  LLC: 2048
rand_sets[60]: 143
Assign rand_sets[61]: 1311  LLC: 2048
rand_sets[61]: 1311
Assign rand_sets[62]: 319  LLC: 2048
rand_sets[62]: 319
Assign rand_sets[63]: 1846  LLC: 2048
rand_sets[63]: 1846
 CLEAN-RRIP-POLICY-1: 2-2-0-2-1-0-1-2- CLEAN-RRIP-POLICY-2: 2-2-0-2-1-0-1-2-
 DIRTY-RRIP-POLICY-1: 2-2-0-2-2-0-0-2- DIRTY-RRIP-POLICY-2: 2-2-0-2-2-0-0-2-
 PSEL width: 10
Heartbeat CPU 0 instructions: 10000003 cycles: 4615259 heartbeat IPC: 2.16673 cumulative IPC: 2.16673 (Simulation time: 0 hr 0 min 15 sec) 
Heartbeat CPU 0 instructions: 20000000 cycles: 9050342 heartbeat IPC: 2.25475 cumulative IPC: 2.20986 (Simulation time: 0 hr 0 min 29 sec) 
Heartbeat CPU 0 instructions: 30000000 cycles: 13504998 heartbeat IPC: 2.24484 cumulative IPC: 2.2214 (Simulation time: 0 hr 0 min 43 sec) 
Heartbeat CPU 0 instructions: 40000000 cycles: 18158914 heartbeat IPC: 2.14873 cumulative IPC: 2.20278 (Simulation time: 0 hr 0 min 58 sec) 
Heartbeat CPU 0 instructions: 50000002 cycles: 22612587 heartbeat IPC: 2.24534 cumulative IPC: 2.21116 (Simulation time: 0 hr 1 min 12 sec) 
Heartbeat CPU 0 instructions: 60000000 cycles: 27295342 heartbeat IPC: 2.13549 cumulative IPC: 2.19818 (Simulation time: 0 hr 1 min 28 sec) 
Heartbeat CPU 0 instructions: 70000003 cycles: 31738381 heartbeat IPC: 2.25071 cumulative IPC: 2.20553 (Simulation time: 0 hr 1 min 42 sec) 
Heartbeat CPU 0 instructions: 80000000 cycles: 36207609 heartbeat IPC: 2.23752 cumulative IPC: 2.20948 (Simulation time: 0 hr 1 min 55 sec) 
Heartbeat CPU 0 instructions: 90000002 cycles: 40713646 heartbeat IPC: 2.21925 cumulative IPC: 2.21056 (Simulation time: 0 hr 2 min 10 sec) 
Heartbeat CPU 0 instructions: 100000000 cycles: 45225362 heartbeat IPC: 2.21645 cumulative IPC: 2.21115 (Simulation time: 0 hr 2 min 24 sec) 

Warmup complete CPU 0 instructions: 100000003 cycles: 45225363 (Simulation time: 0 hr 2 min 24 sec) 

Heartbeat CPU 0 instructions: 110000000 cycles: 74709869 heartbeat IPC: 0.339161 cumulative IPC: 0.339161 (Simulation time: 0 hr 2 min 55 sec) 
Heartbeat CPU 0 instructions: 120000000 cycles: 108530235 heartbeat IPC: 0.29568 cumulative IPC: 0.315931 (Simulation time: 0 hr 3 min 30 sec) 
Heartbeat CPU 0 instructions: 130000000 cycles: 133793104 heartbeat IPC: 0.395838 cumulative IPC: 0.338724 (Simulation time: 0 hr 3 min 58 sec) 
Heartbeat CPU 0 instructions: 140000000 cycles: 158083154 heartbeat IPC: 0.411691 cumulative IPC: 0.354428 (Simulation time: 0 hr 4 min 27 sec) 
Heartbeat CPU 0 instructions: 150000000 cycles: 184094699 heartbeat IPC: 0.384445 cumulative IPC: 0.360051 (Simulation time: 0 hr 4 min 56 sec) 
Heartbeat CPU 0 instructions: 160000000 cycles: 210841561 heartbeat IPC: 0.373876 cumulative IPC: 0.362283 (Simulation time: 0 hr 5 min 25 sec) 
Heartbeat CPU 0 instructions: 170000002 cycles: 233662216 heartbeat IPC: 0.4382 cumulative IPC: 0.371477 (Simulation time: 0 hr 5 min 53 sec) 
Heartbeat CPU 0 instructions: 180000000 cycles: 257350750 heartbeat IPC: 0.422145 cumulative IPC: 0.377135 (Simulation time: 0 hr 6 min 20 sec) 
Heartbeat CPU 0 instructions: 190000000 cycles: 278339599 heartbeat IPC: 0.476443 cumulative IPC: 0.386077 (Simulation time: 0 hr 6 min 46 sec) 
Heartbeat CPU 0 instructions: 200000000 cycles: 299802008 heartbeat IPC: 0.465931 cumulative IPC: 0.392809 (Simulation time: 0 hr 7 min 13 sec) 
Heartbeat CPU 0 instructions: 210000001 cycles: 328060027 heartbeat IPC: 0.353882 cumulative IPC: 0.38892 (Simulation time: 0 hr 7 min 43 sec) 
Heartbeat CPU 0 instructions: 220000000 cycles: 356189106 heartbeat IPC: 0.355504 cumulative IPC: 0.385897 (Simulation time: 0 hr 8 min 14 sec) 
Heartbeat CPU 0 instructions: 230000000 cycles: 380250282 heartbeat IPC: 0.415607 cumulative IPC: 0.388031 (Simulation time: 0 hr 8 min 42 sec) 
Heartbeat CPU 0 instructions: 240000000 cycles: 407376311 heartbeat IPC: 0.36865 cumulative IPC: 0.386579 (Simulation time: 0 hr 9 min 12 sec) 
Heartbeat CPU 0 instructions: 250000001 cycles: 434708559 heartbeat IPC: 0.365868 cumulative IPC: 0.385126 (Simulation time: 0 hr 9 min 42 sec) 
Heartbeat CPU 0 instructions: 260000000 cycles: 456838641 heartbeat IPC: 0.451874 cumulative IPC: 0.388714 (Simulation time: 0 hr 10 min 9 sec) 
Heartbeat CPU 0 instructions: 270000000 cycles: 479599861 heartbeat IPC: 0.439344 cumulative IPC: 0.391367 (Simulation time: 0 hr 10 min 36 sec) 
Heartbeat CPU 0 instructions: 280000000 cycles: 510766687 heartbeat IPC: 0.320854 cumulative IPC: 0.386647 (Simulation time: 0 hr 11 min 8 sec) 
Heartbeat CPU 0 instructions: 290000000 cycles: 533406655 heartbeat IPC: 0.441697 cumulative IPC: 0.3892 (Simulation time: 0 hr 11 min 35 sec) 
Heartbeat CPU 0 instructions: 300000000 cycles: 554957190 heartbeat IPC: 0.464026 cumulative IPC: 0.392363 (Simulation time: 0 hr 12 min 1 sec) 
Heartbeat CPU 0 instructions: 310000000 cycles: 576253509 heartbeat IPC: 0.469565 cumulative IPC: 0.395459 (Simulation time: 0 hr 12 min 27 sec) 
Heartbeat CPU 0 instructions: 320000000 cycles: 609191668 heartbeat IPC: 0.303599 cumulative IPC: 0.390094 (Simulation time: 0 hr 13 min 1 sec) 
Heartbeat CPU 0 instructions: 330000001 cycles: 629618341 heartbeat IPC: 0.489556 cumulative IPC: 0.393571 (Simulation time: 0 hr 13 min 26 sec) 
Heartbeat CPU 0 instructions: 340000000 cycles: 650483988 heartbeat IPC: 0.479257 cumulative IPC: 0.396525 (Simulation time: 0 hr 13 min 51 sec) 
Heartbeat CPU 0 instructions: 350000000 cycles: 677995653 heartbeat IPC: 0.363482 cumulative IPC: 0.395088 (Simulation time: 0 hr 14 min 21 sec) 
Heartbeat CPU 0 instructions: 360000000 cycles: 701220736 heartbeat IPC: 0.430569 cumulative IPC: 0.396344 (Simulation time: 0 hr 14 min 48 sec) 
Heartbeat CPU 0 instructions: 370000001 cycles: 727635745 heartbeat IPC: 0.378573 cumulative IPC: 0.395656 (Simulation time: 0 hr 15 min 17 sec) 
Heartbeat CPU 0 instructions: 380000000 cycles: 752277146 heartbeat IPC: 0.405821 cumulative IPC: 0.396011 (Simulation time: 0 hr 15 min 45 sec) 
Heartbeat CPU 0 instructions: 390000000 cycles: 771684876 heartbeat IPC: 0.515259 cumulative IPC: 0.399196 (Simulation time: 0 hr 16 min 10 sec) 
Heartbeat CPU 0 instructions: 400000000 cycles: 793436648 heartbeat IPC: 0.459733 cumulative IPC: 0.400956 (Simulation time: 0 hr 16 min 36 sec) 
Heartbeat CPU 0 instructions: 410000001 cycles: 821520365 heartbeat IPC: 0.356078 cumulative IPC: 0.399333 (Simulation time: 0 hr 17 min 6 sec) 
Heartbeat CPU 0 instructions: 420000000 cycles: 847847454 heartbeat IPC: 0.379837 cumulative IPC: 0.398693 (Simulation time: 0 hr 17 min 35 sec) 
Heartbeat CPU 0 instructions: 430000002 cycles: 870584738 heartbeat IPC: 0.439806 cumulative IPC: 0.399826 (Simulation time: 0 hr 18 min 1 sec) 
Heartbeat CPU 0 instructions: 440000000 cycles: 891864614 heartbeat IPC: 0.469927 cumulative IPC: 0.401588 (Simulation time: 0 hr 18 min 27 sec) 
Heartbeat CPU 0 instructions: 450000002 cycles: 920881893 heartbeat IPC: 0.344622 cumulative IPC: 0.3997 (Simulation time: 0 hr 18 min 57 sec) 
Heartbeat CPU 0 instructions: 460000000 cycles: 950071436 heartbeat IPC: 0.342588 cumulative IPC: 0.397858 (Simulation time: 0 hr 19 min 28 sec) 
Heartbeat CPU 0 instructions: 470000002 cycles: 978074880 heartbeat IPC: 0.357099 cumulative IPC: 0.396634 (Simulation time: 0 hr 19 min 58 sec) 
Heartbeat CPU 0 instructions: 480000000 cycles: 1003533687 heartbeat IPC: 0.392791 cumulative IPC: 0.396532 (Simulation time: 0 hr 20 min 26 sec) 
Heartbeat CPU 0 instructions: 490000000 cycles: 1025528045 heartbeat IPC: 0.454662 cumulative IPC: 0.397836 (Simulation time: 0 hr 20 min 52 sec) 
Heartbeat CPU 0 instructions: 500000000 cycles: 1052141117 heartbeat IPC: 0.375755 cumulative IPC: 0.397253 (Simulation time: 0 hr 21 min 22 sec) 
Heartbeat CPU 0 instructions: 510000000 cycles: 1079107942 heartbeat IPC: 0.370826 cumulative IPC: 0.396563 (Simulation time: 0 hr 21 min 51 sec) 
Heartbeat CPU 0 instructions: 520000000 cycles: 1101609894 heartbeat IPC: 0.444406 cumulative IPC: 0.397583 (Simulation time: 0 hr 22 min 17 sec) 
Heartbeat CPU 0 instructions: 530000003 cycles: 1128823325 heartbeat IPC: 0.367466 cumulative IPC: 0.396826 (Simulation time: 0 hr 22 min 47 sec) 
Heartbeat CPU 0 instructions: 540000000 cycles: 1153412994 heartbeat IPC: 0.406675 cumulative IPC: 0.397045 (Simulation time: 0 hr 23 min 14 sec) 
Heartbeat CPU 0 instructions: 550000000 cycles: 1180613670 heartbeat IPC: 0.367638 cumulative IPC: 0.39634 (Simulation time: 0 hr 23 min 44 sec) 
Heartbeat CPU 0 instructions: 560000000 cycles: 1204862697 heartbeat IPC: 0.412388 cumulative IPC: 0.396676 (Simulation time: 0 hr 24 min 11 sec) 
Heartbeat CPU 0 instructions: 570000002 cycles: 1229940371 heartbeat IPC: 0.398761 cumulative IPC: 0.39672 (Simulation time: 0 hr 24 min 39 sec) 
Heartbeat CPU 0 instructions: 580000000 cycles: 1252024916 heartbeat IPC: 0.452805 cumulative IPC: 0.397746 (Simulation time: 0 hr 25 min 6 sec) 
Heartbeat CPU 0 instructions: 590000001 cycles: 1277307432 heartbeat IPC: 0.39553 cumulative IPC: 0.397701 (Simulation time: 0 hr 25 min 34 sec) 
Heartbeat CPU 0 instructions: 600000000 cycles: 1297350706 heartbeat IPC: 0.49892 cumulative IPC: 0.399321 (Simulation time: 0 hr 25 min 58 sec) 
Finished CPU 0 instructions: 500000000 cycles: 1252125364 cumulative IPC: 0.399321 (Simulation time: 0 hr 25 min 58 sec) 

CPU 0 Branch Prediction Accuracy: 99.5434% MPKI: 1.33026
Number of Branches: 145676990 Number of Mispredictions: 665128
Number of LOAD Instructions: 188863207
Number of LOAD Instructions (ROI): 188863207
Number of STORE Instructions: 7332002
Number of STORE Instructions (ROI): 7332002
Total Destination Memory Operands: 10029285
Total Destination Memory Operands (ROI): 10029285
Total Source Memory Operands: 188863207
Total Source Memory Operands (ROI): 188863207
Number of DEPENDED LOADS: 291863
Number of DEPENDED LOADS (ROI): 291863
Number of SQ_ADDED: 10029285
Number of SQ_ADDED (ROI): 10029285
Number of LQ_ADDED: 200748929
Number of LQ_ADDED (ROI): 200748929
Number of Instructions read from trace: 600000010

ChampSim completed all CPUs

Region of Interest Statistics

CPU 0 cumulative IPC: 0.399321 instructions: 500000000 cycles: 1252125364
ITLB TOTAL     ACCESS:  145793920  HIT:  145754363  MISS:      39557
ITLB LOAD      ACCESS:  145793920  HIT:  145754363  MISS:      39557
ITLB RFO       ACCESS:          0  HIT:          0  MISS:          0
ITLB PREFETCH  ACCESS:          0  HIT:          0  MISS:          0
ITLB WRITEBACK ACCESS:          0  HIT:          0  MISS:          0
ITLB PREFETCH  REQUESTED:          0  ISSUED:          0  USEFUL:          0  USELESS:          0
ITLB TOTAL MSHR MERGED:      57470
ITLB LOAD MSHR MERGED:      57470
ITLB RFO MSHR MERGED:          0
ITLB PREFETCH MSHR MERGED:          0
ITLB WRITEBACK MSHR MERGED:          0
ITLB TOTAL ACCESSES:  145851390 HITS:  145754363 MISSES:      97027
ITLB LOAD ACCESSES:  145851390 HITS:  145754363 MISSES:      97027
ITLB RFO ACCESSES:          0 HITS:          0 MISSES:          0
ITLB PREFETCH ACCESSES:          0 HITS:          0 MISSES:          0
ITLB WRITEBACK ACCESSES:          0 HITS:          0 MISSES:          0
ITLB RQ ACCESS:  499999754
ITLB RQ TO_CACHE:  145851390
ITLB RQ MERGED:  354148364
ITLB RQ FORWARD:          0
ITLB WQ ACCESS:          0
ITLB WQ TO_CACHE:          0
ITLB WQ MERGED:          0
ITLB WQ FORWARD:          0
DTLB TOTAL     ACCESS:  135338892  HIT:  134170556  MISS:    1168336
DTLB LOAD      ACCESS:  127296833  HIT:  126137601  MISS:    1159232
DTLB RFO       ACCESS:    8042059  HIT:    8032955  MISS:       9104
DTLB PREFETCH  ACCESS:          0  HIT:          0  MISS:          0
DTLB WRITEBACK ACCESS:          0  HIT:          0  MISS:          0
DTLB PREFETCH  REQUESTED:          0  ISSUED:          0  USEFUL:          0  USELESS:          0
DTLB TOTAL MSHR MERGED:     564593
DTLB LOAD MSHR MERGED:     560321
DTLB RFO MSHR MERGED:       4272
DTLB PREFETCH MSHR MERGED:          0
DTLB WRITEBACK MSHR MERGED:          0
DTLB TOTAL ACCESSES:  135903485 HITS:  134170556 MISSES:    1732929
DTLB LOAD ACCESSES:  127857154 HITS:  126137601 MISSES:    1719553
DTLB RFO ACCESSES:    8046331 HITS:    8032955 MISSES:      13376
DTLB PREFETCH ACCESSES:          0 HITS:          0 MISSES:          0
DTLB WRITEBACK ACCESSES:          0 HITS:          0 MISSES:          0
DTLB RQ ACCESS:  165762541
DTLB RQ TO_CACHE:  135903485
DTLB RQ MERGED:   29859056
DTLB RQ FORWARD:          0
DTLB WQ ACCESS:          0
DTLB WQ TO_CACHE:          0
DTLB WQ MERGED:          0
DTLB WQ FORWARD:          0
L1D TOTAL     ACCESS:  158167163  HIT:  140851477  MISS:   17315686
L1D LOAD      ACCESS:   90194428  HIT:   79293389  MISS:   10901039
L1D RFO       ACCESS:    8510227  HIT:    8423212  MISS:      87015
L1D PREFETCH  ACCESS:   59462508  HIT:   53134876  MISS:    6327632
L1D WRITEBACK ACCESS:          0  HIT:          0  MISS:          0
L1D PREFETCH  REQUESTED:   93780709  ISSUED:   92911889  USEFUL:    2246180  USELESS:    4081526
L1D TOTAL MSHR MERGED:   13984120
L1D LOAD MSHR MERGED:    6776194
L1D RFO MSHR MERGED:     114093
L1D PREFETCH MSHR MERGED:    7093833
L1D WRITEBACK MSHR MERGED:          0
L1D TOTAL ACCESSES:  172151462 HITS:  140851655 MISSES:   31299807
L1D LOAD ACCESSES:   93780711 HITS:   79293391 MISSES:   14487320
L1D RFO ACCESSES:    8622638 HITS:    8423212 MISSES:     199426
L1D PREFETCH ACCESSES:   69748113 HITS:   53135052 MISSES:   16613061
L1D WRITEBACK ACCESSES:          0 HITS:          0 MISSES:          0
L1D RQ ACCESS:  157123335
L1D RQ TO_CACHE:   93780709
L1D RQ MERGED:   63342624
L1D RQ FORWARD:          0
L1D WQ ACCESS:    8639208
L1D WQ TO_CACHE:    8622638
L1D WQ MERGED:      16570
L1D WQ FORWARD:        178
L1I TOTAL     ACCESS:  178717033  HIT:  178053599  MISS:     663434
L1I LOAD      ACCESS:  178717033  HIT:  178053599  MISS:     663434
L1I RFO       ACCESS:          0  HIT:          0  MISS:          0
L1I PREFETCH  ACCESS:          0  HIT:          0  MISS:          0
L1I WRITEBACK ACCESS:          0  HIT:          0  MISS:          0
L1I PREFETCH  REQUESTED:          0  ISSUED:          0  USEFUL:          0  USELESS:          0
L1I TOTAL MSHR MERGED:     624603
L1I LOAD MSHR MERGED:     624603
L1I RFO MSHR MERGED:          0
L1I PREFETCH MSHR MERGED:          0
L1I WRITEBACK MSHR MERGED:          0
L1I TOTAL ACCESSES:  179341636 HITS:  178053599 MISSES:    1288037
L1I LOAD ACCESSES:  179341636 HITS:  178053599 MISSES:    1288037
L1I RFO ACCESSES:          0 HITS:          0 MISSES:          0
L1I PREFETCH ACCESSES:          0 HITS:          0 MISSES:          0
L1I WRITEBACK ACCESSES:          0 HITS:          0 MISSES:          0
L1I RQ ACCESS:  499999757
L1I RQ TO_CACHE:  179341636
L1I RQ MERGED:  320658121
L1I RQ FORWARD:          0
L1I WQ ACCESS:          0
L1I WQ TO_CACHE:          0
L1I WQ MERGED:          0
L1I WQ FORWARD:          0
L2C TOTAL     ACCESS:   19268177  HIT:    2051090  MISS:   17217087
L2C LOAD      ACCESS:    8374454  HIT:     948958  MISS:    7425496
L2C RFO       ACCESS:      85309  HIT:      53731  MISS:      31578
L2C PREFETCH  ACCESS:   10523428  HIT:     766225  MISS:    9757203
L2C WRITEBACK ACCESS:     284986  HIT:     282176  MISS:       2810
L2C PREFETCH  REQUESTED:    1006398  ISSUED:    1006398  USEFUL:     272933  USELESS:    9483355
L2C TOTAL MSHR MERGED:        681
L2C LOAD MSHR MERGED:        153
L2C RFO MSHR MERGED:          1
L2C PREFETCH MSHR MERGED:        527
L2C WRITEBACK MSHR MERGED:          0
L2C TOTAL ACCESSES:   19269252 HITS:    2051285 MISSES:   17217967
L2C LOAD ACCESSES:    8374560 HITS:     949064 MISSES:    7425496
L2C RFO ACCESSES:      85333 HITS:      53755 MISSES:      31578
L2C PREFETCH ACCESSES:   10524373 HITS:     766290 MISSES:    9758083
L2C WRITEBACK ACCESSES:     284986 HITS:     282176 MISSES:       2810
L2C RQ ACCESS:    8459893
L2C RQ TO_CACHE:    8459763
L2C RQ MERGED:          0
L2C RQ FORWARD:          0
L2C WQ ACCESS:     284986
L2C WQ TO_CACHE:     284986
L2C WQ MERGED:          0
L2C WQ FORWARD:        195
LLC TOTAL     ACCESS:   17320527  HIT:    2617156  MISS:   14703371
LLC LOAD      ACCESS:    7425343  HIT:     973193  MISS:    6452150
LLC RFO       ACCESS:      31577  HIT:      24796  MISS:       6781
LLC PREFETCH  ACCESS:    9757549  HIT:    1513850  MISS:    8243699
LLC WRITEBACK ACCESS:     106058  HIT:     105317  MISS:        741
LLC PREFETCH  REQUESTED:          0  ISSUED:          0  USEFUL:      65145  USELESS:    8176220
LLC TOTAL MSHR MERGED:          4
LLC LOAD MSHR MERGED:          0
LLC RFO MSHR MERGED:          0
LLC PREFETCH MSHR MERGED:          4
LLC WRITEBACK MSHR MERGED:          0
LLC TOTAL ACCESSES:   17320532 HITS:    2617156 MISSES:   14703376
LLC LOAD ACCESSES:    7425343 HITS:     973193 MISSES:    6452150
LLC RFO ACCESSES:      31577 HITS:      24796 MISSES:       6781
LLC PREFETCH ACCESSES:    9757554 HITS:    1513850 MISSES:    8243704
LLC WRITEBACK ACCESSES:     106058 HITS:     105317 MISSES:        741
LLC 0 RQ ACCESS:    7456920
LLC 0 RQ TO_CACHE:    7456920
LLC 0 RQ MERGED:          0
LLC 0 RQ FORWARD:          0
LLC WQ ACCESS:     106058
LLC WQ TO_CACHE:     106058
LLC WQ MERGED:          0
LLC WQ FORWARD:          0
Major fault: 0 Minor fault: 6432
CPU 0 L1D next line prefetcher final stats
CPU 0 L2C PC-based stride prefetcher final stats
All Misses: 17273252
All Hits: 3265663
SD Algo Stats - Switches: 0 SRR-Repls: 7137663 BRR-Repls: 0

DRAM Statistics
 CHANNEL 0
 RQ ROW_BUFFER_HIT:   11593517  ROW_BUFFER_MISS:    3106979
 DBUS_CONGESTED:    7931346
 WQ ROW_BUFFER_HIT:        486  ROW_BUFFER_MISS:      10949  FULL:          0

 AVG_CONGESTED_CYCLE: 13
LOADS RETIRED: 157382665
INSTR RETIRED: 500000000
