
*** ChampSim Multicore Out-of-Order Simulator ***

Warmup Instructions: 100000000
Simulation Instructions: 100000000
Number of CPUs: 1
LLC sets: 2048
LLC ways: 16
Clean RRIP Policies: 2211230222112302 Dirty RRIP Policies: 1201230212012302 PSEL Width: 10 Track Set: 4294967295 PSEL Mask: 1 Demote Mask: 41100400411004DS Algo: 0Window size: 0
Off-chip DRAM Size: 4096 MB Channels: 1 Width: 64-bit Data Rate: 1600 MT/s

CPU 0 runs /mnt/beegfs/iconst01/spec2017/x264.trace.gz
NOT SORTED
TRACE STRING: /mnt/beegfs/iconst01/spec2017/x264.trace.gz
SORTED
TRACE STRING: /mnt/beegfs/iconst01/spec2017/x264.trace.gz
INITIAL
TRACE STRING: /mnt/beegfs/iconst01/spec2017/x264.trace.gz

champsim_seed used: 276

CPU 0 L1D next line prefetcher
CPU 0 L2C IP-based stride prefetcher
Initialize DRRIP state
Assign rand_sets[0]: 454  LLC: 2048
rand_sets[0]: 454
Assign rand_sets[1]: 1662  LLC: 2048
rand_sets[1]: 1662
Assign rand_sets[2]: 1921  LLC: 2048
rand_sets[2]: 1921
Assign rand_sets[3]: 1131  LLC: 2048
rand_sets[3]: 1131
Assign rand_sets[4]: 331  LLC: 2048
rand_sets[4]: 331
Assign rand_sets[5]: 1531  LLC: 2048
rand_sets[5]: 1531
Assign rand_sets[6]: 482  LLC: 2048
rand_sets[6]: 482
Assign rand_sets[7]: 1275  LLC: 2048
rand_sets[7]: 1275
Assign rand_sets[8]: 1876  LLC: 2048
rand_sets[8]: 1876
Assign rand_sets[9]: 2038  LLC: 2048
rand_sets[9]: 2038
Assign rand_sets[10]: 701  LLC: 2048
rand_sets[10]: 701
Assign rand_sets[11]: 479  LLC: 2048
rand_sets[11]: 479
Assign rand_sets[12]: 892  LLC: 2048
rand_sets[12]: 892
Assign rand_sets[13]: 1820  LLC: 2048
rand_sets[13]: 1820
Assign rand_sets[14]: 1505  LLC: 2048
rand_sets[14]: 1505
Assign rand_sets[15]: 1159  LLC: 2048
rand_sets[15]: 1159
Assign rand_sets[16]: 513  LLC: 2048
rand_sets[16]: 513
Assign rand_sets[17]: 703  LLC: 2048
rand_sets[17]: 703
Assign rand_sets[18]: 561  LLC: 2048
rand_sets[18]: 561
Assign rand_sets[19]: 990  LLC: 2048
rand_sets[19]: 990
Assign rand_sets[20]: 342  LLC: 2048
rand_sets[20]: 342
Assign rand_sets[21]: 882  LLC: 2048
rand_sets[21]: 882
Assign rand_sets[22]: 15  LLC: 2048
rand_sets[22]: 15
Assign rand_sets[23]: 71  LLC: 2048
rand_sets[23]: 71
Assign rand_sets[24]: 1127  LLC: 2048
rand_sets[24]: 1127
Assign rand_sets[25]: 1382  LLC: 2048
rand_sets[25]: 1382
Assign rand_sets[26]: 647  LLC: 2048
rand_sets[26]: 647
Assign rand_sets[27]: 857  LLC: 2048
rand_sets[27]: 857
Assign rand_sets[28]: 1450  LLC: 2048
rand_sets[28]: 1450
Assign rand_sets[29]: 1160  LLC: 2048
rand_sets[29]: 1160
Assign rand_sets[30]: 1852  LLC: 2048
rand_sets[30]: 1852
Assign rand_sets[31]: 1881  LLC: 2048
rand_sets[31]: 1881
Assign rand_sets[32]: 1770  LLC: 2048
rand_sets[32]: 1770
Assign rand_sets[33]: 1622  LLC: 2048
rand_sets[33]: 1622
Assign rand_sets[34]: 275  LLC: 2048
rand_sets[34]: 275
Assign rand_sets[35]: 635  LLC: 2048
rand_sets[35]: 635
Assign rand_sets[36]: 466  LLC: 2048
rand_sets[36]: 466
Assign rand_sets[37]: 1413  LLC: 2048
rand_sets[37]: 1413
Assign rand_sets[38]: 417  LLC: 2048
rand_sets[38]: 417
Assign rand_sets[39]: 472  LLC: 2048
rand_sets[39]: 472
Assign rand_sets[40]: 1340  LLC: 2048
rand_sets[40]: 1340
Assign rand_sets[41]: 852  LLC: 2048
rand_sets[41]: 852
Assign rand_sets[42]: 1365  LLC: 2048
rand_sets[42]: 1365
Assign rand_sets[43]: 47  LLC: 2048
rand_sets[43]: 47
Assign rand_sets[44]: 823  LLC: 2048
rand_sets[44]: 823
Assign rand_sets[45]: 686  LLC: 2048
rand_sets[45]: 686
Assign rand_sets[46]: 1637  LLC: 2048
rand_sets[46]: 1637
Assign rand_sets[47]: 1115  LLC: 2048
rand_sets[47]: 1115
Assign rand_sets[48]: 986  LLC: 2048
rand_sets[48]: 986
Assign rand_sets[49]: 258  LLC: 2048
rand_sets[49]: 258
Assign rand_sets[50]: 633  LLC: 2048
rand_sets[50]: 633
Assign rand_sets[51]: 920  LLC: 2048
rand_sets[51]: 920
Assign rand_sets[52]: 204  LLC: 2048
rand_sets[52]: 204
Assign rand_sets[53]: 227  LLC: 2048
rand_sets[53]: 227
Assign rand_sets[54]: 1818  LLC: 2048
rand_sets[54]: 1818
Assign rand_sets[55]: 886  LLC: 2048
rand_sets[55]: 886
Assign rand_sets[56]: 1422  LLC: 2048
rand_sets[56]: 1422
Assign rand_sets[57]: 607  LLC: 2048
rand_sets[57]: 607
Assign rand_sets[58]: 217  LLC: 2048
rand_sets[58]: 217
Assign rand_sets[59]: 1945  LLC: 2048
rand_sets[59]: 1945
Assign rand_sets[60]: 143  LLC: 2048
rand_sets[60]: 143
Assign rand_sets[61]: 1311  LLC: 2048
rand_sets[61]: 1311
Assign rand_sets[62]: 319  LLC: 2048
rand_sets[62]: 319
Assign rand_sets[63]: 1846  LLC: 2048
rand_sets[63]: 1846
 CLEAN-RRIP-POLICY-1: 2-2-1-1-2-3-0-2- CLEAN-RRIP-POLICY-2: 2-2-1-1-2-3-0-2-
 DIRTY-RRIP-POLICY-1: 1-2-0-1-2-3-0-2- DIRTY-RRIP-POLICY-2: 1-2-0-1-2-3-0-2-
 PSEL width: 10
Heartbeat CPU 0 instructions: 10000000 cycles: 4124769 heartbeat IPC: 2.42438 cumulative IPC: 2.42438 (Simulation time: 0 hr 0 min 14 sec) 
Heartbeat CPU 0 instructions: 20000000 cycles: 8234006 heartbeat IPC: 2.43354 cumulative IPC: 2.42895 (Simulation time: 0 hr 0 min 27 sec) 
Heartbeat CPU 0 instructions: 30000003 cycles: 12464978 heartbeat IPC: 2.36352 cumulative IPC: 2.40674 (Simulation time: 0 hr 0 min 40 sec) 
Heartbeat CPU 0 instructions: 40000000 cycles: 16637026 heartbeat IPC: 2.3969 cumulative IPC: 2.40428 (Simulation time: 0 hr 0 min 53 sec) 
Heartbeat CPU 0 instructions: 50000000 cycles: 20699497 heartbeat IPC: 2.46156 cumulative IPC: 2.41552 (Simulation time: 0 hr 1 min 6 sec) 
Heartbeat CPU 0 instructions: 60000000 cycles: 25022983 heartbeat IPC: 2.31295 cumulative IPC: 2.3978 (Simulation time: 0 hr 1 min 20 sec) 
Heartbeat CPU 0 instructions: 70000000 cycles: 29371257 heartbeat IPC: 2.29976 cumulative IPC: 2.38328 (Simulation time: 0 hr 1 min 32 sec) 
Heartbeat CPU 0 instructions: 80000000 cycles: 33721392 heartbeat IPC: 2.29878 cumulative IPC: 2.37238 (Simulation time: 0 hr 1 min 45 sec) 
Heartbeat CPU 0 instructions: 90000002 cycles: 38032377 heartbeat IPC: 2.31966 cumulative IPC: 2.3664 (Simulation time: 0 hr 1 min 58 sec) 
Heartbeat CPU 0 instructions: 100000000 cycles: 42329263 heartbeat IPC: 2.32727 cumulative IPC: 2.36243 (Simulation time: 0 hr 2 min 11 sec) 

Warmup complete CPU 0 instructions: 100000001 cycles: 42329264 (Simulation time: 0 hr 2 min 11 sec) 

Heartbeat CPU 0 instructions: 110000001 cycles: 49370024 heartbeat IPC: 1.4203 cumulative IPC: 1.4203 (Simulation time: 0 hr 2 min 28 sec) 
Heartbeat CPU 0 instructions: 120000000 cycles: 58979422 heartbeat IPC: 1.04065 cumulative IPC: 1.20119 (Simulation time: 0 hr 2 min 47 sec) 
Heartbeat CPU 0 instructions: 130000000 cycles: 63805363 heartbeat IPC: 2.07213 cumulative IPC: 1.3969 (Simulation time: 0 hr 3 min 3 sec) 
Heartbeat CPU 0 instructions: 140000000 cycles: 68680287 heartbeat IPC: 2.05131 cumulative IPC: 1.51797 (Simulation time: 0 hr 3 min 19 sec) 
Heartbeat CPU 0 instructions: 150000002 cycles: 75551130 heartbeat IPC: 1.45543 cumulative IPC: 1.50503 (Simulation time: 0 hr 3 min 37 sec) 
Heartbeat CPU 0 instructions: 160000000 cycles: 83359726 heartbeat IPC: 1.28064 cumulative IPC: 1.46233 (Simulation time: 0 hr 3 min 54 sec) 
Heartbeat CPU 0 instructions: 170000000 cycles: 90701468 heartbeat IPC: 1.36207 cumulative IPC: 1.44711 (Simulation time: 0 hr 4 min 11 sec) 
Heartbeat CPU 0 instructions: 180000000 cycles: 97942007 heartbeat IPC: 1.38111 cumulative IPC: 1.43852 (Simulation time: 0 hr 4 min 27 sec) 
Heartbeat CPU 0 instructions: 190000002 cycles: 105057998 heartbeat IPC: 1.40529 cumulative IPC: 1.43475 (Simulation time: 0 hr 4 min 44 sec) 
Heartbeat CPU 0 instructions: 200000000 cycles: 112219040 heartbeat IPC: 1.39644 cumulative IPC: 1.43082 (Simulation time: 0 hr 5 min 1 sec) 
Finished CPU 0 instructions: 100000003 cycles: 69889784 cumulative IPC: 1.43082 (Simulation time: 0 hr 5 min 1 sec) 

CPU 0 Branch Prediction Accuracy: 93.0774% MPKI: 2.51961
Number of Branches: 3639702 Number of Mispredictions: 251961
Number of LOAD Instructions: 46525858
Number of LOAD Instructions (ROI): 46525858
Number of STORE Instructions: 14107115
Number of STORE Instructions (ROI): 14107115
Total Destination Memory Operands: 15081698
Total Destination Memory Operands (ROI): 15081698
Total Source Memory Operands: 46525858
Total Source Memory Operands (ROI): 46525858
Number of DEPENDED LOADS: 2266342
Number of DEPENDED LOADS (ROI): 2266342
Number of SQ_ADDED: 15081690
Number of SQ_ADDED (ROI): 15081690
Number of LQ_ADDED: 49284671
Number of LQ_ADDED (ROI): 49284671
Number of Instructions read from trace: 200000068

ChampSim completed all CPUs

Region of Interest Statistics

CPU 0 cumulative IPC: 1.43082 instructions: 100000003 cycles: 69889784
ITLB TOTAL     ACCESS:   17186140  HIT:   17186086  MISS:         54
ITLB LOAD      ACCESS:   17186140  HIT:   17186086  MISS:         54
ITLB RFO       ACCESS:          0  HIT:          0  MISS:          0
ITLB PREFETCH  ACCESS:          0  HIT:          0  MISS:          0
ITLB WRITEBACK ACCESS:          0  HIT:          0  MISS:          0
ITLB PREFETCH  REQUESTED:          0  ISSUED:          0  USEFUL:          0  USELESS:          0
ITLB TOTAL MSHR MERGED:         62
ITLB LOAD MSHR MERGED:         62
ITLB RFO MSHR MERGED:          0
ITLB PREFETCH MSHR MERGED:          0
ITLB WRITEBACK MSHR MERGED:          0
ITLB TOTAL ACCESSES:   17186202 HITS:   17186086 MISSES:        116
ITLB LOAD ACCESSES:   17186202 HITS:   17186086 MISSES:        116
ITLB RFO ACCESSES:          0 HITS:          0 MISSES:          0
ITLB PREFETCH ACCESSES:          0 HITS:          0 MISSES:          0
ITLB WRITEBACK ACCESSES:          0 HITS:          0 MISSES:          0
ITLB RQ ACCESS:   99999812
ITLB RQ TO_CACHE:   17186202
ITLB RQ MERGED:   82813610
ITLB RQ FORWARD:          0
ITLB WQ ACCESS:          0
ITLB WQ TO_CACHE:          0
ITLB WQ MERGED:          0
ITLB WQ FORWARD:          0
DTLB TOTAL     ACCESS:   17353911  HIT:   17324373  MISS:      29538
DTLB LOAD      ACCESS:   11772808  HIT:   11752073  MISS:      20735
DTLB RFO       ACCESS:    5581103  HIT:    5572300  MISS:       8803
DTLB PREFETCH  ACCESS:          0  HIT:          0  MISS:          0
DTLB WRITEBACK ACCESS:          0  HIT:          0  MISS:          0
DTLB PREFETCH  REQUESTED:          0  ISSUED:          0  USEFUL:          0  USELESS:          0
DTLB TOTAL MSHR MERGED:      32649
DTLB LOAD MSHR MERGED:      23759
DTLB RFO MSHR MERGED:       8890
DTLB PREFETCH MSHR MERGED:          0
DTLB WRITEBACK MSHR MERGED:          0
DTLB TOTAL ACCESSES:   17386560 HITS:   17324373 MISSES:      62187
DTLB LOAD ACCESSES:   11796567 HITS:   11752073 MISSES:      44494
DTLB RFO ACCESSES:    5589993 HITS:    5572300 MISSES:      17693
DTLB PREFETCH ACCESSES:          0 HITS:          0 MISSES:          0
DTLB WRITEBACK ACCESSES:          0 HITS:          0 MISSES:          0
DTLB RQ ACCESS:   30386477
DTLB RQ TO_CACHE:   17386560
DTLB RQ MERGED:   12999917
DTLB RQ FORWARD:          0
DTLB WQ ACCESS:          0
DTLB WQ TO_CACHE:          0
DTLB WQ MERGED:          0
DTLB WQ FORWARD:          0
L1D TOTAL     ACCESS:   26009443  HIT:   25296515  MISS:     712928
L1D LOAD      ACCESS:   11268990  HIT:   11020276  MISS:     248714
L1D RFO       ACCESS:    6853209  HIT:    6701304  MISS:     151905
L1D PREFETCH  ACCESS:    7887244  HIT:    7574935  MISS:     312309
L1D WRITEBACK ACCESS:          0  HIT:          0  MISS:          0
L1D PREFETCH  REQUESTED:   11363180  ISSUED:   11222522  USEFUL:      94131  USELESS:     218062
L1D TOTAL MSHR MERGED:     764150
L1D LOAD MSHR MERGED:     106232
L1D RFO MSHR MERGED:     464401
L1D PREFETCH MSHR MERGED:     193517
L1D WRITEBACK MSHR MERGED:          0
L1D TOTAL ACCESSES:   26778760 HITS:   25301682 MISSES:    1477078
L1D LOAD ACCESSES:   11363872 HITS:   11020968 MISSES:     342904
L1D RFO ACCESSES:    7317183 HITS:    6701304 MISSES:     615879
L1D PREFETCH ACCESSES:    8097705 HITS:    7579410 MISSES:     518295
L1D WRITEBACK ACCESSES:          0 HITS:          0 MISSES:          0
L1D RQ ACCESS:   22816943
L1D RQ TO_CACHE:   11363180
L1D RQ MERGED:   11453071
L1D RQ FORWARD:          0
L1D WQ ACCESS:    7569531
L1D WQ TO_CACHE:    7317183
L1D WQ MERGED:     252348
L1D WQ FORWARD:       5167
L1I TOTAL     ACCESS:   21393935  HIT:   21266519  MISS:     127416
L1I LOAD      ACCESS:   21393935  HIT:   21266519  MISS:     127416
L1I RFO       ACCESS:          0  HIT:          0  MISS:          0
L1I PREFETCH  ACCESS:          0  HIT:          0  MISS:          0
L1I WRITEBACK ACCESS:          0  HIT:          0  MISS:          0
L1I PREFETCH  REQUESTED:          0  ISSUED:          0  USEFUL:          0  USELESS:          0
L1I TOTAL MSHR MERGED:     118273
L1I LOAD MSHR MERGED:     118273
L1I RFO MSHR MERGED:          0
L1I PREFETCH MSHR MERGED:          0
L1I WRITEBACK MSHR MERGED:          0
L1I TOTAL ACCESSES:   21512208 HITS:   21266519 MISSES:     245689
L1I LOAD ACCESSES:   21512208 HITS:   21266519 MISSES:     245689
L1I RFO ACCESSES:          0 HITS:          0 MISSES:          0
L1I PREFETCH ACCESSES:          0 HITS:          0 MISSES:          0
L1I WRITEBACK ACCESSES:          0 HITS:          0 MISSES:          0
L1I RQ ACCESS:   99999814
L1I RQ TO_CACHE:   21512208
L1I RQ MERGED:   78487606
L1I RQ FORWARD:          0
L1I WQ ACCESS:          0
L1I WQ TO_CACHE:          0
L1I WQ MERGED:          0
L1I WQ FORWARD:          0
L2C TOTAL     ACCESS:    1048090  HIT:     822224  MISS:     225866
L2C LOAD      ACCESS:     364067  HIT:     328919  MISS:      35148
L2C RFO       ACCESS:     151162  HIT:      87715  MISS:      63447
L2C PREFETCH  ACCESS:     361751  HIT:     234904  MISS:     126847
L2C WRITEBACK ACCESS:     171110  HIT:     170686  MISS:        424
L2C PREFETCH  REQUESTED:      47255  ISSUED:      47255  USEFUL:      36306  USELESS:      90624
L2C TOTAL MSHR MERGED:       2549
L2C LOAD MSHR MERGED:        607
L2C RFO MSHR MERGED:          0
L2C PREFETCH MSHR MERGED:       1942
L2C WRITEBACK MSHR MERGED:          0
L2C TOTAL ACCESSES:    1052356 HITS:     822579 MISSES:     229777
L2C LOAD ACCESSES:     364088 HITS:     328940 MISSES:      35148
L2C RFO ACCESSES:     151478 HITS:      88031 MISSES:      63447
L2C PREFETCH ACCESSES:     365680 HITS:     234922 MISSES:     130758
L2C WRITEBACK ACCESSES:     171110 HITS:     170686 MISSES:        424
L2C RQ ACCESS:     515566
L2C RQ TO_CACHE:     515229
L2C RQ MERGED:          0
L2C RQ FORWARD:          0
L2C WQ ACCESS:     171110
L2C WQ TO_CACHE:     171110
L2C WQ MERGED:          0
L2C WQ FORWARD:        355
LLC TOTAL     ACCESS:     296666  HIT:      88299  MISS:     208367
LLC LOAD      ACCESS:      34541  HIT:      21338  MISS:      13203
LLC RFO       ACCESS:      63446  HIT:       2647  MISS:      60799
LLC PREFETCH  ACCESS:     128232  HIT:      46520  MISS:      81712
LLC WRITEBACK ACCESS:      70447  HIT:      17794  MISS:      52653
LLC PREFETCH  REQUESTED:          0  ISSUED:          0  USEFUL:       4159  USELESS:      71962
LLC TOTAL MSHR MERGED:        383
LLC LOAD MSHR MERGED:        116
LLC RFO MSHR MERGED:          0
LLC PREFETCH MSHR MERGED:        267
LLC WRITEBACK MSHR MERGED:          0
LLC TOTAL ACCESSES:     297050 HITS:      88300 MISSES:     208750
LLC LOAD ACCESSES:      34541 HITS:      21338 MISSES:      13203
LLC RFO ACCESSES:      63447 HITS:       2648 MISSES:      60799
LLC PREFETCH ACCESSES:     128615 HITS:      46520 MISSES:      82095
LLC WRITEBACK ACCESSES:      70447 HITS:      17794 MISSES:      52653
LLC 0 RQ ACCESS:      97988
LLC 0 RQ TO_CACHE:      97987
LLC 0 RQ MERGED:          0
LLC 0 RQ FORWARD:          0
LLC WQ ACCESS:      70447
LLC WQ TO_CACHE:      70447
LLC WQ MERGED:          0
LLC WQ FORWARD:          1
Major fault: 0 Minor fault: 4464
CPU 0 L1D next line prefetcher final stats
CPU 0 L2C PC-based stride prefetcher final stats
All Misses: 326742
All Hits: 176908
SD Algo Stats - Switches: 0 SRR-Repls: 20765 BRR-Repls: 0

DRAM Statistics
 CHANNEL 0
 RQ ROW_BUFFER_HIT:      86942  ROW_BUFFER_MISS:      68759
 DBUS_CONGESTED:     124960
 WQ ROW_BUFFER_HIT:       9193  ROW_BUFFER_MISS:      67071  FULL:          0

 AVG_CONGESTED_CYCLE: 13
LOADS RETIRED: 23897209
INSTR RETIRED: 100000000
