
*** ChampSim Multicore Out-of-Order Simulator ***

Warmup Instructions: 100000000
Simulation Instructions: 500000000
Number of CPUs: 1
LLC sets: 2048
LLC ways: 16
Clean RRIP Policies: 1223010012230100 Dirty RRIP Policies: 1203110012031100 PSEL Width: 10 Track Set: 4294967295 PSEL Mask: 1 Demote Mask: 4034244040342440DS Algo: 0Window size: 0
Off-chip DRAM Size: 4096 MB Channels: 1 Width: 64-bit Data Rate: 1600 MT/s

CPU 0 runs /mnt/beegfs/iconst01/spec2017/Gcc.trace.gz
NOT SORTED
TRACE STRING: /mnt/beegfs/iconst01/spec2017/Gcc.trace.gz
SORTED
TRACE STRING: /mnt/beegfs/iconst01/spec2017/Gcc.trace.gz
INITIAL
TRACE STRING: /mnt/beegfs/iconst01/spec2017/Gcc.trace.gz

champsim_seed used: 269

CPU 0 L1D next line prefetcher
CPU 0 L2C IP-based stride prefetcher
Initialize DRRIP state
Assign rand_sets[0]: 454  LLC: 2048
rand_sets[0]: 454
Assign rand_sets[1]: 1662  LLC: 2048
rand_sets[1]: 1662
Assign rand_sets[2]: 1921  LLC: 2048
rand_sets[2]: 1921
Assign rand_sets[3]: 1131  LLC: 2048
rand_sets[3]: 1131
Assign rand_sets[4]: 331  LLC: 2048
rand_sets[4]: 331
Assign rand_sets[5]: 1531  LLC: 2048
rand_sets[5]: 1531
Assign rand_sets[6]: 482  LLC: 2048
rand_sets[6]: 482
Assign rand_sets[7]: 1275  LLC: 2048
rand_sets[7]: 1275
Assign rand_sets[8]: 1876  LLC: 2048
rand_sets[8]: 1876
Assign rand_sets[9]: 2038  LLC: 2048
rand_sets[9]: 2038
Assign rand_sets[10]: 701  LLC: 2048
rand_sets[10]: 701
Assign rand_sets[11]: 479  LLC: 2048
rand_sets[11]: 479
Assign rand_sets[12]: 892  LLC: 2048
rand_sets[12]: 892
Assign rand_sets[13]: 1820  LLC: 2048
rand_sets[13]: 1820
Assign rand_sets[14]: 1505  LLC: 2048
rand_sets[14]: 1505
Assign rand_sets[15]: 1159  LLC: 2048
rand_sets[15]: 1159
Assign rand_sets[16]: 513  LLC: 2048
rand_sets[16]: 513
Assign rand_sets[17]: 703  LLC: 2048
rand_sets[17]: 703
Assign rand_sets[18]: 561  LLC: 2048
rand_sets[18]: 561
Assign rand_sets[19]: 990  LLC: 2048
rand_sets[19]: 990
Assign rand_sets[20]: 342  LLC: 2048
rand_sets[20]: 342
Assign rand_sets[21]: 882  LLC: 2048
rand_sets[21]: 882
Assign rand_sets[22]: 15  LLC: 2048
rand_sets[22]: 15
Assign rand_sets[23]: 71  LLC: 2048
rand_sets[23]: 71
Assign rand_sets[24]: 1127  LLC: 2048
rand_sets[24]: 1127
Assign rand_sets[25]: 1382  LLC: 2048
rand_sets[25]: 1382
Assign rand_sets[26]: 647  LLC: 2048
rand_sets[26]: 647
Assign rand_sets[27]: 857  LLC: 2048
rand_sets[27]: 857
Assign rand_sets[28]: 1450  LLC: 2048
rand_sets[28]: 1450
Assign rand_sets[29]: 1160  LLC: 2048
rand_sets[29]: 1160
Assign rand_sets[30]: 1852  LLC: 2048
rand_sets[30]: 1852
Assign rand_sets[31]: 1881  LLC: 2048
rand_sets[31]: 1881
Assign rand_sets[32]: 1770  LLC: 2048
rand_sets[32]: 1770
Assign rand_sets[33]: 1622  LLC: 2048
rand_sets[33]: 1622
Assign rand_sets[34]: 275  LLC: 2048
rand_sets[34]: 275
Assign rand_sets[35]: 635  LLC: 2048
rand_sets[35]: 635
Assign rand_sets[36]: 466  LLC: 2048
rand_sets[36]: 466
Assign rand_sets[37]: 1413  LLC: 2048
rand_sets[37]: 1413
Assign rand_sets[38]: 417  LLC: 2048
rand_sets[38]: 417
Assign rand_sets[39]: 472  LLC: 2048
rand_sets[39]: 472
Assign rand_sets[40]: 1340  LLC: 2048
rand_sets[40]: 1340
Assign rand_sets[41]: 852  LLC: 2048
rand_sets[41]: 852
Assign rand_sets[42]: 1365  LLC: 2048
rand_sets[42]: 1365
Assign rand_sets[43]: 47  LLC: 2048
rand_sets[43]: 47
Assign rand_sets[44]: 823  LLC: 2048
rand_sets[44]: 823
Assign rand_sets[45]: 686  LLC: 2048
rand_sets[45]: 686
Assign rand_sets[46]: 1637  LLC: 2048
rand_sets[46]: 1637
Assign rand_sets[47]: 1115  LLC: 2048
rand_sets[47]: 1115
Assign rand_sets[48]: 986  LLC: 2048
rand_sets[48]: 986
Assign rand_sets[49]: 258  LLC: 2048
rand_sets[49]: 258
Assign rand_sets[50]: 633  LLC: 2048
rand_sets[50]: 633
Assign rand_sets[51]: 920  LLC: 2048
rand_sets[51]: 920
Assign rand_sets[52]: 204  LLC: 2048
rand_sets[52]: 204
Assign rand_sets[53]: 227  LLC: 2048
rand_sets[53]: 227
Assign rand_sets[54]: 1818  LLC: 2048
rand_sets[54]: 1818
Assign rand_sets[55]: 886  LLC: 2048
rand_sets[55]: 886
Assign rand_sets[56]: 1422  LLC: 2048
rand_sets[56]: 1422
Assign rand_sets[57]: 607  LLC: 2048
rand_sets[57]: 607
Assign rand_sets[58]: 217  LLC: 2048
rand_sets[58]: 217
Assign rand_sets[59]: 1945  LLC: 2048
rand_sets[59]: 1945
Assign rand_sets[60]: 143  LLC: 2048
rand_sets[60]: 143
Assign rand_sets[61]: 1311  LLC: 2048
rand_sets[61]: 1311
Assign rand_sets[62]: 319  LLC: 2048
rand_sets[62]: 319
Assign rand_sets[63]: 1846  LLC: 2048
rand_sets[63]: 1846
 CLEAN-RRIP-POLICY-1: 1-2-2-3-0-1-0-0- CLEAN-RRIP-POLICY-2: 1-2-2-3-0-1-0-0-
 DIRTY-RRIP-POLICY-1: 1-2-0-3-1-1-0-0- DIRTY-RRIP-POLICY-2: 1-2-0-3-1-1-0-0-
 PSEL width: 10
Heartbeat CPU 0 instructions: 10000001 cycles: 7315980 heartbeat IPC: 1.36687 cumulative IPC: 1.36687 (Simulation time: 0 hr 0 min 16 sec) 
Heartbeat CPU 0 instructions: 20000000 cycles: 14307532 heartbeat IPC: 1.4303 cumulative IPC: 1.39787 (Simulation time: 0 hr 0 min 31 sec) 
Heartbeat CPU 0 instructions: 30000001 cycles: 21020496 heartbeat IPC: 1.48966 cumulative IPC: 1.42718 (Simulation time: 0 hr 0 min 49 sec) 
Heartbeat CPU 0 instructions: 40000000 cycles: 27481300 heartbeat IPC: 1.54779 cumulative IPC: 1.45554 (Simulation time: 0 hr 1 min 6 sec) 
Heartbeat CPU 0 instructions: 50000001 cycles: 33583027 heartbeat IPC: 1.63888 cumulative IPC: 1.48885 (Simulation time: 0 hr 1 min 22 sec) 
Heartbeat CPU 0 instructions: 60000000 cycles: 40064156 heartbeat IPC: 1.54294 cumulative IPC: 1.4976 (Simulation time: 0 hr 1 min 39 sec) 
Heartbeat CPU 0 instructions: 70000000 cycles: 47103227 heartbeat IPC: 1.42064 cumulative IPC: 1.4861 (Simulation time: 0 hr 1 min 55 sec) 
Heartbeat CPU 0 instructions: 80000000 cycles: 54193698 heartbeat IPC: 1.41034 cumulative IPC: 1.47619 (Simulation time: 0 hr 2 min 11 sec) 
Heartbeat CPU 0 instructions: 90000003 cycles: 61198645 heartbeat IPC: 1.42756 cumulative IPC: 1.47062 (Simulation time: 0 hr 2 min 26 sec) 
Heartbeat CPU 0 instructions: 100000000 cycles: 68366495 heartbeat IPC: 1.39512 cumulative IPC: 1.4627 (Simulation time: 0 hr 2 min 42 sec) 

Warmup complete CPU 0 instructions: 100000004 cycles: 68366496 (Simulation time: 0 hr 2 min 42 sec) 

Heartbeat CPU 0 instructions: 110000003 cycles: 96103265 heartbeat IPC: 0.360532 cumulative IPC: 0.360532 (Simulation time: 0 hr 3 min 12 sec) 
Heartbeat CPU 0 instructions: 120000000 cycles: 123582530 heartbeat IPC: 0.363911 cumulative IPC: 0.362214 (Simulation time: 0 hr 3 min 44 sec) 
Heartbeat CPU 0 instructions: 130000000 cycles: 148580062 heartbeat IPC: 0.400039 cumulative IPC: 0.374002 (Simulation time: 0 hr 4 min 14 sec) 
Heartbeat CPU 0 instructions: 140000000 cycles: 178229596 heartbeat IPC: 0.337273 cumulative IPC: 0.364089 (Simulation time: 0 hr 4 min 45 sec) 
Heartbeat CPU 0 instructions: 150000000 cycles: 208179121 heartbeat IPC: 0.333895 cumulative IPC: 0.357621 (Simulation time: 0 hr 5 min 16 sec) 
Heartbeat CPU 0 instructions: 160000000 cycles: 235610546 heartbeat IPC: 0.364545 cumulative IPC: 0.358757 (Simulation time: 0 hr 5 min 45 sec) 
Heartbeat CPU 0 instructions: 170000001 cycles: 263708571 heartbeat IPC: 0.355897 cumulative IPC: 0.358346 (Simulation time: 0 hr 6 min 17 sec) 
Heartbeat CPU 0 instructions: 180000000 cycles: 292218258 heartbeat IPC: 0.350758 cumulative IPC: 0.357379 (Simulation time: 0 hr 6 min 49 sec) 
Heartbeat CPU 0 instructions: 190000002 cycles: 320345610 heartbeat IPC: 0.355526 cumulative IPC: 0.357172 (Simulation time: 0 hr 7 min 20 sec) 
Heartbeat CPU 0 instructions: 200000000 cycles: 348744822 heartbeat IPC: 0.352122 cumulative IPC: 0.356661 (Simulation time: 0 hr 7 min 51 sec) 
Heartbeat CPU 0 instructions: 210000002 cycles: 376647788 heartbeat IPC: 0.358385 cumulative IPC: 0.356817 (Simulation time: 0 hr 8 min 22 sec) 
Heartbeat CPU 0 instructions: 220000000 cycles: 405899771 heartbeat IPC: 0.341857 cumulative IPC: 0.35552 (Simulation time: 0 hr 8 min 52 sec) 
Heartbeat CPU 0 instructions: 230000000 cycles: 433495070 heartbeat IPC: 0.362381 cumulative IPC: 0.356039 (Simulation time: 0 hr 9 min 22 sec) 
Heartbeat CPU 0 instructions: 240000000 cycles: 459420880 heartbeat IPC: 0.385716 cumulative IPC: 0.358006 (Simulation time: 0 hr 9 min 51 sec) 
Heartbeat CPU 0 instructions: 250000000 cycles: 489577175 heartbeat IPC: 0.331606 cumulative IPC: 0.356116 (Simulation time: 0 hr 10 min 23 sec) 
Heartbeat CPU 0 instructions: 260000000 cycles: 516671378 heartbeat IPC: 0.369083 cumulative IPC: 0.3569 (Simulation time: 0 hr 10 min 54 sec) 
Heartbeat CPU 0 instructions: 270000003 cycles: 545176039 heartbeat IPC: 0.35082 cumulative IPC: 0.356536 (Simulation time: 0 hr 11 min 26 sec) 
Heartbeat CPU 0 instructions: 280000000 cycles: 573468419 heartbeat IPC: 0.353452 cumulative IPC: 0.356364 (Simulation time: 0 hr 11 min 57 sec) 
Heartbeat CPU 0 instructions: 290000000 cycles: 602416695 heartbeat IPC: 0.345444 cumulative IPC: 0.355772 (Simulation time: 0 hr 12 min 29 sec) 
Heartbeat CPU 0 instructions: 300000000 cycles: 632631049 heartbeat IPC: 0.330969 cumulative IPC: 0.354444 (Simulation time: 0 hr 12 min 58 sec) 
Heartbeat CPU 0 instructions: 310000001 cycles: 662176991 heartbeat IPC: 0.338456 cumulative IPC: 0.353648 (Simulation time: 0 hr 13 min 29 sec) 
Heartbeat CPU 0 instructions: 320000000 cycles: 690512375 heartbeat IPC: 0.352916 cumulative IPC: 0.353615 (Simulation time: 0 hr 13 min 58 sec) 
Heartbeat CPU 0 instructions: 330000000 cycles: 719240728 heartbeat IPC: 0.348088 cumulative IPC: 0.353371 (Simulation time: 0 hr 14 min 27 sec) 
Heartbeat CPU 0 instructions: 340000000 cycles: 748613801 heartbeat IPC: 0.340448 cumulative IPC: 0.352813 (Simulation time: 0 hr 14 min 57 sec) 
Heartbeat CPU 0 instructions: 350000003 cycles: 775670291 heartbeat IPC: 0.369597 cumulative IPC: 0.353455 (Simulation time: 0 hr 15 min 25 sec) 
Heartbeat CPU 0 instructions: 360000000 cycles: 803913143 heartbeat IPC: 0.354072 cumulative IPC: 0.353479 (Simulation time: 0 hr 15 min 54 sec) 
Heartbeat CPU 0 instructions: 370000000 cycles: 832174869 heartbeat IPC: 0.353835 cumulative IPC: 0.353492 (Simulation time: 0 hr 16 min 22 sec) 
Heartbeat CPU 0 instructions: 380000000 cycles: 860752214 heartbeat IPC: 0.349928 cumulative IPC: 0.353363 (Simulation time: 0 hr 16 min 50 sec) 
Heartbeat CPU 0 instructions: 390000001 cycles: 888413002 heartbeat IPC: 0.361523 cumulative IPC: 0.353638 (Simulation time: 0 hr 17 min 18 sec) 
Heartbeat CPU 0 instructions: 400000000 cycles: 917103864 heartbeat IPC: 0.348543 cumulative IPC: 0.353466 (Simulation time: 0 hr 17 min 46 sec) 
Heartbeat CPU 0 instructions: 410000001 cycles: 944439498 heartbeat IPC: 0.365823 cumulative IPC: 0.353852 (Simulation time: 0 hr 18 min 14 sec) 
Heartbeat CPU 0 instructions: 420000000 cycles: 971790821 heartbeat IPC: 0.365613 cumulative IPC: 0.354208 (Simulation time: 0 hr 18 min 41 sec) 
Heartbeat CPU 0 instructions: 430000002 cycles: 999513267 heartbeat IPC: 0.360719 cumulative IPC: 0.354402 (Simulation time: 0 hr 19 min 9 sec) 
Heartbeat CPU 0 instructions: 440000000 cycles: 1029110374 heartbeat IPC: 0.337871 cumulative IPC: 0.353892 (Simulation time: 0 hr 19 min 37 sec) 
Heartbeat CPU 0 instructions: 450000002 cycles: 1058419470 heartbeat IPC: 0.341191 cumulative IPC: 0.353516 (Simulation time: 0 hr 20 min 6 sec) 
Heartbeat CPU 0 instructions: 460000000 cycles: 1086142523 heartbeat IPC: 0.360711 cumulative IPC: 0.353712 (Simulation time: 0 hr 20 min 34 sec) 
Heartbeat CPU 0 instructions: 470000000 cycles: 1113803690 heartbeat IPC: 0.361518 cumulative IPC: 0.353919 (Simulation time: 0 hr 21 min 2 sec) 
Heartbeat CPU 0 instructions: 480000000 cycles: 1141707925 heartbeat IPC: 0.358369 cumulative IPC: 0.354035 (Simulation time: 0 hr 21 min 29 sec) 
Heartbeat CPU 0 instructions: 490000000 cycles: 1169328077 heartbeat IPC: 0.362054 cumulative IPC: 0.354236 (Simulation time: 0 hr 21 min 57 sec) 
Heartbeat CPU 0 instructions: 500000000 cycles: 1197641645 heartbeat IPC: 0.353188 cumulative IPC: 0.35421 (Simulation time: 0 hr 22 min 25 sec) 
Heartbeat CPU 0 instructions: 510000000 cycles: 1232039022 heartbeat IPC: 0.29072 cumulative IPC: 0.352333 (Simulation time: 0 hr 22 min 57 sec) 
Heartbeat CPU 0 instructions: 520000000 cycles: 1260016589 heartbeat IPC: 0.357429 cumulative IPC: 0.352452 (Simulation time: 0 hr 23 min 26 sec) 
Heartbeat CPU 0 instructions: 530000001 cycles: 1289509467 heartbeat IPC: 0.339065 cumulative IPC: 0.352129 (Simulation time: 0 hr 23 min 55 sec) 
Heartbeat CPU 0 instructions: 540000000 cycles: 1317633951 heartbeat IPC: 0.355562 cumulative IPC: 0.352206 (Simulation time: 0 hr 24 min 23 sec) 
Heartbeat CPU 0 instructions: 550000001 cycles: 1346862918 heartbeat IPC: 0.342126 cumulative IPC: 0.351976 (Simulation time: 0 hr 24 min 54 sec) 
Heartbeat CPU 0 instructions: 560000000 cycles: 1372249229 heartbeat IPC: 0.393913 cumulative IPC: 0.352792 (Simulation time: 0 hr 25 min 22 sec) 
Heartbeat CPU 0 instructions: 570000000 cycles: 1401854924 heartbeat IPC: 0.337773 cumulative IPC: 0.352459 (Simulation time: 0 hr 25 min 52 sec) 
Heartbeat CPU 0 instructions: 580000000 cycles: 1429951383 heartbeat IPC: 0.355917 cumulative IPC: 0.35253 (Simulation time: 0 hr 26 min 21 sec) 
Heartbeat CPU 0 instructions: 590000001 cycles: 1454703195 heartbeat IPC: 0.404011 cumulative IPC: 0.353449 (Simulation time: 0 hr 26 min 48 sec) 
Heartbeat CPU 0 instructions: 600000000 cycles: 1480791192 heartbeat IPC: 0.383318 cumulative IPC: 0.354001 (Simulation time: 0 hr 27 min 16 sec) 
Finished CPU 0 instructions: 500000000 cycles: 1412424718 cumulative IPC: 0.354001 (Simulation time: 0 hr 27 min 16 sec) 

CPU 0 Branch Prediction Accuracy: 86.4311% MPKI: 26.2662
Number of Branches: 96788573 Number of Mispredictions: 13133102
Number of LOAD Instructions: 164682285
Number of LOAD Instructions (ROI): 164682285
Number of STORE Instructions: 78194750
Number of STORE Instructions (ROI): 78194750
Total Destination Memory Operands: 83268534
Total Destination Memory Operands (ROI): 83268534
Total Source Memory Operands: 164712438
Total Source Memory Operands (ROI): 164712438
Number of DEPENDED LOADS: 7058067
Number of DEPENDED LOADS (ROI): 7058067
Number of SQ_ADDED: 83268522
Number of SQ_ADDED (ROI): 83268522
Number of LQ_ADDED: 236708814
Number of LQ_ADDED (ROI): 236708814
Number of Instructions read from trace: 600000066

ChampSim completed all CPUs

Region of Interest Statistics

CPU 0 cumulative IPC: 0.354001 instructions: 500000000 cycles: 1412424718
ITLB TOTAL     ACCESS:  100516709  HIT:  100312263  MISS:     204446
ITLB LOAD      ACCESS:  100516709  HIT:  100312263  MISS:     204446
ITLB RFO       ACCESS:          0  HIT:          0  MISS:          0
ITLB PREFETCH  ACCESS:          0  HIT:          0  MISS:          0
ITLB WRITEBACK ACCESS:          0  HIT:          0  MISS:          0
ITLB PREFETCH  REQUESTED:          0  ISSUED:          0  USEFUL:          0  USELESS:          0
ITLB TOTAL MSHR MERGED:     172423
ITLB LOAD MSHR MERGED:     172423
ITLB RFO MSHR MERGED:          0
ITLB PREFETCH MSHR MERGED:          0
ITLB WRITEBACK MSHR MERGED:          0
ITLB TOTAL ACCESSES:  100689132 HITS:  100312263 MISSES:     376869
ITLB LOAD ACCESSES:  100689132 HITS:  100312263 MISSES:     376869
ITLB RFO ACCESSES:          0 HITS:          0 MISSES:          0
ITLB PREFETCH ACCESSES:          0 HITS:          0 MISSES:          0
ITLB WRITEBACK ACCESSES:          0 HITS:          0 MISSES:          0
ITLB RQ ACCESS:  500000057
ITLB RQ TO_CACHE:  100689132
ITLB RQ MERGED:  399310925
ITLB RQ FORWARD:          0
ITLB WQ ACCESS:          0
ITLB WQ TO_CACHE:          0
ITLB WQ MERGED:          0
ITLB WQ FORWARD:          0
DTLB TOTAL     ACCESS:  165338875  HIT:  164704521  MISS:     634354
DTLB LOAD      ACCESS:  106293660  HIT:  105723722  MISS:     569938
DTLB RFO       ACCESS:   59045215  HIT:   58980799  MISS:      64416
DTLB PREFETCH  ACCESS:          0  HIT:          0  MISS:          0
DTLB WRITEBACK ACCESS:          0  HIT:          0  MISS:          0
DTLB PREFETCH  REQUESTED:          0  ISSUED:          0  USEFUL:          0  USELESS:          0
DTLB TOTAL MSHR MERGED:      99955
DTLB LOAD MSHR MERGED:      59430
DTLB RFO MSHR MERGED:      40525
DTLB PREFETCH MSHR MERGED:          0
DTLB WRITEBACK MSHR MERGED:          0
DTLB TOTAL ACCESSES:  165438830 HITS:  164704521 MISSES:     734309
DTLB LOAD ACCESSES:  106353090 HITS:  105723722 MISSES:     629368
DTLB RFO ACCESSES:   59085740 HITS:   58980799 MISSES:     104941
DTLB PREFETCH ACCESSES:          0 HITS:          0 MISSES:          0
DTLB WRITEBACK ACCESSES:          0 HITS:          0 MISSES:          0
DTLB RQ ACCESS:  200312793
DTLB RQ TO_CACHE:  165438830
DTLB RQ MERGED:   34873963
DTLB RQ FORWARD:          0
DTLB WQ ACCESS:          0
DTLB WQ TO_CACHE:          0
DTLB WQ MERGED:          0
DTLB WQ FORWARD:          0
L1D TOTAL     ACCESS:  281824357  HIT:  273915059  MISS:    7909298
L1D LOAD      ACCESS:  110415865  HIT:  107135594  MISS:    3280271
L1D RFO       ACCESS:   67123627  HIT:   66233195  MISS:     890432
L1D PREFETCH  ACCESS:  104284865  HIT:  100546270  MISS:    3738595
L1D WRITEBACK ACCESS:          0  HIT:          0  MISS:          0
L1D PREFETCH  REQUESTED:  110819786  ISSUED:  109120472  USEFUL:    1659310  USELESS:    2079249
L1D TOTAL MSHR MERGED:    2885419
L1D LOAD MSHR MERGED:     503691
L1D RFO MSHR MERGED:    1862129
L1D PREFETCH MSHR MERGED:     519599
L1D WRITEBACK MSHR MERGED:          0
L1D TOTAL ACCESSES:  284737189 HITS:  273942472 MISSES:   10794717
L1D LOAD ACCESSES:  110821208 HITS:  107137016 MISSES:    3684192
L1D RFO ACCESSES:   68974118 HITS:   66233195 MISSES:    2740923
L1D PREFETCH ACCESSES:  104941863 HITS:  100572261 MISSES:    4369602
L1D WRITEBACK ACCESSES:          0 HITS:          0 MISSES:          0
L1D RQ ACCESS:  130760190
L1D RQ TO_CACHE:  110819789
L1D RQ MERGED:   19938979
L1D RQ FORWARD:          0
L1D WQ ACCESS:   69552603
L1D WQ TO_CACHE:   68974119
L1D WQ MERGED:     578484
L1D WQ FORWARD:      27413
L1I TOTAL     ACCESS:  126564033  HIT:  122325481  MISS:    4238552
L1I LOAD      ACCESS:  126564033  HIT:  122325481  MISS:    4238552
L1I RFO       ACCESS:          0  HIT:          0  MISS:          0
L1I PREFETCH  ACCESS:          0  HIT:          0  MISS:          0
L1I WRITEBACK ACCESS:          0  HIT:          0  MISS:          0
L1I PREFETCH  REQUESTED:          0  ISSUED:          0  USEFUL:          0  USELESS:          0
L1I TOTAL MSHR MERGED:    1834665
L1I LOAD MSHR MERGED:    1834665
L1I RFO MSHR MERGED:          0
L1I PREFETCH MSHR MERGED:          0
L1I WRITEBACK MSHR MERGED:          0
L1I TOTAL ACCESSES:  128398701 HITS:  122325481 MISSES:    6073220
L1I LOAD ACCESSES:  128398701 HITS:  122325481 MISSES:    6073220
L1I RFO ACCESSES:          0 HITS:          0 MISSES:          0
L1I PREFETCH ACCESSES:          0 HITS:          0 MISSES:          0
L1I WRITEBACK ACCESSES:          0 HITS:          0 MISSES:          0
L1I RQ ACCESS:  500000057
L1I RQ TO_CACHE:  128398701
L1I RQ MERGED:  371601356
L1I RQ FORWARD:          0
L1I WQ ACCESS:          0
L1I WQ TO_CACHE:          0
L1I WQ MERGED:          0
L1I WQ FORWARD:          0
L2C TOTAL     ACCESS:   14904998  HIT:   11158631  MISS:    3746367
L2C LOAD      ACCESS:    7418846  HIT:    5098881  MISS:    2319965
L2C RFO       ACCESS:     878698  HIT:     409922  MISS:     468776
L2C PREFETCH  ACCESS:    4568214  HIT:    3627840  MISS:     940374
L2C WRITEBACK ACCESS:    2039240  HIT:    2021988  MISS:      17252
L2C PREFETCH  REQUESTED:     842755  ISSUED:     842755  USEFUL:     203360  USELESS:     736720
L2C TOTAL MSHR MERGED:       7195
L2C LOAD MSHR MERGED:        795
L2C RFO MSHR MERGED:          0
L2C PREFETCH MSHR MERGED:       6400
L2C WRITEBACK MSHR MERGED:          0
L2C TOTAL ACCESSES:   14913107 HITS:   11159075 MISSES:    3754032
L2C LOAD ACCESSES:    7419053 HITS:    5099088 MISSES:    2319965
L2C RFO ACCESSES:     878794 HITS:     410018 MISSES:     468776
L2C PREFETCH ACCESSES:    4576020 HITS:    3627981 MISSES:     948039
L2C WRITEBACK ACCESSES:    2039240 HITS:    2021988 MISSES:      17252
L2C RQ ACCESS:    8297850
L2C RQ TO_CACHE:    8297547
L2C RQ MERGED:          0
L2C RQ FORWARD:          0
L2C WQ ACCESS:    2039240
L2C WQ TO_CACHE:    2039240
L2C WQ MERGED:          0
L2C WQ FORWARD:        444
LLC TOTAL     ACCESS:    4609670  HIT:    3927791  MISS:     681879
LLC LOAD      ACCESS:    2319156  HIT:    2051122  MISS:     268034
LLC RFO       ACCESS:     468765  HIT:     413149  MISS:      55616
LLC PREFETCH  ACCESS:     941510  HIT:     612317  MISS:     329193
LLC WRITEBACK ACCESS:     880239  HIT:     851203  MISS:      29036
LLC PREFETCH  REQUESTED:          0  ISSUED:          0  USEFUL:      14484  USELESS:     315024
LLC TOTAL MSHR MERGED:        112
LLC LOAD MSHR MERGED:         36
LLC RFO MSHR MERGED:          0
LLC PREFETCH MSHR MERGED:         76
LLC WRITEBACK MSHR MERGED:          0
LLC TOTAL ACCESSES:    4609817 HITS:    3927826 MISSES:     681991
LLC LOAD ACCESSES:    2319170 HITS:    2051136 MISSES:     268034
LLC RFO ACCESSES:     468776 HITS:     413160 MISSES:      55616
LLC PREFETCH ACCESSES:     941632 HITS:     612327 MISSES:     329305
LLC WRITEBACK ACCESSES:     880239 HITS:     851203 MISSES:      29036
LLC 0 RQ ACCESS:    2787946
LLC 0 RQ TO_CACHE:    2787921
LLC 0 RQ MERGED:          0
LLC 0 RQ FORWARD:          0
LLC WQ ACCESS:     880239
LLC WQ TO_CACHE:     880239
LLC WQ MERGED:          0
LLC WQ FORWARD:         35
Major fault: 0 Minor fault: 12862
CPU 0 L1D next line prefetcher final stats
CPU 0 L2C PC-based stride prefetcher final stats
All Misses: 807560
All Hits: 4619116
SD Algo Stats - Switches: 0 SRR-Repls: 314779 BRR-Repls: 0

DRAM Statistics
 CHANNEL 0
 RQ ROW_BUFFER_HIT:     130232  ROW_BUFFER_MISS:     521870
 DBUS_CONGESTED:     331441
 WQ ROW_BUFFER_HIT:      10033  ROW_BUFFER_MISS:     157554  FULL:          0

 AVG_CONGESTED_CYCLE: 13
LOADS RETIRED: 136549171
INSTR RETIRED: 500000000
