
*** ChampSim Multicore Out-of-Order Simulator ***

Warmup Instructions: 100000000
Simulation Instructions: 500000000
Number of CPUs: 1
LLC sets: 2048
LLC ways: 16
Clean RRIP Policies: 1213230112132301 Dirty RRIP Policies: 2213130122131301 PSEL Width: 10 Track Set: 4294967295 PSEL Mask: 1 Demote Mask: 3040100030401000DS Algo: 0Window size: 0
Off-chip DRAM Size: 4096 MB Channels: 1 Width: 64-bit Data Rate: 1600 MT/s

CPU 0 runs /mnt/beegfs/iconst01/spec2017/x264.trace.gz
NOT SORTED
TRACE STRING: /mnt/beegfs/iconst01/spec2017/x264.trace.gz
SORTED
TRACE STRING: /mnt/beegfs/iconst01/spec2017/x264.trace.gz
INITIAL
TRACE STRING: /mnt/beegfs/iconst01/spec2017/x264.trace.gz

champsim_seed used: 276

CPU 0 L1D next line prefetcher
CPU 0 L2C IP-based stride prefetcher
Initialize DRRIP state
Assign rand_sets[0]: 454  LLC: 2048
rand_sets[0]: 454
Assign rand_sets[1]: 1662  LLC: 2048
rand_sets[1]: 1662
Assign rand_sets[2]: 1921  LLC: 2048
rand_sets[2]: 1921
Assign rand_sets[3]: 1131  LLC: 2048
rand_sets[3]: 1131
Assign rand_sets[4]: 331  LLC: 2048
rand_sets[4]: 331
Assign rand_sets[5]: 1531  LLC: 2048
rand_sets[5]: 1531
Assign rand_sets[6]: 482  LLC: 2048
rand_sets[6]: 482
Assign rand_sets[7]: 1275  LLC: 2048
rand_sets[7]: 1275
Assign rand_sets[8]: 1876  LLC: 2048
rand_sets[8]: 1876
Assign rand_sets[9]: 2038  LLC: 2048
rand_sets[9]: 2038
Assign rand_sets[10]: 701  LLC: 2048
rand_sets[10]: 701
Assign rand_sets[11]: 479  LLC: 2048
rand_sets[11]: 479
Assign rand_sets[12]: 892  LLC: 2048
rand_sets[12]: 892
Assign rand_sets[13]: 1820  LLC: 2048
rand_sets[13]: 1820
Assign rand_sets[14]: 1505  LLC: 2048
rand_sets[14]: 1505
Assign rand_sets[15]: 1159  LLC: 2048
rand_sets[15]: 1159
Assign rand_sets[16]: 513  LLC: 2048
rand_sets[16]: 513
Assign rand_sets[17]: 703  LLC: 2048
rand_sets[17]: 703
Assign rand_sets[18]: 561  LLC: 2048
rand_sets[18]: 561
Assign rand_sets[19]: 990  LLC: 2048
rand_sets[19]: 990
Assign rand_sets[20]: 342  LLC: 2048
rand_sets[20]: 342
Assign rand_sets[21]: 882  LLC: 2048
rand_sets[21]: 882
Assign rand_sets[22]: 15  LLC: 2048
rand_sets[22]: 15
Assign rand_sets[23]: 71  LLC: 2048
rand_sets[23]: 71
Assign rand_sets[24]: 1127  LLC: 2048
rand_sets[24]: 1127
Assign rand_sets[25]: 1382  LLC: 2048
rand_sets[25]: 1382
Assign rand_sets[26]: 647  LLC: 2048
rand_sets[26]: 647
Assign rand_sets[27]: 857  LLC: 2048
rand_sets[27]: 857
Assign rand_sets[28]: 1450  LLC: 2048
rand_sets[28]: 1450
Assign rand_sets[29]: 1160  LLC: 2048
rand_sets[29]: 1160
Assign rand_sets[30]: 1852  LLC: 2048
rand_sets[30]: 1852
Assign rand_sets[31]: 1881  LLC: 2048
rand_sets[31]: 1881
Assign rand_sets[32]: 1770  LLC: 2048
rand_sets[32]: 1770
Assign rand_sets[33]: 1622  LLC: 2048
rand_sets[33]: 1622
Assign rand_sets[34]: 275  LLC: 2048
rand_sets[34]: 275
Assign rand_sets[35]: 635  LLC: 2048
rand_sets[35]: 635
Assign rand_sets[36]: 466  LLC: 2048
rand_sets[36]: 466
Assign rand_sets[37]: 1413  LLC: 2048
rand_sets[37]: 1413
Assign rand_sets[38]: 417  LLC: 2048
rand_sets[38]: 417
Assign rand_sets[39]: 472  LLC: 2048
rand_sets[39]: 472
Assign rand_sets[40]: 1340  LLC: 2048
rand_sets[40]: 1340
Assign rand_sets[41]: 852  LLC: 2048
rand_sets[41]: 852
Assign rand_sets[42]: 1365  LLC: 2048
rand_sets[42]: 1365
Assign rand_sets[43]: 47  LLC: 2048
rand_sets[43]: 47
Assign rand_sets[44]: 823  LLC: 2048
rand_sets[44]: 823
Assign rand_sets[45]: 686  LLC: 2048
rand_sets[45]: 686
Assign rand_sets[46]: 1637  LLC: 2048
rand_sets[46]: 1637
Assign rand_sets[47]: 1115  LLC: 2048
rand_sets[47]: 1115
Assign rand_sets[48]: 986  LLC: 2048
rand_sets[48]: 986
Assign rand_sets[49]: 258  LLC: 2048
rand_sets[49]: 258
Assign rand_sets[50]: 633  LLC: 2048
rand_sets[50]: 633
Assign rand_sets[51]: 920  LLC: 2048
rand_sets[51]: 920
Assign rand_sets[52]: 204  LLC: 2048
rand_sets[52]: 204
Assign rand_sets[53]: 227  LLC: 2048
rand_sets[53]: 227
Assign rand_sets[54]: 1818  LLC: 2048
rand_sets[54]: 1818
Assign rand_sets[55]: 886  LLC: 2048
rand_sets[55]: 886
Assign rand_sets[56]: 1422  LLC: 2048
rand_sets[56]: 1422
Assign rand_sets[57]: 607  LLC: 2048
rand_sets[57]: 607
Assign rand_sets[58]: 217  LLC: 2048
rand_sets[58]: 217
Assign rand_sets[59]: 1945  LLC: 2048
rand_sets[59]: 1945
Assign rand_sets[60]: 143  LLC: 2048
rand_sets[60]: 143
Assign rand_sets[61]: 1311  LLC: 2048
rand_sets[61]: 1311
Assign rand_sets[62]: 319  LLC: 2048
rand_sets[62]: 319
Assign rand_sets[63]: 1846  LLC: 2048
rand_sets[63]: 1846
 CLEAN-RRIP-POLICY-1: 1-2-1-3-2-3-0-1- CLEAN-RRIP-POLICY-2: 1-2-1-3-2-3-0-1-
 DIRTY-RRIP-POLICY-1: 2-2-1-3-1-3-0-1- DIRTY-RRIP-POLICY-2: 2-2-1-3-1-3-0-1-
 PSEL width: 10
Heartbeat CPU 0 instructions: 10000000 cycles: 4124759 heartbeat IPC: 2.42438 cumulative IPC: 2.42438 (Simulation time: 0 hr 0 min 14 sec) 
Heartbeat CPU 0 instructions: 20000000 cycles: 8233863 heartbeat IPC: 2.43362 cumulative IPC: 2.42899 (Simulation time: 0 hr 0 min 27 sec) 
Heartbeat CPU 0 instructions: 30000003 cycles: 12464696 heartbeat IPC: 2.3636 cumulative IPC: 2.4068 (Simulation time: 0 hr 0 min 40 sec) 
Heartbeat CPU 0 instructions: 40000000 cycles: 16636669 heartbeat IPC: 2.39695 cumulative IPC: 2.40433 (Simulation time: 0 hr 0 min 53 sec) 
Heartbeat CPU 0 instructions: 50000000 cycles: 20699143 heartbeat IPC: 2.46155 cumulative IPC: 2.41556 (Simulation time: 0 hr 1 min 7 sec) 
Heartbeat CPU 0 instructions: 60000000 cycles: 25022630 heartbeat IPC: 2.31295 cumulative IPC: 2.39783 (Simulation time: 0 hr 1 min 20 sec) 
Heartbeat CPU 0 instructions: 70000000 cycles: 29370972 heartbeat IPC: 2.29973 cumulative IPC: 2.38331 (Simulation time: 0 hr 1 min 33 sec) 
Heartbeat CPU 0 instructions: 80000000 cycles: 33721128 heartbeat IPC: 2.29877 cumulative IPC: 2.3724 (Simulation time: 0 hr 1 min 46 sec) 
Heartbeat CPU 0 instructions: 90000002 cycles: 38032111 heartbeat IPC: 2.31966 cumulative IPC: 2.36642 (Simulation time: 0 hr 1 min 59 sec) 
Heartbeat CPU 0 instructions: 100000000 cycles: 42329033 heartbeat IPC: 2.32725 cumulative IPC: 2.36244 (Simulation time: 0 hr 2 min 12 sec) 

Warmup complete CPU 0 instructions: 100000001 cycles: 42329034 (Simulation time: 0 hr 2 min 12 sec) 

Heartbeat CPU 0 instructions: 110000001 cycles: 49380800 heartbeat IPC: 1.41808 cumulative IPC: 1.41808 (Simulation time: 0 hr 2 min 29 sec) 
Heartbeat CPU 0 instructions: 120000000 cycles: 58885114 heartbeat IPC: 1.05215 cumulative IPC: 1.20802 (Simulation time: 0 hr 2 min 48 sec) 
Heartbeat CPU 0 instructions: 130000000 cycles: 63697453 heartbeat IPC: 2.07799 cumulative IPC: 1.40394 (Simulation time: 0 hr 3 min 4 sec) 
Heartbeat CPU 0 instructions: 140000000 cycles: 68592590 heartbeat IPC: 2.04284 cumulative IPC: 1.52302 (Simulation time: 0 hr 3 min 21 sec) 
Heartbeat CPU 0 instructions: 150000002 cycles: 75417107 heartbeat IPC: 1.46531 cumulative IPC: 1.51112 (Simulation time: 0 hr 3 min 38 sec) 
Heartbeat CPU 0 instructions: 160000000 cycles: 83251506 heartbeat IPC: 1.27642 cumulative IPC: 1.46619 (Simulation time: 0 hr 3 min 56 sec) 
Heartbeat CPU 0 instructions: 170000000 cycles: 90654386 heartbeat IPC: 1.35083 cumulative IPC: 1.44852 (Simulation time: 0 hr 4 min 13 sec) 
Heartbeat CPU 0 instructions: 180000000 cycles: 97957667 heartbeat IPC: 1.36925 cumulative IPC: 1.43811 (Simulation time: 0 hr 4 min 30 sec) 
Heartbeat CPU 0 instructions: 190000002 cycles: 105127295 heartbeat IPC: 1.39477 cumulative IPC: 1.43316 (Simulation time: 0 hr 4 min 46 sec) 
Heartbeat CPU 0 instructions: 200000000 cycles: 112364276 heartbeat IPC: 1.38179 cumulative IPC: 1.42785 (Simulation time: 0 hr 5 min 3 sec) 
Heartbeat CPU 0 instructions: 210000000 cycles: 119236799 heartbeat IPC: 1.45507 cumulative IPC: 1.43028 (Simulation time: 0 hr 5 min 19 sec) 
Heartbeat CPU 0 instructions: 220000000 cycles: 126006344 heartbeat IPC: 1.4772 cumulative IPC: 1.43408 (Simulation time: 0 hr 5 min 36 sec) 
Heartbeat CPU 0 instructions: 230000003 cycles: 132735248 heartbeat IPC: 1.48613 cumulative IPC: 1.43795 (Simulation time: 0 hr 5 min 52 sec) 
Heartbeat CPU 0 instructions: 240000000 cycles: 139478673 heartbeat IPC: 1.48293 cumulative IPC: 1.44108 (Simulation time: 0 hr 6 min 8 sec) 
Heartbeat CPU 0 instructions: 250000001 cycles: 146207632 heartbeat IPC: 1.48611 cumulative IPC: 1.44399 (Simulation time: 0 hr 6 min 24 sec) 
Heartbeat CPU 0 instructions: 260000000 cycles: 152912871 heartbeat IPC: 1.49137 cumulative IPC: 1.44687 (Simulation time: 0 hr 6 min 41 sec) 
Heartbeat CPU 0 instructions: 270000001 cycles: 159891986 heartbeat IPC: 1.43285 cumulative IPC: 1.44603 (Simulation time: 0 hr 6 min 57 sec) 
Heartbeat CPU 0 instructions: 280000000 cycles: 167421869 heartbeat IPC: 1.32804 cumulative IPC: 1.43893 (Simulation time: 0 hr 7 min 14 sec) 
Heartbeat CPU 0 instructions: 290000000 cycles: 175341111 heartbeat IPC: 1.26275 cumulative IPC: 1.42844 (Simulation time: 0 hr 7 min 31 sec) 
Heartbeat CPU 0 instructions: 300000000 cycles: 183516974 heartbeat IPC: 1.22311 cumulative IPC: 1.41655 (Simulation time: 0 hr 7 min 49 sec) 
Heartbeat CPU 0 instructions: 310000002 cycles: 191829539 heartbeat IPC: 1.203 cumulative IPC: 1.40468 (Simulation time: 0 hr 8 min 6 sec) 
Heartbeat CPU 0 instructions: 320000000 cycles: 201782502 heartbeat IPC: 1.00473 cumulative IPC: 1.37971 (Simulation time: 0 hr 8 min 26 sec) 
Heartbeat CPU 0 instructions: 330000002 cycles: 206419526 heartbeat IPC: 2.15656 cumulative IPC: 1.40167 (Simulation time: 0 hr 8 min 42 sec) 
Heartbeat CPU 0 instructions: 340000000 cycles: 211629653 heartbeat IPC: 1.91934 cumulative IPC: 1.4176 (Simulation time: 0 hr 8 min 59 sec) 
Heartbeat CPU 0 instructions: 350000000 cycles: 218842746 heartbeat IPC: 1.38637 cumulative IPC: 1.41632 (Simulation time: 0 hr 9 min 16 sec) 
Heartbeat CPU 0 instructions: 360000000 cycles: 226502477 heartbeat IPC: 1.30553 cumulative IPC: 1.41171 (Simulation time: 0 hr 9 min 33 sec) 
Heartbeat CPU 0 instructions: 370000000 cycles: 233911172 heartbeat IPC: 1.34977 cumulative IPC: 1.40932 (Simulation time: 0 hr 9 min 50 sec) 
Heartbeat CPU 0 instructions: 380000000 cycles: 241186486 heartbeat IPC: 1.37451 cumulative IPC: 1.40804 (Simulation time: 0 hr 10 min 7 sec) 
Heartbeat CPU 0 instructions: 390000000 cycles: 249308608 heartbeat IPC: 1.23121 cumulative IPC: 1.4011 (Simulation time: 0 hr 10 min 24 sec) 
Heartbeat CPU 0 instructions: 400000000 cycles: 257514537 heartbeat IPC: 1.21863 cumulative IPC: 1.39415 (Simulation time: 0 hr 10 min 42 sec) 
Heartbeat CPU 0 instructions: 410000001 cycles: 265338905 heartbeat IPC: 1.27806 cumulative IPC: 1.39007 (Simulation time: 0 hr 10 min 59 sec) 
Heartbeat CPU 0 instructions: 420000000 cycles: 273389804 heartbeat IPC: 1.2421 cumulative IPC: 1.38492 (Simulation time: 0 hr 11 min 16 sec) 
Heartbeat CPU 0 instructions: 430000001 cycles: 281649087 heartbeat IPC: 1.21076 cumulative IPC: 1.37891 (Simulation time: 0 hr 11 min 34 sec) 
Heartbeat CPU 0 instructions: 440000000 cycles: 289690610 heartbeat IPC: 1.24355 cumulative IPC: 1.37451 (Simulation time: 0 hr 11 min 52 sec) 
Heartbeat CPU 0 instructions: 450000001 cycles: 297560077 heartbeat IPC: 1.27073 cumulative IPC: 1.37131 (Simulation time: 0 hr 12 min 9 sec) 
Heartbeat CPU 0 instructions: 460000000 cycles: 307473517 heartbeat IPC: 1.00873 cumulative IPC: 1.35775 (Simulation time: 0 hr 12 min 28 sec) 
Heartbeat CPU 0 instructions: 470000002 cycles: 312101651 heartbeat IPC: 2.1607 cumulative IPC: 1.37153 (Simulation time: 0 hr 12 min 45 sec) 
Heartbeat CPU 0 instructions: 480000000 cycles: 317335049 heartbeat IPC: 1.9108 cumulative IPC: 1.38179 (Simulation time: 0 hr 13 min 1 sec) 
Heartbeat CPU 0 instructions: 490000001 cycles: 324646597 heartbeat IPC: 1.3677 cumulative IPC: 1.38142 (Simulation time: 0 hr 13 min 19 sec) 
Heartbeat CPU 0 instructions: 500000000 cycles: 333376115 heartbeat IPC: 1.14554 cumulative IPC: 1.37435 (Simulation time: 0 hr 13 min 39 sec) 
Heartbeat CPU 0 instructions: 510000002 cycles: 342107286 heartbeat IPC: 1.14532 cumulative IPC: 1.36768 (Simulation time: 0 hr 13 min 59 sec) 
Heartbeat CPU 0 instructions: 520000000 cycles: 350835783 heartbeat IPC: 1.14567 cumulative IPC: 1.3614 (Simulation time: 0 hr 14 min 18 sec) 
Heartbeat CPU 0 instructions: 530000000 cycles: 359543880 heartbeat IPC: 1.14836 cumulative IPC: 1.35555 (Simulation time: 0 hr 14 min 38 sec) 
Heartbeat CPU 0 instructions: 540000000 cycles: 367800035 heartbeat IPC: 1.21122 cumulative IPC: 1.35189 (Simulation time: 0 hr 14 min 57 sec) 
Heartbeat CPU 0 instructions: 550000000 cycles: 374840213 heartbeat IPC: 1.42042 cumulative IPC: 1.35334 (Simulation time: 0 hr 15 min 14 sec) 
Heartbeat CPU 0 instructions: 560000000 cycles: 381454465 heartbeat IPC: 1.51189 cumulative IPC: 1.35643 (Simulation time: 0 hr 15 min 31 sec) 
Heartbeat CPU 0 instructions: 570000002 cycles: 388046761 heartbeat IPC: 1.51692 cumulative IPC: 1.35949 (Simulation time: 0 hr 15 min 48 sec) 
Heartbeat CPU 0 instructions: 580000000 cycles: 394697457 heartbeat IPC: 1.5036 cumulative IPC: 1.36221 (Simulation time: 0 hr 16 min 5 sec) 
Heartbeat CPU 0 instructions: 590000002 cycles: 401390486 heartbeat IPC: 1.49409 cumulative IPC: 1.36467 (Simulation time: 0 hr 16 min 22 sec) 
Heartbeat CPU 0 instructions: 600000000 cycles: 408206145 heartbeat IPC: 1.46721 cumulative IPC: 1.36658 (Simulation time: 0 hr 16 min 39 sec) 
Finished CPU 0 instructions: 500000000 cycles: 365877119 cumulative IPC: 1.36658 (Simulation time: 0 hr 16 min 39 sec) 

CPU 0 Branch Prediction Accuracy: 93.4682% MPKI: 2.44079
Number of Branches: 18683822 Number of Mispredictions: 1220394
Number of LOAD Instructions: 142551610
Number of LOAD Instructions (ROI): 142551610
Number of STORE Instructions: 44807454
Number of STORE Instructions (ROI): 44807454
Total Destination Memory Operands: 48357071
Total Destination Memory Operands (ROI): 48357071
Total Source Memory Operands: 142551610
Total Source Memory Operands (ROI): 142551610
Number of DEPENDED LOADS: 7395175
Number of DEPENDED LOADS (ROI): 7395175
Number of SQ_ADDED: 48357051
Number of SQ_ADDED (ROI): 48357051
Number of LQ_ADDED: 157223897
Number of LQ_ADDED (ROI): 157223897
Number of Instructions read from trace: 600000256

ChampSim completed all CPUs

Region of Interest Statistics

CPU 0 cumulative IPC: 1.36658 instructions: 500000000 cycles: 365877119
ITLB TOTAL     ACCESS:   88176607  HIT:   88176538  MISS:         69
ITLB LOAD      ACCESS:   88176607  HIT:   88176538  MISS:         69
ITLB RFO       ACCESS:          0  HIT:          0  MISS:          0
ITLB PREFETCH  ACCESS:          0  HIT:          0  MISS:          0
ITLB WRITEBACK ACCESS:          0  HIT:          0  MISS:          0
ITLB PREFETCH  REQUESTED:          0  ISSUED:          0  USEFUL:          0  USELESS:          0
ITLB TOTAL MSHR MERGED:         85
ITLB LOAD MSHR MERGED:         85
ITLB RFO MSHR MERGED:          0
ITLB PREFETCH MSHR MERGED:          0
ITLB WRITEBACK MSHR MERGED:          0
ITLB TOTAL ACCESSES:   88176692 HITS:   88176538 MISSES:        154
ITLB LOAD ACCESSES:   88176692 HITS:   88176538 MISSES:        154
ITLB RFO ACCESSES:          0 HITS:          0 MISSES:          0
ITLB PREFETCH ACCESSES:          0 HITS:          0 MISSES:          0
ITLB WRITEBACK ACCESSES:          0 HITS:          0 MISSES:          0
ITLB RQ ACCESS:  500000000
ITLB RQ TO_CACHE:   88176692
ITLB RQ MERGED:  411823308
ITLB RQ FORWARD:          0
ITLB WQ ACCESS:          0
ITLB WQ TO_CACHE:          0
ITLB WQ MERGED:          0
ITLB WQ FORWARD:          0
DTLB TOTAL     ACCESS:   88202959  HIT:   88075542  MISS:     127417
DTLB LOAD      ACCESS:   59485291  HIT:   59392823  MISS:      92468
DTLB RFO       ACCESS:   28717668  HIT:   28682719  MISS:      34949
DTLB PREFETCH  ACCESS:          0  HIT:          0  MISS:          0
DTLB WRITEBACK ACCESS:          0  HIT:          0  MISS:          0
DTLB PREFETCH  REQUESTED:          0  ISSUED:          0  USEFUL:          0  USELESS:          0
DTLB TOTAL MSHR MERGED:     141210
DTLB LOAD MSHR MERGED:     107737
DTLB RFO MSHR MERGED:      33473
DTLB PREFETCH MSHR MERGED:          0
DTLB WRITEBACK MSHR MERGED:          0
DTLB TOTAL ACCESSES:   88344169 HITS:   88075542 MISSES:     268627
DTLB LOAD ACCESSES:   59593028 HITS:   59392823 MISSES:     200205
DTLB RFO ACCESSES:   28751141 HITS:   28682719 MISSES:      68422
DTLB PREFETCH ACCESSES:          0 HITS:          0 MISSES:          0
DTLB WRITEBACK ACCESSES:          0 HITS:          0 MISSES:          0
DTLB RQ ACCESS:  154558719
DTLB RQ TO_CACHE:   88344169
DTLB RQ MERGED:   66214550
DTLB RQ FORWARD:          0
DTLB WQ ACCESS:          0
DTLB WQ TO_CACHE:          0
DTLB WQ MERGED:          0
DTLB WQ FORWARD:          0
L1D TOTAL     ACCESS:  128095592  HIT:  124869951  MISS:    3225641
L1D LOAD      ACCESS:   53172139  HIT:   51976804  MISS:    1195335
L1D RFO       ACCESS:   37385376  HIT:   36771246  MISS:     614130
L1D PREFETCH  ACCESS:   37538077  HIT:   36121901  MISS:    1416176
L1D WRITEBACK ACCESS:          0  HIT:          0  MISS:          0
L1D PREFETCH  REQUESTED:   53657083  ISSUED:   52457106  USEFUL:     352090  USELESS:    1064051
L1D TOTAL MSHR MERGED:    2808436
L1D LOAD MSHR MERGED:     523710
L1D RFO MSHR MERGED:    1569355
L1D PREFETCH MSHR MERGED:     715371
L1D WRITEBACK MSHR MERGED:          0
L1D TOTAL ACCESSES:  130938965 HITS:  124904888 MISSES:    6034077
L1D LOAD ACCESSES:   53660020 HITS:   51979741 MISSES:    1680279
L1D RFO ACCESSES:   38952833 HITS:   36771246 MISSES:    2181587
L1D PREFETCH ACCESSES:   38326112 HITS:   36153901 MISSES:    2172211
L1D WRITEBACK ACCESSES:          0 HITS:          0 MISSES:          0
L1D RQ ACCESS:  113713827
L1D RQ TO_CACHE:   53657083
L1D RQ MERGED:   60053807
L1D RQ FORWARD:          0
L1D WQ ACCESS:   40844891
L1D WQ TO_CACHE:   38952833
L1D WQ MERGED:    1892058
L1D WQ FORWARD:      34937
L1I TOTAL     ACCESS:  108368436  HIT:  107809301  MISS:     559135
L1I LOAD      ACCESS:  108368436  HIT:  107809301  MISS:     559135
L1I RFO       ACCESS:          0  HIT:          0  MISS:          0
L1I PREFETCH  ACCESS:          0  HIT:          0  MISS:          0
L1I WRITEBACK ACCESS:          0  HIT:          0  MISS:          0
L1I PREFETCH  REQUESTED:          0  ISSUED:          0  USEFUL:          0  USELESS:          0
L1I TOTAL MSHR MERGED:     525567
L1I LOAD MSHR MERGED:     525567
L1I RFO MSHR MERGED:          0
L1I PREFETCH MSHR MERGED:          0
L1I WRITEBACK MSHR MERGED:          0
L1I TOTAL ACCESSES:  108894003 HITS:  107809301 MISSES:    1084702
L1I LOAD ACCESSES:  108894003 HITS:  107809301 MISSES:    1084702
L1I RFO ACCESSES:          0 HITS:          0 MISSES:          0
L1I PREFETCH ACCESSES:          0 HITS:          0 MISSES:          0
L1I WRITEBACK ACCESSES:          0 HITS:          0 MISSES:          0
L1I RQ ACCESS:  500000002
L1I RQ TO_CACHE:  108894003
L1I RQ MERGED:  391105999
L1I RQ FORWARD:          0
L1I WQ ACCESS:          0
L1I WQ TO_CACHE:          0
L1I WQ MERGED:          0
L1I WQ FORWARD:          0
L2C TOTAL     ACCESS:    4692245  HIT:    3866153  MISS:     826092
L2C LOAD      ACCESS:    1715595  HIT:    1562806  MISS:     152789
L2C RFO       ACCESS:     610817  HIT:     421162  MISS:     189655
L2C PREFETCH  ACCESS:    1662944  HIT:    1181480  MISS:     481464
L2C WRITEBACK ACCESS:     702889  HIT:     700705  MISS:       2184
L2C PREFETCH  REQUESTED:     256402  ISSUED:     256402  USEFUL:     173176  USELESS:     308954
L2C TOTAL MSHR MERGED:      13494
L2C LOAD MSHR MERGED:       4192
L2C RFO MSHR MERGED:          0
L2C PREFETCH MSHR MERGED:       9302
L2C WRITEBACK MSHR MERGED:          0
L2C TOTAL ACCESSES:    4712153 HITS:    3867746 MISSES:     844407
L2C LOAD ACCESSES:    1715704 HITS:    1562915 MISSES:     152789
L2C RFO ACCESSES:     612232 HITS:     422577 MISSES:     189655
L2C PREFETCH ACCESSES:    1681328 HITS:    1181549 MISSES:     499779
L2C WRITEBACK ACCESSES:     702889 HITS:     700705 MISSES:       2184
L2C RQ ACCESS:    2327936
L2C RQ TO_CACHE:    2326412
L2C RQ MERGED:          0
L2C RQ FORWARD:          0
L2C WQ ACCESS:     702889
L2C WQ TO_CACHE:     702889
L2C WQ MERGED:          0
L2C WQ FORWARD:       1593
LLC TOTAL     ACCESS:    1047495  HIT:     289493  MISS:     758002
LLC LOAD      ACCESS:     148593  HIT:      90505  MISS:      58088
LLC RFO       ACCESS:     189647  HIT:       6820  MISS:     182827
LLC PREFETCH  ACCESS:     488379  HIT:     152910  MISS:     335469
LLC WRITEBACK ACCESS:     220876  HIT:      39258  MISS:     181618
LLC PREFETCH  REQUESTED:          0  ISSUED:          0  USEFUL:       2176  USELESS:     333933
LLC TOTAL MSHR MERGED:       1394
LLC LOAD MSHR MERGED:        433
LLC RFO MSHR MERGED:          0
LLC PREFETCH MSHR MERGED:        961
LLC WRITEBACK MSHR MERGED:          0
LLC TOTAL ACCESSES:    1048901 HITS:     289505 MISSES:     759396
LLC LOAD ACCESSES:     148597 HITS:      90509 MISSES:      58088
LLC RFO ACCESSES:     189655 HITS:       6828 MISSES:     182827
LLC PREFETCH ACCESSES:     489773 HITS:     152910 MISSES:     336863
LLC WRITEBACK ACCESSES:     220876 HITS:      39258 MISSES:     181618
LLC 0 RQ ACCESS:     338252
LLC 0 RQ TO_CACHE:     338240
LLC 0 RQ MERGED:          0
LLC 0 RQ FORWARD:          0
LLC WQ ACCESS:     220876
LLC WQ TO_CACHE:     220876
LLC WQ MERGED:          0
LLC WQ FORWARD:         12
Major fault: 0 Minor fault: 6811
CPU 0 L1D next line prefetcher final stats
CPU 0 L2C PC-based stride prefetcher final stats
All Misses: 897252
All Hits: 357226
SD Algo Stats - Switches: 0 SRR-Repls: 65481 BRR-Repls: 0

DRAM Statistics
 CHANNEL 0
 RQ ROW_BUFFER_HIT:     289568  ROW_BUFFER_MISS:     286744
 DBUS_CONGESTED:     398831
 WQ ROW_BUFFER_HIT:      22207  ROW_BUFFER_MISS:     193807  FULL:          0

 AVG_CONGESTED_CYCLE: 13
LOADS RETIRED: 119922929
INSTR RETIRED: 500000000
