
*** ChampSim Multicore Out-of-Order Simulator ***

Warmup Instructions: 100000000
Simulation Instructions: 500000000
Number of CPUs: 1
LLC sets: 2048
LLC ways: 16
Clean RRIP Policies: 2223230222232302 Dirty RRIP Policies: 2203130222031302 PSEL Width: 10 Track Set: 4294967295 PSEL Mask: 1 Demote Mask: 1000140010001400DS Algo: 0Window size: 0
Off-chip DRAM Size: 4096 MB Channels: 1 Width: 64-bit Data Rate: 1600 MT/s

CPU 0 runs /mnt/beegfs/iconst01/spec2017/Parest.trace.gz
NOT SORTED
TRACE STRING: /mnt/beegfs/iconst01/spec2017/Parest.trace.gz
SORTED
TRACE STRING: /mnt/beegfs/iconst01/spec2017/Parest.trace.gz
INITIAL
TRACE STRING: /mnt/beegfs/iconst01/spec2017/Parest.trace.gz

champsim_seed used: 623

CPU 0 L1D next line prefetcher
CPU 0 L2C IP-based stride prefetcher
Initialize DRRIP state
Assign rand_sets[0]: 454  LLC: 2048
rand_sets[0]: 454
Assign rand_sets[1]: 1662  LLC: 2048
rand_sets[1]: 1662
Assign rand_sets[2]: 1921  LLC: 2048
rand_sets[2]: 1921
Assign rand_sets[3]: 1131  LLC: 2048
rand_sets[3]: 1131
Assign rand_sets[4]: 331  LLC: 2048
rand_sets[4]: 331
Assign rand_sets[5]: 1531  LLC: 2048
rand_sets[5]: 1531
Assign rand_sets[6]: 482  LLC: 2048
rand_sets[6]: 482
Assign rand_sets[7]: 1275  LLC: 2048
rand_sets[7]: 1275
Assign rand_sets[8]: 1876  LLC: 2048
rand_sets[8]: 1876
Assign rand_sets[9]: 2038  LLC: 2048
rand_sets[9]: 2038
Assign rand_sets[10]: 701  LLC: 2048
rand_sets[10]: 701
Assign rand_sets[11]: 479  LLC: 2048
rand_sets[11]: 479
Assign rand_sets[12]: 892  LLC: 2048
rand_sets[12]: 892
Assign rand_sets[13]: 1820  LLC: 2048
rand_sets[13]: 1820
Assign rand_sets[14]: 1505  LLC: 2048
rand_sets[14]: 1505
Assign rand_sets[15]: 1159  LLC: 2048
rand_sets[15]: 1159
Assign rand_sets[16]: 513  LLC: 2048
rand_sets[16]: 513
Assign rand_sets[17]: 703  LLC: 2048
rand_sets[17]: 703
Assign rand_sets[18]: 561  LLC: 2048
rand_sets[18]: 561
Assign rand_sets[19]: 990  LLC: 2048
rand_sets[19]: 990
Assign rand_sets[20]: 342  LLC: 2048
rand_sets[20]: 342
Assign rand_sets[21]: 882  LLC: 2048
rand_sets[21]: 882
Assign rand_sets[22]: 15  LLC: 2048
rand_sets[22]: 15
Assign rand_sets[23]: 71  LLC: 2048
rand_sets[23]: 71
Assign rand_sets[24]: 1127  LLC: 2048
rand_sets[24]: 1127
Assign rand_sets[25]: 1382  LLC: 2048
rand_sets[25]: 1382
Assign rand_sets[26]: 647  LLC: 2048
rand_sets[26]: 647
Assign rand_sets[27]: 857  LLC: 2048
rand_sets[27]: 857
Assign rand_sets[28]: 1450  LLC: 2048
rand_sets[28]: 1450
Assign rand_sets[29]: 1160  LLC: 2048
rand_sets[29]: 1160
Assign rand_sets[30]: 1852  LLC: 2048
rand_sets[30]: 1852
Assign rand_sets[31]: 1881  LLC: 2048
rand_sets[31]: 1881
Assign rand_sets[32]: 1770  LLC: 2048
rand_sets[32]: 1770
Assign rand_sets[33]: 1622  LLC: 2048
rand_sets[33]: 1622
Assign rand_sets[34]: 275  LLC: 2048
rand_sets[34]: 275
Assign rand_sets[35]: 635  LLC: 2048
rand_sets[35]: 635
Assign rand_sets[36]: 466  LLC: 2048
rand_sets[36]: 466
Assign rand_sets[37]: 1413  LLC: 2048
rand_sets[37]: 1413
Assign rand_sets[38]: 417  LLC: 2048
rand_sets[38]: 417
Assign rand_sets[39]: 472  LLC: 2048
rand_sets[39]: 472
Assign rand_sets[40]: 1340  LLC: 2048
rand_sets[40]: 1340
Assign rand_sets[41]: 852  LLC: 2048
rand_sets[41]: 852
Assign rand_sets[42]: 1365  LLC: 2048
rand_sets[42]: 1365
Assign rand_sets[43]: 47  LLC: 2048
rand_sets[43]: 47
Assign rand_sets[44]: 823  LLC: 2048
rand_sets[44]: 823
Assign rand_sets[45]: 686  LLC: 2048
rand_sets[45]: 686
Assign rand_sets[46]: 1637  LLC: 2048
rand_sets[46]: 1637
Assign rand_sets[47]: 1115  LLC: 2048
rand_sets[47]: 1115
Assign rand_sets[48]: 986  LLC: 2048
rand_sets[48]: 986
Assign rand_sets[49]: 258  LLC: 2048
rand_sets[49]: 258
Assign rand_sets[50]: 633  LLC: 2048
rand_sets[50]: 633
Assign rand_sets[51]: 920  LLC: 2048
rand_sets[51]: 920
Assign rand_sets[52]: 204  LLC: 2048
rand_sets[52]: 204
Assign rand_sets[53]: 227  LLC: 2048
rand_sets[53]: 227
Assign rand_sets[54]: 1818  LLC: 2048
rand_sets[54]: 1818
Assign rand_sets[55]: 886  LLC: 2048
rand_sets[55]: 886
Assign rand_sets[56]: 1422  LLC: 2048
rand_sets[56]: 1422
Assign rand_sets[57]: 607  LLC: 2048
rand_sets[57]: 607
Assign rand_sets[58]: 217  LLC: 2048
rand_sets[58]: 217
Assign rand_sets[59]: 1945  LLC: 2048
rand_sets[59]: 1945
Assign rand_sets[60]: 143  LLC: 2048
rand_sets[60]: 143
Assign rand_sets[61]: 1311  LLC: 2048
rand_sets[61]: 1311
Assign rand_sets[62]: 319  LLC: 2048
rand_sets[62]: 319
Assign rand_sets[63]: 1846  LLC: 2048
rand_sets[63]: 1846
 CLEAN-RRIP-POLICY-1: 2-2-2-3-2-3-0-2- CLEAN-RRIP-POLICY-2: 2-2-2-3-2-3-0-2-
 DIRTY-RRIP-POLICY-1: 2-2-0-3-1-3-0-2- DIRTY-RRIP-POLICY-2: 2-2-0-3-1-3-0-2-
 PSEL width: 10
Heartbeat CPU 0 instructions: 10000001 cycles: 4387148 heartbeat IPC: 2.27939 cumulative IPC: 2.27939 (Simulation time: 0 hr 0 min 15 sec) 
Heartbeat CPU 0 instructions: 20000000 cycles: 8781336 heartbeat IPC: 2.27573 cumulative IPC: 2.27756 (Simulation time: 0 hr 0 min 30 sec) 
Heartbeat CPU 0 instructions: 30000003 cycles: 13213281 heartbeat IPC: 2.25635 cumulative IPC: 2.27044 (Simulation time: 0 hr 0 min 45 sec) 
Heartbeat CPU 0 instructions: 40000000 cycles: 17643885 heartbeat IPC: 2.25703 cumulative IPC: 2.26707 (Simulation time: 0 hr 0 min 59 sec) 
Heartbeat CPU 0 instructions: 50000000 cycles: 22052153 heartbeat IPC: 2.26846 cumulative IPC: 2.26735 (Simulation time: 0 hr 1 min 14 sec) 
Heartbeat CPU 0 instructions: 60000000 cycles: 26457890 heartbeat IPC: 2.26977 cumulative IPC: 2.26775 (Simulation time: 0 hr 1 min 28 sec) 
Heartbeat CPU 0 instructions: 70000000 cycles: 30858781 heartbeat IPC: 2.27227 cumulative IPC: 2.2684 (Simulation time: 0 hr 1 min 43 sec) 
Heartbeat CPU 0 instructions: 80000000 cycles: 35254361 heartbeat IPC: 2.27501 cumulative IPC: 2.26922 (Simulation time: 0 hr 1 min 57 sec) 
Heartbeat CPU 0 instructions: 90000000 cycles: 39648668 heartbeat IPC: 2.27567 cumulative IPC: 2.26994 (Simulation time: 0 hr 2 min 12 sec) 
Heartbeat CPU 0 instructions: 100000000 cycles: 44045990 heartbeat IPC: 2.27411 cumulative IPC: 2.27035 (Simulation time: 0 hr 2 min 27 sec) 

Warmup complete CPU 0 instructions: 100000002 cycles: 44046000 (Simulation time: 0 hr 2 min 27 sec) 

Heartbeat CPU 0 instructions: 110000000 cycles: 54490731 heartbeat IPC: 0.95742 cumulative IPC: 0.95742 (Simulation time: 0 hr 2 min 46 sec) 
Heartbeat CPU 0 instructions: 120000000 cycles: 64221830 heartbeat IPC: 1.02763 cumulative IPC: 0.991285 (Simulation time: 0 hr 3 min 5 sec) 
Heartbeat CPU 0 instructions: 130000000 cycles: 73932715 heartbeat IPC: 1.02977 cumulative IPC: 1.00379 (Simulation time: 0 hr 3 min 24 sec) 
Heartbeat CPU 0 instructions: 140000000 cycles: 83797505 heartbeat IPC: 1.01371 cumulative IPC: 1.00625 (Simulation time: 0 hr 3 min 43 sec) 
Heartbeat CPU 0 instructions: 150000002 cycles: 94912324 heartbeat IPC: 0.8997 cumulative IPC: 0.982969 (Simulation time: 0 hr 4 min 2 sec) 
Heartbeat CPU 0 instructions: 160000000 cycles: 105150660 heartbeat IPC: 0.976721 cumulative IPC: 0.981922 (Simulation time: 0 hr 4 min 21 sec) 
Heartbeat CPU 0 instructions: 170000000 cycles: 115241405 heartbeat IPC: 0.991007 cumulative IPC: 0.983209 (Simulation time: 0 hr 4 min 39 sec) 
Heartbeat CPU 0 instructions: 180000000 cycles: 125293299 heartbeat IPC: 0.994837 cumulative IPC: 0.984648 (Simulation time: 0 hr 4 min 58 sec) 
Heartbeat CPU 0 instructions: 190000002 cycles: 135419891 heartbeat IPC: 0.987499 cumulative IPC: 0.984964 (Simulation time: 0 hr 5 min 17 sec) 
Heartbeat CPU 0 instructions: 200000000 cycles: 145129530 heartbeat IPC: 1.0299 cumulative IPC: 0.989281 (Simulation time: 0 hr 5 min 36 sec) 
Heartbeat CPU 0 instructions: 210000000 cycles: 155139295 heartbeat IPC: 0.999024 cumulative IPC: 0.990159 (Simulation time: 0 hr 5 min 54 sec) 
Heartbeat CPU 0 instructions: 220000000 cycles: 164638935 heartbeat IPC: 1.05267 cumulative IPC: 0.995083 (Simulation time: 0 hr 6 min 13 sec) 
Heartbeat CPU 0 instructions: 230000001 cycles: 177044399 heartbeat IPC: 0.806096 cumulative IPC: 0.977455 (Simulation time: 0 hr 6 min 34 sec) 
Heartbeat CPU 0 instructions: 240000000 cycles: 187914573 heartbeat IPC: 0.919948 cumulative IPC: 0.97311 (Simulation time: 0 hr 6 min 53 sec) 
Heartbeat CPU 0 instructions: 250000002 cycles: 198158992 heartbeat IPC: 0.976141 cumulative IPC: 0.973312 (Simulation time: 0 hr 7 min 12 sec) 
Heartbeat CPU 0 instructions: 260000000 cycles: 208149796 heartbeat IPC: 1.00092 cumulative IPC: 0.974993 (Simulation time: 0 hr 7 min 30 sec) 
Heartbeat CPU 0 instructions: 270000001 cycles: 218001171 heartbeat IPC: 1.01509 cumulative IPC: 0.977263 (Simulation time: 0 hr 7 min 49 sec) 
Heartbeat CPU 0 instructions: 280000000 cycles: 228064256 heartbeat IPC: 0.993731 cumulative IPC: 0.978164 (Simulation time: 0 hr 8 min 8 sec) 
Heartbeat CPU 0 instructions: 290000002 cycles: 237550527 heartbeat IPC: 1.05416 cumulative IPC: 0.981889 (Simulation time: 0 hr 8 min 26 sec) 
Heartbeat CPU 0 instructions: 300000000 cycles: 247427487 heartbeat IPC: 1.01246 cumulative IPC: 0.983374 (Simulation time: 0 hr 8 min 45 sec) 
Heartbeat CPU 0 instructions: 310000000 cycles: 256855958 heartbeat IPC: 1.06062 cumulative IPC: 0.986796 (Simulation time: 0 hr 9 min 4 sec) 
Heartbeat CPU 0 instructions: 320000000 cycles: 266318138 heartbeat IPC: 1.05684 cumulative IPC: 0.989778 (Simulation time: 0 hr 9 min 22 sec) 
Heartbeat CPU 0 instructions: 330000003 cycles: 275899039 heartbeat IPC: 1.04374 cumulative IPC: 0.992008 (Simulation time: 0 hr 9 min 41 sec) 
Heartbeat CPU 0 instructions: 340000000 cycles: 286029422 heartbeat IPC: 0.987129 cumulative IPC: 0.991803 (Simulation time: 0 hr 10 min 0 sec) 
Heartbeat CPU 0 instructions: 350000000 cycles: 296276280 heartbeat IPC: 0.975909 cumulative IPC: 0.991158 (Simulation time: 0 hr 10 min 19 sec) 
Heartbeat CPU 0 instructions: 360000000 cycles: 306168429 heartbeat IPC: 1.0109 cumulative IPC: 0.991903 (Simulation time: 0 hr 10 min 37 sec) 
Heartbeat CPU 0 instructions: 370000000 cycles: 315869465 heartbeat IPC: 1.03082 cumulative IPC: 0.993292 (Simulation time: 0 hr 10 min 56 sec) 
Heartbeat CPU 0 instructions: 380000000 cycles: 325491979 heartbeat IPC: 1.03923 cumulative IPC: 0.994862 (Simulation time: 0 hr 11 min 14 sec) 
Heartbeat CPU 0 instructions: 390000002 cycles: 334982951 heartbeat IPC: 1.05363 cumulative IPC: 0.99678 (Simulation time: 0 hr 11 min 33 sec) 
Heartbeat CPU 0 instructions: 400000000 cycles: 344812704 heartbeat IPC: 1.01732 cumulative IPC: 0.997451 (Simulation time: 0 hr 11 min 52 sec) 
Heartbeat CPU 0 instructions: 410000000 cycles: 354193661 heartbeat IPC: 1.06599 cumulative IPC: 0.999524 (Simulation time: 0 hr 12 min 10 sec) 
Heartbeat CPU 0 instructions: 420000000 cycles: 365382389 heartbeat IPC: 0.893757 cumulative IPC: 0.995841 (Simulation time: 0 hr 12 min 30 sec) 
Heartbeat CPU 0 instructions: 430000000 cycles: 376674714 heartbeat IPC: 0.885557 cumulative IPC: 0.992097 (Simulation time: 0 hr 12 min 49 sec) 
Heartbeat CPU 0 instructions: 440000000 cycles: 387062016 heartbeat IPC: 0.962714 cumulative IPC: 0.991207 (Simulation time: 0 hr 13 min 8 sec) 
Heartbeat CPU 0 instructions: 450000000 cycles: 397339371 heartbeat IPC: 0.973013 cumulative IPC: 0.990678 (Simulation time: 0 hr 13 min 27 sec) 
Heartbeat CPU 0 instructions: 460000000 cycles: 407532312 heartbeat IPC: 0.981071 cumulative IPC: 0.990409 (Simulation time: 0 hr 13 min 46 sec) 
Heartbeat CPU 0 instructions: 470000002 cycles: 417706408 heartbeat IPC: 0.982889 cumulative IPC: 0.990204 (Simulation time: 0 hr 14 min 4 sec) 
Heartbeat CPU 0 instructions: 480000000 cycles: 427365720 heartbeat IPC: 1.03527 cumulative IPC: 0.99134 (Simulation time: 0 hr 14 min 23 sec) 
Heartbeat CPU 0 instructions: 490000000 cycles: 437407392 heartbeat IPC: 0.99585 cumulative IPC: 0.991455 (Simulation time: 0 hr 14 min 42 sec) 
Heartbeat CPU 0 instructions: 500000000 cycles: 447131280 heartbeat IPC: 1.0284 cumulative IPC: 0.992346 (Simulation time: 0 hr 15 min 1 sec) 
Heartbeat CPU 0 instructions: 510000000 cycles: 456660446 heartbeat IPC: 1.04941 cumulative IPC: 0.993664 (Simulation time: 0 hr 15 min 20 sec) 
Heartbeat CPU 0 instructions: 520000000 cycles: 466370037 heartbeat IPC: 1.02991 cumulative IPC: 0.994497 (Simulation time: 0 hr 15 min 38 sec) 
Heartbeat CPU 0 instructions: 530000001 cycles: 476748203 heartbeat IPC: 0.963561 cumulative IPC: 0.993755 (Simulation time: 0 hr 15 min 58 sec) 
Heartbeat CPU 0 instructions: 540000000 cycles: 487158880 heartbeat IPC: 0.960552 cumulative IPC: 0.992975 (Simulation time: 0 hr 16 min 16 sec) 
Heartbeat CPU 0 instructions: 550000003 cycles: 497242767 heartbeat IPC: 0.991681 cumulative IPC: 0.992946 (Simulation time: 0 hr 16 min 34 sec) 
Heartbeat CPU 0 instructions: 560000000 cycles: 507129971 heartbeat IPC: 1.01141 cumulative IPC: 0.99334 (Simulation time: 0 hr 16 min 53 sec) 
Heartbeat CPU 0 instructions: 570000002 cycles: 516933551 heartbeat IPC: 1.02004 cumulative IPC: 0.993894 (Simulation time: 0 hr 17 min 11 sec) 
Heartbeat CPU 0 instructions: 580000000 cycles: 526618755 heartbeat IPC: 1.0325 cumulative IPC: 0.994669 (Simulation time: 0 hr 17 min 29 sec) 
Heartbeat CPU 0 instructions: 590000001 cycles: 536560953 heartbeat IPC: 1.00581 cumulative IPC: 0.994894 (Simulation time: 0 hr 17 min 47 sec) 
Heartbeat CPU 0 instructions: 600000000 cycles: 546188982 heartbeat IPC: 1.03863 cumulative IPC: 0.995732 (Simulation time: 0 hr 18 min 6 sec) 
Finished CPU 0 instructions: 500000000 cycles: 502142996 cumulative IPC: 0.995732 (Simulation time: 0 hr 18 min 6 sec) 

CPU 0 Branch Prediction Accuracy: 97.8526% MPKI: 2.66709
Number of Branches: 62099103 Number of Mispredictions: 1333545
Number of LOAD Instructions: 210576465
Number of LOAD Instructions (ROI): 210576465
Number of STORE Instructions: 16915507
Number of STORE Instructions (ROI): 16915507
Total Destination Memory Operands: 16918869
Total Destination Memory Operands (ROI): 16918869
Total Source Memory Operands: 210576465
Total Source Memory Operands (ROI): 210576465
Number of DEPENDED LOADS: 341887
Number of DEPENDED LOADS (ROI): 341887
Number of SQ_ADDED: 16918826
Number of SQ_ADDED (ROI): 16918826
Number of LQ_ADDED: 210608695
Number of LQ_ADDED (ROI): 210608695
Number of Instructions read from trace: 600000257

ChampSim completed all CPUs

Region of Interest Statistics

CPU 0 cumulative IPC: 0.995732 instructions: 500000000 cycles: 502142996
ITLB TOTAL     ACCESS:   76299721  HIT:   76299683  MISS:         38
ITLB LOAD      ACCESS:   76299721  HIT:   76299683  MISS:         38
ITLB RFO       ACCESS:          0  HIT:          0  MISS:          0
ITLB PREFETCH  ACCESS:          0  HIT:          0  MISS:          0
ITLB WRITEBACK ACCESS:          0  HIT:          0  MISS:          0
ITLB PREFETCH  REQUESTED:          0  ISSUED:          0  USEFUL:          0  USELESS:          0
ITLB TOTAL MSHR MERGED:         37
ITLB LOAD MSHR MERGED:         37
ITLB RFO MSHR MERGED:          0
ITLB PREFETCH MSHR MERGED:          0
ITLB WRITEBACK MSHR MERGED:          0
ITLB TOTAL ACCESSES:   76299758 HITS:   76299683 MISSES:         75
ITLB LOAD ACCESSES:   76299758 HITS:   76299683 MISSES:         75
ITLB RFO ACCESSES:          0 HITS:          0 MISSES:          0
ITLB PREFETCH ACCESSES:          0 HITS:          0 MISSES:          0
ITLB WRITEBACK ACCESSES:          0 HITS:          0 MISSES:          0
ITLB RQ ACCESS:  500000188
ITLB RQ TO_CACHE:   76299759
ITLB RQ MERGED:  423700429
ITLB RQ FORWARD:          0
ITLB WQ ACCESS:          0
ITLB WQ TO_CACHE:          0
ITLB WQ MERGED:          0
ITLB WQ FORWARD:          0
DTLB TOTAL     ACCESS:  136827675  HIT:  136624877  MISS:     202798
DTLB LOAD      ACCESS:  128765654  HIT:  128565577  MISS:     200077
DTLB RFO       ACCESS:    8062021  HIT:    8059300  MISS:       2721
DTLB PREFETCH  ACCESS:          0  HIT:          0  MISS:          0
DTLB WRITEBACK ACCESS:          0  HIT:          0  MISS:          0
DTLB PREFETCH  REQUESTED:          0  ISSUED:          0  USEFUL:          0  USELESS:          0
DTLB TOTAL MSHR MERGED:     446780
DTLB LOAD MSHR MERGED:     443134
DTLB RFO MSHR MERGED:       3646
DTLB PREFETCH MSHR MERGED:          0
DTLB WRITEBACK MSHR MERGED:          0
DTLB TOTAL ACCESSES:  137274455 HITS:  136624877 MISSES:     649578
DTLB LOAD ACCESSES:  129208788 HITS:  128565577 MISSES:     643211
DTLB RFO ACCESSES:    8065667 HITS:    8059300 MISSES:       6367
DTLB PREFETCH ACCESSES:          0 HITS:          0 MISSES:          0
DTLB WRITEBACK ACCESSES:          0 HITS:          0 MISSES:          0
DTLB RQ ACCESS:  189422685
DTLB RQ TO_CACHE:  137274455
DTLB RQ MERGED:   52148230
DTLB RQ FORWARD:          0
DTLB WQ ACCESS:          0
DTLB WQ TO_CACHE:          0
DTLB WQ MERGED:          0
DTLB WQ FORWARD:          0
L1D TOTAL     ACCESS:  125408462  HIT:  107851612  MISS:   17556850
L1D LOAD      ACCESS:   72295949  HIT:   62015144  MISS:   10280805
L1D RFO       ACCESS:   14013266  HIT:   13860430  MISS:     152836
L1D PREFETCH  ACCESS:   39099247  HIT:   31976038  MISS:    7123209
L1D WRITEBACK ACCESS:          0  HIT:          0  MISS:          0
L1D PREFETCH  REQUESTED:   85606720  ISSUED:   84284645  USEFUL:    5863932  USELESS:    1259288
L1D TOTAL MSHR MERGED:   31711605
L1D LOAD MSHR MERGED:   18493170
L1D RFO MSHR MERGED:     266578
L1D PREFETCH MSHR MERGED:   12951857
L1D WRITEBACK MSHR MERGED:          0
L1D TOTAL ACCESSES:  157120589 HITS:  107852135 MISSES:   49268454
L1D LOAD ACCESSES:   85606738 HITS:   62015162 MISSES:   23591576
L1D RFO ACCESSES:   14279819 HITS:   13860430 MISSES:     419389
L1D PREFETCH ACCESSES:   57234032 HITS:   31976543 MISSES:   25257489
L1D WRITEBACK ACCESSES:          0 HITS:          0 MISSES:          0
L1D RQ ACCESS:  175133663
L1D RQ TO_CACHE:   85606720
L1D RQ MERGED:   89526925
L1D RQ FORWARD:          0
L1D WQ ACCESS:   14289037
L1D WQ TO_CACHE:   14279819
L1D WQ MERGED:       9218
L1D WQ FORWARD:        523
L1I TOTAL     ACCESS:   93321120  HIT:   93319324  MISS:       1796
L1I LOAD      ACCESS:   93321120  HIT:   93319324  MISS:       1796
L1I RFO       ACCESS:          0  HIT:          0  MISS:          0
L1I PREFETCH  ACCESS:          0  HIT:          0  MISS:          0
L1I WRITEBACK ACCESS:          0  HIT:          0  MISS:          0
L1I PREFETCH  REQUESTED:          0  ISSUED:          0  USEFUL:          0  USELESS:          0
L1I TOTAL MSHR MERGED:       2303
L1I LOAD MSHR MERGED:       2303
L1I RFO MSHR MERGED:          0
L1I PREFETCH MSHR MERGED:          0
L1I WRITEBACK MSHR MERGED:          0
L1I TOTAL ACCESSES:   93323423 HITS:   93319324 MISSES:       4099
L1I LOAD ACCESSES:   93323423 HITS:   93319324 MISSES:       4099
L1I RFO ACCESSES:          0 HITS:          0 MISSES:          0
L1I PREFETCH ACCESSES:          0 HITS:          0 MISSES:          0
L1I WRITEBACK ACCESSES:          0 HITS:          0 MISSES:          0
L1I RQ ACCESS:  500000187
L1I RQ TO_CACHE:   93323423
L1I RQ MERGED:  406676764
L1I RQ FORWARD:          0
L1I WQ ACCESS:          0
L1I WQ TO_CACHE:          0
L1I WQ MERGED:          0
L1I WQ FORWARD:          0
L2C TOTAL     ACCESS:   20892187  HIT:    8663539  MISS:   12228648
L2C LOAD      ACCESS:    5100183  HIT:    2140907  MISS:    2959276
L2C RFO       ACCESS:     152811  HIT:       6509  MISS:     146302
L2C PREFETCH  ACCESS:   13866438  HIT:    4743477  MISS:    9122961
L2C WRITEBACK ACCESS:    1772755  HIT:    1772646  MISS:        109
L2C PREFETCH  REQUESTED:    1800476  ISSUED:    1800476  USEFUL:    1067081  USELESS:    8057499
L2C TOTAL MSHR MERGED:      98107
L2C LOAD MSHR MERGED:      22972
L2C RFO MSHR MERGED:          0
L2C PREFETCH MSHR MERGED:      75135
L2C WRITEBACK MSHR MERGED:          0
L2C TOTAL ACCESSES:   21015873 HITS:    8663570 MISSES:   12352303
L2C LOAD ACCESSES:    5100202 HITS:    2140926 MISSES:    2959276
L2C RFO ACCESSES:     152811 HITS:       6509 MISSES:     146302
L2C PREFETCH ACCESSES:   13990105 HITS:    4743489 MISSES:    9246616
L2C WRITEBACK ACCESSES:    1772755 HITS:    1772646 MISSES:        109
L2C RQ ACCESS:    5253013
L2C RQ TO_CACHE:    5252994
L2C RQ MERGED:          0
L2C RQ FORWARD:          0
L2C WQ ACCESS:    1772755
L2C WQ TO_CACHE:    1772755
L2C WQ MERGED:          0
L2C WQ FORWARD:         31
LLC TOTAL     ACCESS:   12533890  HIT:    6317535  MISS:    6216355
LLC LOAD      ACCESS:    2936288  HIT:    2382553  MISS:     553735
LLC RFO       ACCESS:     146302  HIT:      63961  MISS:      82341
LLC PREFETCH  ACCESS:    9165318  HIT:    3660656  MISS:    5504662
LLC WRITEBACK ACCESS:     285982  HIT:     210365  MISS:      75617
LLC PREFETCH  REQUESTED:          0  ISSUED:          0  USEFUL:      12470  USELESS:    5492188
LLC TOTAL MSHR MERGED:       1853
LLC LOAD MSHR MERGED:        443
LLC RFO MSHR MERGED:          0
LLC PREFETCH MSHR MERGED:       1410
LLC WRITEBACK MSHR MERGED:          0
LLC TOTAL ACCESSES:   12535771 HITS:    6317563 MISSES:    6218208
LLC LOAD ACCESSES:    2936304 HITS:    2382569 MISSES:     553735
LLC RFO ACCESSES:     146302 HITS:      63961 MISSES:      82341
LLC PREFETCH ACCESSES:    9167183 HITS:    3660668 MISSES:    5506515
LLC WRITEBACK ACCESSES:     285982 HITS:     210365 MISSES:      75617
LLC 0 RQ ACCESS:    3082606
LLC 0 RQ TO_CACHE:    3082590
LLC 0 RQ MERGED:          0
LLC 0 RQ FORWARD:          0
LLC WQ ACCESS:     285982
LLC WQ TO_CACHE:     285982
LLC WQ MERGED:          0
LLC WQ FORWARD:         28
Major fault: 0 Minor fault: 6524
CPU 0 L1D next line prefetcher final stats
CPU 0 L2C PC-based stride prefetcher final stats
All Misses: 8022661
All Hits: 7036243
SD Algo Stats - Switches: 0 SRR-Repls: 582171 BRR-Repls: 0

DRAM Statistics
 CHANNEL 0
 RQ ROW_BUFFER_HIT:    5255212  ROW_BUFFER_MISS:     872807
 DBUS_CONGESTED:    2169955
 WQ ROW_BUFFER_HIT:      22352  ROW_BUFFER_MISS:      98419  FULL:          0

 AVG_CONGESTED_CYCLE: 12
LOADS RETIRED: 175418235
INSTR RETIRED: 500000000
