
*** ChampSim Multicore Out-of-Order Simulator ***

Warmup Instructions: 100000000
Simulation Instructions: 500000000
Number of CPUs: 1
LLC sets: 2048
LLC ways: 16
Clean RRIP Policies: 2213230222132302 Dirty RRIP Policies: 1203130212031302 PSEL Width: 10 Track Set: 4294967295 PSEL Mask: 1 Demote Mask: 2240100022401000DS Algo: 0Window size: 0
Off-chip DRAM Size: 4096 MB Channels: 1 Width: 64-bit Data Rate: 1600 MT/s

CPU 0 runs /mnt/beegfs/iconst01/spec2017/cactuBSSN.trace.gz
NOT SORTED
TRACE STRING: /mnt/beegfs/iconst01/spec2017/cactuBSSN.trace.gz
SORTED
TRACE STRING: /mnt/beegfs/iconst01/spec2017/cactuBSSN.trace.gz
INITIAL
TRACE STRING: /mnt/beegfs/iconst01/spec2017/cactuBSSN.trace.gz

champsim_seed used: 838

CPU 0 L1D next line prefetcher
CPU 0 L2C IP-based stride prefetcher
Initialize DRRIP state
Assign rand_sets[0]: 454  LLC: 2048
rand_sets[0]: 454
Assign rand_sets[1]: 1662  LLC: 2048
rand_sets[1]: 1662
Assign rand_sets[2]: 1921  LLC: 2048
rand_sets[2]: 1921
Assign rand_sets[3]: 1131  LLC: 2048
rand_sets[3]: 1131
Assign rand_sets[4]: 331  LLC: 2048
rand_sets[4]: 331
Assign rand_sets[5]: 1531  LLC: 2048
rand_sets[5]: 1531
Assign rand_sets[6]: 482  LLC: 2048
rand_sets[6]: 482
Assign rand_sets[7]: 1275  LLC: 2048
rand_sets[7]: 1275
Assign rand_sets[8]: 1876  LLC: 2048
rand_sets[8]: 1876
Assign rand_sets[9]: 2038  LLC: 2048
rand_sets[9]: 2038
Assign rand_sets[10]: 701  LLC: 2048
rand_sets[10]: 701
Assign rand_sets[11]: 479  LLC: 2048
rand_sets[11]: 479
Assign rand_sets[12]: 892  LLC: 2048
rand_sets[12]: 892
Assign rand_sets[13]: 1820  LLC: 2048
rand_sets[13]: 1820
Assign rand_sets[14]: 1505  LLC: 2048
rand_sets[14]: 1505
Assign rand_sets[15]: 1159  LLC: 2048
rand_sets[15]: 1159
Assign rand_sets[16]: 513  LLC: 2048
rand_sets[16]: 513
Assign rand_sets[17]: 703  LLC: 2048
rand_sets[17]: 703
Assign rand_sets[18]: 561  LLC: 2048
rand_sets[18]: 561
Assign rand_sets[19]: 990  LLC: 2048
rand_sets[19]: 990
Assign rand_sets[20]: 342  LLC: 2048
rand_sets[20]: 342
Assign rand_sets[21]: 882  LLC: 2048
rand_sets[21]: 882
Assign rand_sets[22]: 15  LLC: 2048
rand_sets[22]: 15
Assign rand_sets[23]: 71  LLC: 2048
rand_sets[23]: 71
Assign rand_sets[24]: 1127  LLC: 2048
rand_sets[24]: 1127
Assign rand_sets[25]: 1382  LLC: 2048
rand_sets[25]: 1382
Assign rand_sets[26]: 647  LLC: 2048
rand_sets[26]: 647
Assign rand_sets[27]: 857  LLC: 2048
rand_sets[27]: 857
Assign rand_sets[28]: 1450  LLC: 2048
rand_sets[28]: 1450
Assign rand_sets[29]: 1160  LLC: 2048
rand_sets[29]: 1160
Assign rand_sets[30]: 1852  LLC: 2048
rand_sets[30]: 1852
Assign rand_sets[31]: 1881  LLC: 2048
rand_sets[31]: 1881
Assign rand_sets[32]: 1770  LLC: 2048
rand_sets[32]: 1770
Assign rand_sets[33]: 1622  LLC: 2048
rand_sets[33]: 1622
Assign rand_sets[34]: 275  LLC: 2048
rand_sets[34]: 275
Assign rand_sets[35]: 635  LLC: 2048
rand_sets[35]: 635
Assign rand_sets[36]: 466  LLC: 2048
rand_sets[36]: 466
Assign rand_sets[37]: 1413  LLC: 2048
rand_sets[37]: 1413
Assign rand_sets[38]: 417  LLC: 2048
rand_sets[38]: 417
Assign rand_sets[39]: 472  LLC: 2048
rand_sets[39]: 472
Assign rand_sets[40]: 1340  LLC: 2048
rand_sets[40]: 1340
Assign rand_sets[41]: 852  LLC: 2048
rand_sets[41]: 852
Assign rand_sets[42]: 1365  LLC: 2048
rand_sets[42]: 1365
Assign rand_sets[43]: 47  LLC: 2048
rand_sets[43]: 47
Assign rand_sets[44]: 823  LLC: 2048
rand_sets[44]: 823
Assign rand_sets[45]: 686  LLC: 2048
rand_sets[45]: 686
Assign rand_sets[46]: 1637  LLC: 2048
rand_sets[46]: 1637
Assign rand_sets[47]: 1115  LLC: 2048
rand_sets[47]: 1115
Assign rand_sets[48]: 986  LLC: 2048
rand_sets[48]: 986
Assign rand_sets[49]: 258  LLC: 2048
rand_sets[49]: 258
Assign rand_sets[50]: 633  LLC: 2048
rand_sets[50]: 633
Assign rand_sets[51]: 920  LLC: 2048
rand_sets[51]: 920
Assign rand_sets[52]: 204  LLC: 2048
rand_sets[52]: 204
Assign rand_sets[53]: 227  LLC: 2048
rand_sets[53]: 227
Assign rand_sets[54]: 1818  LLC: 2048
rand_sets[54]: 1818
Assign rand_sets[55]: 886  LLC: 2048
rand_sets[55]: 886
Assign rand_sets[56]: 1422  LLC: 2048
rand_sets[56]: 1422
Assign rand_sets[57]: 607  LLC: 2048
rand_sets[57]: 607
Assign rand_sets[58]: 217  LLC: 2048
rand_sets[58]: 217
Assign rand_sets[59]: 1945  LLC: 2048
rand_sets[59]: 1945
Assign rand_sets[60]: 143  LLC: 2048
rand_sets[60]: 143
Assign rand_sets[61]: 1311  LLC: 2048
rand_sets[61]: 1311
Assign rand_sets[62]: 319  LLC: 2048
rand_sets[62]: 319
Assign rand_sets[63]: 1846  LLC: 2048
rand_sets[63]: 1846
 CLEAN-RRIP-POLICY-1: 2-2-1-3-2-3-0-2- CLEAN-RRIP-POLICY-2: 2-2-1-3-2-3-0-2-
 DIRTY-RRIP-POLICY-1: 1-2-0-3-1-3-0-2- DIRTY-RRIP-POLICY-2: 1-2-0-3-1-3-0-2-
 PSEL width: 10
Heartbeat CPU 0 instructions: 10000000 cycles: 6588002 heartbeat IPC: 1.51791 cumulative IPC: 1.51791 (Simulation time: 0 hr 0 min 25 sec) 
Heartbeat CPU 0 instructions: 20000000 cycles: 13179589 heartbeat IPC: 1.51709 cumulative IPC: 1.5175 (Simulation time: 0 hr 0 min 50 sec) 
Heartbeat CPU 0 instructions: 30000003 cycles: 19772908 heartbeat IPC: 1.51669 cumulative IPC: 1.51723 (Simulation time: 0 hr 1 min 15 sec) 
Heartbeat CPU 0 instructions: 40000000 cycles: 26364651 heartbeat IPC: 1.51705 cumulative IPC: 1.51718 (Simulation time: 0 hr 1 min 40 sec) 
Heartbeat CPU 0 instructions: 50000001 cycles: 32957343 heartbeat IPC: 1.51683 cumulative IPC: 1.51711 (Simulation time: 0 hr 2 min 5 sec) 
Heartbeat CPU 0 instructions: 60000000 cycles: 39556187 heartbeat IPC: 1.51542 cumulative IPC: 1.51683 (Simulation time: 0 hr 2 min 30 sec) 
Heartbeat CPU 0 instructions: 70000003 cycles: 46154569 heartbeat IPC: 1.51552 cumulative IPC: 1.51664 (Simulation time: 0 hr 2 min 55 sec) 
Heartbeat CPU 0 instructions: 80000000 cycles: 52752636 heartbeat IPC: 1.51559 cumulative IPC: 1.51651 (Simulation time: 0 hr 3 min 21 sec) 
Heartbeat CPU 0 instructions: 90000002 cycles: 59348337 heartbeat IPC: 1.51614 cumulative IPC: 1.51647 (Simulation time: 0 hr 3 min 46 sec) 
Heartbeat CPU 0 instructions: 100000000 cycles: 65943446 heartbeat IPC: 1.51627 cumulative IPC: 1.51645 (Simulation time: 0 hr 4 min 11 sec) 

Warmup complete CPU 0 instructions: 100000002 cycles: 65943447 (Simulation time: 0 hr 4 min 11 sec) 

Heartbeat CPU 0 instructions: 110000000 cycles: 79187075 heartbeat IPC: 0.75508 cumulative IPC: 0.75508 (Simulation time: 0 hr 4 min 42 sec) 
Heartbeat CPU 0 instructions: 120000000 cycles: 92388086 heartbeat IPC: 0.757518 cumulative IPC: 0.756297 (Simulation time: 0 hr 5 min 14 sec) 
Heartbeat CPU 0 instructions: 130000001 cycles: 105658000 heartbeat IPC: 0.753584 cumulative IPC: 0.755391 (Simulation time: 0 hr 5 min 45 sec) 
Heartbeat CPU 0 instructions: 140000000 cycles: 118830086 heartbeat IPC: 0.759181 cumulative IPC: 0.756335 (Simulation time: 0 hr 6 min 16 sec) 
Heartbeat CPU 0 instructions: 150000001 cycles: 132023948 heartbeat IPC: 0.757928 cumulative IPC: 0.756653 (Simulation time: 0 hr 6 min 47 sec) 
Heartbeat CPU 0 instructions: 160000000 cycles: 145261411 heartbeat IPC: 0.755432 cumulative IPC: 0.756449 (Simulation time: 0 hr 7 min 18 sec) 
Heartbeat CPU 0 instructions: 170000000 cycles: 158487537 heartbeat IPC: 0.756079 cumulative IPC: 0.756396 (Simulation time: 0 hr 7 min 49 sec) 
Heartbeat CPU 0 instructions: 180000000 cycles: 171691722 heartbeat IPC: 0.757336 cumulative IPC: 0.756513 (Simulation time: 0 hr 8 min 20 sec) 
Heartbeat CPU 0 instructions: 190000000 cycles: 184851705 heartbeat IPC: 0.759879 cumulative IPC: 0.756886 (Simulation time: 0 hr 8 min 51 sec) 
Heartbeat CPU 0 instructions: 200000000 cycles: 198114411 heartbeat IPC: 0.753994 cumulative IPC: 0.756596 (Simulation time: 0 hr 9 min 22 sec) 
Heartbeat CPU 0 instructions: 210000002 cycles: 211329390 heartbeat IPC: 0.756717 cumulative IPC: 0.756607 (Simulation time: 0 hr 9 min 53 sec) 
Heartbeat CPU 0 instructions: 220000000 cycles: 224508227 heartbeat IPC: 0.758792 cumulative IPC: 0.756788 (Simulation time: 0 hr 10 min 24 sec) 
Heartbeat CPU 0 instructions: 230000003 cycles: 237757639 heartbeat IPC: 0.754751 cumulative IPC: 0.756631 (Simulation time: 0 hr 10 min 55 sec) 
Heartbeat CPU 0 instructions: 240000000 cycles: 250943614 heartbeat IPC: 0.758381 cumulative IPC: 0.756756 (Simulation time: 0 hr 11 min 26 sec) 
Heartbeat CPU 0 instructions: 250000001 cycles: 264163194 heartbeat IPC: 0.756454 cumulative IPC: 0.756736 (Simulation time: 0 hr 11 min 57 sec) 
Heartbeat CPU 0 instructions: 260000000 cycles: 277372447 heartbeat IPC: 0.757045 cumulative IPC: 0.756755 (Simulation time: 0 hr 12 min 28 sec) 
Heartbeat CPU 0 instructions: 270000003 cycles: 290620954 heartbeat IPC: 0.754802 cumulative IPC: 0.75664 (Simulation time: 0 hr 12 min 59 sec) 
Heartbeat CPU 0 instructions: 280000000 cycles: 303828295 heartbeat IPC: 0.757154 cumulative IPC: 0.756669 (Simulation time: 0 hr 13 min 29 sec) 
Heartbeat CPU 0 instructions: 290000000 cycles: 316999262 heartbeat IPC: 0.759246 cumulative IPC: 0.756804 (Simulation time: 0 hr 14 min 0 sec) 
Heartbeat CPU 0 instructions: 300000000 cycles: 330264977 heartbeat IPC: 0.753823 cumulative IPC: 0.756654 (Simulation time: 0 hr 14 min 30 sec) 
Heartbeat CPU 0 instructions: 310000001 cycles: 343446843 heartbeat IPC: 0.758618 cumulative IPC: 0.756747 (Simulation time: 0 hr 15 min 0 sec) 
Heartbeat CPU 0 instructions: 320000000 cycles: 356645363 heartbeat IPC: 0.757661 cumulative IPC: 0.756789 (Simulation time: 0 hr 15 min 31 sec) 
Heartbeat CPU 0 instructions: 330000002 cycles: 369846796 heartbeat IPC: 0.757494 cumulative IPC: 0.75682 (Simulation time: 0 hr 16 min 1 sec) 
Heartbeat CPU 0 instructions: 340000000 cycles: 383088756 heartbeat IPC: 0.755175 cumulative IPC: 0.756751 (Simulation time: 0 hr 16 min 31 sec) 
Heartbeat CPU 0 instructions: 350000000 cycles: 396343696 heartbeat IPC: 0.754436 cumulative IPC: 0.756658 (Simulation time: 0 hr 17 min 1 sec) 
Heartbeat CPU 0 instructions: 360000000 cycles: 409563811 heartbeat IPC: 0.756423 cumulative IPC: 0.756649 (Simulation time: 0 hr 17 min 31 sec) 
Heartbeat CPU 0 instructions: 370000002 cycles: 422838099 heartbeat IPC: 0.753336 cumulative IPC: 0.756526 (Simulation time: 0 hr 18 min 1 sec) 
Heartbeat CPU 0 instructions: 380000000 cycles: 436049087 heartbeat IPC: 0.756945 cumulative IPC: 0.756541 (Simulation time: 0 hr 18 min 31 sec) 
Heartbeat CPU 0 instructions: 390000000 cycles: 449229015 heartbeat IPC: 0.758729 cumulative IPC: 0.756616 (Simulation time: 0 hr 19 min 0 sec) 
Heartbeat CPU 0 instructions: 400000000 cycles: 462431048 heartbeat IPC: 0.757459 cumulative IPC: 0.756644 (Simulation time: 0 hr 19 min 30 sec) 
Heartbeat CPU 0 instructions: 410000001 cycles: 475691795 heartbeat IPC: 0.754105 cumulative IPC: 0.756562 (Simulation time: 0 hr 20 min 0 sec) 
Heartbeat CPU 0 instructions: 420000000 cycles: 488869594 heartbeat IPC: 0.758852 cumulative IPC: 0.756633 (Simulation time: 0 hr 20 min 29 sec) 
Heartbeat CPU 0 instructions: 430000001 cycles: 502053853 heartbeat IPC: 0.75848 cumulative IPC: 0.756689 (Simulation time: 0 hr 20 min 59 sec) 
Heartbeat CPU 0 instructions: 440000000 cycles: 515224744 heartbeat IPC: 0.75925 cumulative IPC: 0.756764 (Simulation time: 0 hr 21 min 29 sec) 
Heartbeat CPU 0 instructions: 450000002 cycles: 528535122 heartbeat IPC: 0.751294 cumulative IPC: 0.756607 (Simulation time: 0 hr 21 min 58 sec) 
Heartbeat CPU 0 instructions: 460000000 cycles: 541751032 heartbeat IPC: 0.756664 cumulative IPC: 0.756608 (Simulation time: 0 hr 22 min 28 sec) 
Heartbeat CPU 0 instructions: 470000003 cycles: 554947867 heartbeat IPC: 0.757758 cumulative IPC: 0.756639 (Simulation time: 0 hr 22 min 58 sec) 
Heartbeat CPU 0 instructions: 480000000 cycles: 568192546 heartbeat IPC: 0.75502 cumulative IPC: 0.756597 (Simulation time: 0 hr 23 min 28 sec) 
Heartbeat CPU 0 instructions: 490000000 cycles: 581412450 heartbeat IPC: 0.756435 cumulative IPC: 0.756593 (Simulation time: 0 hr 23 min 57 sec) 
Heartbeat CPU 0 instructions: 500000000 cycles: 594609634 heartbeat IPC: 0.757737 cumulative IPC: 0.756621 (Simulation time: 0 hr 24 min 27 sec) 
Heartbeat CPU 0 instructions: 510000001 cycles: 607788488 heartbeat IPC: 0.758791 cumulative IPC: 0.756674 (Simulation time: 0 hr 24 min 57 sec) 
Heartbeat CPU 0 instructions: 520000000 cycles: 621084540 heartbeat IPC: 0.752103 cumulative IPC: 0.756564 (Simulation time: 0 hr 25 min 26 sec) 
Heartbeat CPU 0 instructions: 530000000 cycles: 634334899 heartbeat IPC: 0.754697 cumulative IPC: 0.756521 (Simulation time: 0 hr 25 min 56 sec) 
Heartbeat CPU 0 instructions: 540000000 cycles: 647563026 heartbeat IPC: 0.755965 cumulative IPC: 0.756508 (Simulation time: 0 hr 26 min 26 sec) 
Heartbeat CPU 0 instructions: 550000002 cycles: 660827860 heartbeat IPC: 0.753873 cumulative IPC: 0.756449 (Simulation time: 0 hr 26 min 55 sec) 
Heartbeat CPU 0 instructions: 560000000 cycles: 674025258 heartbeat IPC: 0.757725 cumulative IPC: 0.756477 (Simulation time: 0 hr 27 min 25 sec) 
Heartbeat CPU 0 instructions: 570000001 cycles: 687231198 heartbeat IPC: 0.757235 cumulative IPC: 0.756493 (Simulation time: 0 hr 27 min 55 sec) 
Heartbeat CPU 0 instructions: 580000000 cycles: 700435151 heartbeat IPC: 0.757349 cumulative IPC: 0.756511 (Simulation time: 0 hr 28 min 24 sec) 
Heartbeat CPU 0 instructions: 590000003 cycles: 713674634 heartbeat IPC: 0.755317 cumulative IPC: 0.756487 (Simulation time: 0 hr 28 min 54 sec) 
Heartbeat CPU 0 instructions: 600000000 cycles: 726935673 heartbeat IPC: 0.754089 cumulative IPC: 0.756439 (Simulation time: 0 hr 29 min 24 sec) 
Finished CPU 0 instructions: 500000000 cycles: 660992236 cumulative IPC: 0.756438 (Simulation time: 0 hr 29 min 24 sec) 

CPU 0 Branch Prediction Accuracy: 99.968% MPKI: 0.002246
Number of Branches: 3513331 Number of Mispredictions: 1123
Number of LOAD Instructions: 287251172
Number of LOAD Instructions (ROI): 287251172
Number of STORE Instructions: 51060820
Number of STORE Instructions (ROI): 51060820
Total Destination Memory Operands: 51166221
Total Destination Memory Operands (ROI): 51166221
Total Source Memory Operands: 287251172
Total Source Memory Operands (ROI): 287251172
Number of DEPENDED LOADS: 9555242
Number of DEPENDED LOADS (ROI): 9555242
Number of SQ_ADDED: 51166208
Number of SQ_ADDED (ROI): 51166208
Number of LQ_ADDED: 290422827
Number of LQ_ADDED (ROI): 290422827
Number of Instructions read from trace: 600000257

ChampSim completed all CPUs

Region of Interest Statistics

CPU 0 cumulative IPC: 0.756438 instructions: 500000000 cycles: 660992236
ITLB TOTAL     ACCESS:  108952235  HIT:  108952235  MISS:          0
ITLB LOAD      ACCESS:  108952235  HIT:  108952235  MISS:          0
ITLB RFO       ACCESS:          0  HIT:          0  MISS:          0
ITLB PREFETCH  ACCESS:          0  HIT:          0  MISS:          0
ITLB WRITEBACK ACCESS:          0  HIT:          0  MISS:          0
ITLB PREFETCH  REQUESTED:          0  ISSUED:          0  USEFUL:          0  USELESS:          0
ITLB TOTAL MSHR MERGED:          0
ITLB LOAD MSHR MERGED:          0
ITLB RFO MSHR MERGED:          0
ITLB PREFETCH MSHR MERGED:          0
ITLB WRITEBACK MSHR MERGED:          0
ITLB TOTAL ACCESSES:  108952235 HITS:  108952235 MISSES:          0
ITLB LOAD ACCESSES:  108952235 HITS:  108952235 MISSES:          0
ITLB RFO ACCESSES:          0 HITS:          0 MISSES:          0
ITLB PREFETCH ACCESSES:          0 HITS:          0 MISSES:          0
ITLB WRITEBACK ACCESSES:          0 HITS:          0 MISSES:          0
ITLB RQ ACCESS:  500000001
ITLB RQ TO_CACHE:  108952235
ITLB RQ MERGED:  391047766
ITLB RQ FORWARD:          0
ITLB WQ ACCESS:          0
ITLB WQ TO_CACHE:          0
ITLB WQ MERGED:          0
ITLB WQ FORWARD:          0
DTLB TOTAL     ACCESS:  171132011  HIT:  161115703  MISS:   10016308
DTLB LOAD      ACCESS:  143472363  HIT:  135596305  MISS:    7876058
DTLB RFO       ACCESS:   27659648  HIT:   25519398  MISS:    2140250
DTLB PREFETCH  ACCESS:          0  HIT:          0  MISS:          0
DTLB WRITEBACK ACCESS:          0  HIT:          0  MISS:          0
DTLB PREFETCH  REQUESTED:          0  ISSUED:          0  USEFUL:          0  USELESS:          0
DTLB TOTAL MSHR MERGED:     360428
DTLB LOAD MSHR MERGED:     360428
DTLB RFO MSHR MERGED:          0
DTLB PREFETCH MSHR MERGED:          0
DTLB WRITEBACK MSHR MERGED:          0
DTLB TOTAL ACCESSES:  171492439 HITS:  161115703 MISSES:   10376736
DTLB LOAD ACCESSES:  143832791 HITS:  135596305 MISSES:    8236486
DTLB RFO ACCESSES:   27659648 HITS:   25519398 MISSES:    2140250
DTLB PREFETCH ACCESSES:          0 HITS:          0 MISSES:          0
DTLB WRITEBACK ACCESSES:          0 HITS:          0 MISSES:          0
DTLB RQ ACCESS:  274072575
DTLB RQ TO_CACHE:  171492439
DTLB RQ MERGED:  102580136
DTLB RQ FORWARD:          0
DTLB WQ ACCESS:          0
DTLB WQ TO_CACHE:          0
DTLB WQ MERGED:          0
DTLB WQ FORWARD:          0
L1D TOTAL     ACCESS:  350916664  HIT:  283716990  MISS:   67199674
L1D LOAD      ACCESS:  175624630  HIT:  142585082  MISS:   33039548
L1D RFO       ACCESS:   42018714  HIT:   39212872  MISS:    2805842
L1D PREFETCH  ACCESS:  133273320  HIT:  101919036  MISS:   31354284
L1D WRITEBACK ACCESS:          0  HIT:          0  MISS:          0
L1D PREFETCH  REQUESTED:  176228785  ISSUED:  175290162  USEFUL:    2180225  USELESS:   29174061
L1D TOTAL MSHR MERGED:    1484333
L1D LOAD MSHR MERGED:     704066
L1D RFO MSHR MERGED:     350265
L1D PREFETCH MSHR MERGED:     430002
L1D WRITEBACK MSHR MERGED:          0
L1D TOTAL ACCESSES:  352515634 HITS:  283831627 MISSES:   68684007
L1D LOAD ACCESSES:  176237237 HITS:  142593534 MISSES:   33643703
L1D RFO ACCESSES:   42368293 HITS:   39212872 MISSES:    3155421
L1D PREFETCH ACCESSES:  133910104 HITS:  102025221 MISSES:   31884883
L1D WRITEBACK ACCESSES:          0 HITS:          0 MISSES:          0
L1D RQ ACCESS:  231434102
L1D RQ TO_CACHE:  176228785
L1D RQ MERGED:   55196865
L1D RQ FORWARD:          0
L1D WQ ACCESS:   42638475
L1D WQ TO_CACHE:   42368293
L1D WQ MERGED:     270182
L1D WQ FORWARD:     114637
L1I TOTAL     ACCESS:  109346140  HIT:   77830436  MISS:   31515704
L1I LOAD      ACCESS:  109346140  HIT:   77830436  MISS:   31515704
L1I RFO       ACCESS:          0  HIT:          0  MISS:          0
L1I PREFETCH  ACCESS:          0  HIT:          0  MISS:          0
L1I WRITEBACK ACCESS:          0  HIT:          0  MISS:          0
L1I PREFETCH  REQUESTED:          0  ISSUED:          0  USEFUL:          0  USELESS:          0
L1I TOTAL MSHR MERGED:   30749999
L1I LOAD MSHR MERGED:   30749999
L1I RFO MSHR MERGED:          0
L1I PREFETCH MSHR MERGED:          0
L1I WRITEBACK MSHR MERGED:          0
L1I TOTAL ACCESSES:  140096141 HITS:   77830436 MISSES:   62265705
L1I LOAD ACCESSES:  140096141 HITS:   77830436 MISSES:   62265705
L1I RFO ACCESSES:          0 HITS:          0 MISSES:          0
L1I PREFETCH ACCESSES:          0 HITS:          0 MISSES:          0
L1I WRITEBACK ACCESSES:          0 HITS:          0 MISSES:          0
L1I RQ ACCESS:  500000003
L1I RQ TO_CACHE:  140096141
L1I RQ MERGED:  359903862
L1I RQ FORWARD:          0
L1I WQ ACCESS:          0
L1I WQ TO_CACHE:          0
L1I WQ MERGED:          0
L1I WQ FORWARD:          0
L2C TOTAL     ACCESS:  113687828  HIT:  110687520  MISS:    3000308
L2C LOAD      ACCESS:   64453478  HIT:   63893595  MISS:     559883
L2C RFO       ACCESS:    2803269  HIT:    2194036  MISS:     609233
L2C PREFETCH  ACCESS:   43270208  HIT:   41445292  MISS:    1824916
L2C WRITEBACK ACCESS:    3160873  HIT:    3154597  MISS:       6276
L2C PREFETCH  REQUESTED:   15134693  ISSUED:   14621142  USEFUL:    1700372  USELESS:     124556
L2C TOTAL MSHR MERGED:      13007
L2C LOAD MSHR MERGED:          0
L2C RFO MSHR MERGED:          0
L2C PREFETCH MSHR MERGED:      13007
L2C WRITEBACK MSHR MERGED:          0
L2C TOTAL ACCESSES:  113908548 HITS:  110693374 MISSES:    3215174
L2C LOAD ACCESSES:   64455342 HITS:   63895458 MISSES:     559884
L2C RFO ACCESSES:    2805156 HITS:    2195923 MISSES:     609233
L2C PREFETCH ACCESSES:   43487177 HITS:   41447396 MISSES:    2039781
L2C WRITEBACK ACCESSES:    3160873 HITS:    3154597 MISSES:       6276
L2C RQ ACCESS:   67260499
L2C RQ TO_CACHE:   67256749
L2C RQ MERGED:          0
L2C RQ FORWARD:          0
L2C WQ ACCESS:    3160873
L2C WQ TO_CACHE:    3160873
L2C WQ MERGED:          0
L2C WQ FORWARD:       5854
LLC TOTAL     ACCESS:    3726336  HIT:    1744262  MISS:    1982074
LLC LOAD      ACCESS:     559852  HIT:     492366  MISS:      67486
LLC RFO       ACCESS:     527238  HIT:     239035  MISS:     288203
LLC PREFETCH  ACCESS:    2020997  HIT:     559647  MISS:    1461350
LLC WRITEBACK ACCESS:     618249  HIT:     453214  MISS:     165035
LLC PREFETCH  REQUESTED:          0  ISSUED:          0  USEFUL:      43088  USELESS:    1417278
LLC TOTAL MSHR MERGED:       5112
LLC LOAD MSHR MERGED:          0
LLC RFO MSHR MERGED:          0
LLC PREFETCH MSHR MERGED:       5112
LLC WRITEBACK MSHR MERGED:          0
LLC TOTAL ACCESSES:    3813561 HITS:    1826375 MISSES:    1987186
LLC LOAD ACCESSES:     559883 HITS:     492397 MISSES:      67486
LLC RFO ACCESSES:     609233 HITS:     321030 MISSES:     288203
LLC PREFETCH ACCESSES:    2026196 HITS:     559734 MISSES:    1466462
LLC WRITEBACK ACCESSES:     618249 HITS:     453214 MISSES:     165035
LLC 0 RQ ACCESS:    1169117
LLC 0 RQ TO_CACHE:    1087091
LLC 0 RQ MERGED:          0
LLC 0 RQ FORWARD:          0
LLC WQ ACCESS:     618249
LLC WQ TO_CACHE:     618249
LLC WQ MERGED:          0
LLC WQ FORWARD:      82113
Major fault: 0 Minor fault: 12800
CPU 0 L1D next line prefetcher final stats
CPU 0 L2C PC-based stride prefetcher final stats
All Misses: 2390060
All Hits: 2187197
SD Algo Stats - Switches: 0 SRR-Repls: 85787 BRR-Repls: 0

DRAM Statistics
 CHANNEL 0
 RQ ROW_BUFFER_HIT:     907592  ROW_BUFFER_MISS:     909345
 DBUS_CONGESTED:     979327
 WQ ROW_BUFFER_HIT:      30367  ROW_BUFFER_MISS:     263030  FULL:          0

 AVG_CONGESTED_CYCLE: 13
LOADS RETIRED: 239375970
INSTR RETIRED: 500000000
