
*** ChampSim Multicore Out-of-Order Simulator ***

Warmup Instructions: 100000000
Simulation Instructions: 500000000
Number of CPUs: 1
LLC sets: 2048
LLC ways: 16
Clean RRIP Policies: 2213230222132302 Dirty RRIP Policies: 1203130212031302 PSEL Width: 10 Track Set: 4294967295 PSEL Mask: 1 Demote Mask: 2240100022401000DS Algo: 0Window size: 0
Off-chip DRAM Size: 4096 MB Channels: 1 Width: 64-bit Data Rate: 1600 MT/s

CPU 0 runs /mnt/beegfs/iconst01/spec2017/Lbm.trace.gz
NOT SORTED
TRACE STRING: /mnt/beegfs/iconst01/spec2017/Lbm.trace.gz
SORTED
TRACE STRING: /mnt/beegfs/iconst01/spec2017/Lbm.trace.gz
INITIAL
TRACE STRING: /mnt/beegfs/iconst01/spec2017/Lbm.trace.gz

champsim_seed used: 283

CPU 0 L1D next line prefetcher
CPU 0 L2C IP-based stride prefetcher
Initialize DRRIP state
Assign rand_sets[0]: 454  LLC: 2048
rand_sets[0]: 454
Assign rand_sets[1]: 1662  LLC: 2048
rand_sets[1]: 1662
Assign rand_sets[2]: 1921  LLC: 2048
rand_sets[2]: 1921
Assign rand_sets[3]: 1131  LLC: 2048
rand_sets[3]: 1131
Assign rand_sets[4]: 331  LLC: 2048
rand_sets[4]: 331
Assign rand_sets[5]: 1531  LLC: 2048
rand_sets[5]: 1531
Assign rand_sets[6]: 482  LLC: 2048
rand_sets[6]: 482
Assign rand_sets[7]: 1275  LLC: 2048
rand_sets[7]: 1275
Assign rand_sets[8]: 1876  LLC: 2048
rand_sets[8]: 1876
Assign rand_sets[9]: 2038  LLC: 2048
rand_sets[9]: 2038
Assign rand_sets[10]: 701  LLC: 2048
rand_sets[10]: 701
Assign rand_sets[11]: 479  LLC: 2048
rand_sets[11]: 479
Assign rand_sets[12]: 892  LLC: 2048
rand_sets[12]: 892
Assign rand_sets[13]: 1820  LLC: 2048
rand_sets[13]: 1820
Assign rand_sets[14]: 1505  LLC: 2048
rand_sets[14]: 1505
Assign rand_sets[15]: 1159  LLC: 2048
rand_sets[15]: 1159
Assign rand_sets[16]: 513  LLC: 2048
rand_sets[16]: 513
Assign rand_sets[17]: 703  LLC: 2048
rand_sets[17]: 703
Assign rand_sets[18]: 561  LLC: 2048
rand_sets[18]: 561
Assign rand_sets[19]: 990  LLC: 2048
rand_sets[19]: 990
Assign rand_sets[20]: 342  LLC: 2048
rand_sets[20]: 342
Assign rand_sets[21]: 882  LLC: 2048
rand_sets[21]: 882
Assign rand_sets[22]: 15  LLC: 2048
rand_sets[22]: 15
Assign rand_sets[23]: 71  LLC: 2048
rand_sets[23]: 71
Assign rand_sets[24]: 1127  LLC: 2048
rand_sets[24]: 1127
Assign rand_sets[25]: 1382  LLC: 2048
rand_sets[25]: 1382
Assign rand_sets[26]: 647  LLC: 2048
rand_sets[26]: 647
Assign rand_sets[27]: 857  LLC: 2048
rand_sets[27]: 857
Assign rand_sets[28]: 1450  LLC: 2048
rand_sets[28]: 1450
Assign rand_sets[29]: 1160  LLC: 2048
rand_sets[29]: 1160
Assign rand_sets[30]: 1852  LLC: 2048
rand_sets[30]: 1852
Assign rand_sets[31]: 1881  LLC: 2048
rand_sets[31]: 1881
Assign rand_sets[32]: 1770  LLC: 2048
rand_sets[32]: 1770
Assign rand_sets[33]: 1622  LLC: 2048
rand_sets[33]: 1622
Assign rand_sets[34]: 275  LLC: 2048
rand_sets[34]: 275
Assign rand_sets[35]: 635  LLC: 2048
rand_sets[35]: 635
Assign rand_sets[36]: 466  LLC: 2048
rand_sets[36]: 466
Assign rand_sets[37]: 1413  LLC: 2048
rand_sets[37]: 1413
Assign rand_sets[38]: 417  LLC: 2048
rand_sets[38]: 417
Assign rand_sets[39]: 472  LLC: 2048
rand_sets[39]: 472
Assign rand_sets[40]: 1340  LLC: 2048
rand_sets[40]: 1340
Assign rand_sets[41]: 852  LLC: 2048
rand_sets[41]: 852
Assign rand_sets[42]: 1365  LLC: 2048
rand_sets[42]: 1365
Assign rand_sets[43]: 47  LLC: 2048
rand_sets[43]: 47
Assign rand_sets[44]: 823  LLC: 2048
rand_sets[44]: 823
Assign rand_sets[45]: 686  LLC: 2048
rand_sets[45]: 686
Assign rand_sets[46]: 1637  LLC: 2048
rand_sets[46]: 1637
Assign rand_sets[47]: 1115  LLC: 2048
rand_sets[47]: 1115
Assign rand_sets[48]: 986  LLC: 2048
rand_sets[48]: 986
Assign rand_sets[49]: 258  LLC: 2048
rand_sets[49]: 258
Assign rand_sets[50]: 633  LLC: 2048
rand_sets[50]: 633
Assign rand_sets[51]: 920  LLC: 2048
rand_sets[51]: 920
Assign rand_sets[52]: 204  LLC: 2048
rand_sets[52]: 204
Assign rand_sets[53]: 227  LLC: 2048
rand_sets[53]: 227
Assign rand_sets[54]: 1818  LLC: 2048
rand_sets[54]: 1818
Assign rand_sets[55]: 886  LLC: 2048
rand_sets[55]: 886
Assign rand_sets[56]: 1422  LLC: 2048
rand_sets[56]: 1422
Assign rand_sets[57]: 607  LLC: 2048
rand_sets[57]: 607
Assign rand_sets[58]: 217  LLC: 2048
rand_sets[58]: 217
Assign rand_sets[59]: 1945  LLC: 2048
rand_sets[59]: 1945
Assign rand_sets[60]: 143  LLC: 2048
rand_sets[60]: 143
Assign rand_sets[61]: 1311  LLC: 2048
rand_sets[61]: 1311
Assign rand_sets[62]: 319  LLC: 2048
rand_sets[62]: 319
Assign rand_sets[63]: 1846  LLC: 2048
rand_sets[63]: 1846
 CLEAN-RRIP-POLICY-1: 2-2-1-3-2-3-0-2- CLEAN-RRIP-POLICY-2: 2-2-1-3-2-3-0-2-
 DIRTY-RRIP-POLICY-1: 1-2-0-3-1-3-0-2- DIRTY-RRIP-POLICY-2: 1-2-0-3-1-3-0-2-
 PSEL width: 10
Heartbeat CPU 0 instructions: 10000000 cycles: 4321569 heartbeat IPC: 2.31397 cumulative IPC: 2.31397 (Simulation time: 0 hr 0 min 18 sec) 
Heartbeat CPU 0 instructions: 20000000 cycles: 8643626 heartbeat IPC: 2.31371 cumulative IPC: 2.31384 (Simulation time: 0 hr 0 min 36 sec) 
Heartbeat CPU 0 instructions: 30000000 cycles: 12965421 heartbeat IPC: 2.31385 cumulative IPC: 2.31385 (Simulation time: 0 hr 0 min 54 sec) 
Heartbeat CPU 0 instructions: 40000000 cycles: 17291324 heartbeat IPC: 2.31166 cumulative IPC: 2.3133 (Simulation time: 0 hr 1 min 12 sec) 
Heartbeat CPU 0 instructions: 50000000 cycles: 21613127 heartbeat IPC: 2.31385 cumulative IPC: 2.31341 (Simulation time: 0 hr 1 min 31 sec) 
Heartbeat CPU 0 instructions: 60000000 cycles: 25935005 heartbeat IPC: 2.31381 cumulative IPC: 2.31348 (Simulation time: 0 hr 1 min 49 sec) 
Heartbeat CPU 0 instructions: 70000000 cycles: 30256410 heartbeat IPC: 2.31406 cumulative IPC: 2.31356 (Simulation time: 0 hr 2 min 7 sec) 
Heartbeat CPU 0 instructions: 80000000 cycles: 34582609 heartbeat IPC: 2.3115 cumulative IPC: 2.3133 (Simulation time: 0 hr 2 min 26 sec) 
Heartbeat CPU 0 instructions: 90000003 cycles: 38904717 heartbeat IPC: 2.31369 cumulative IPC: 2.31334 (Simulation time: 0 hr 2 min 44 sec) 
Heartbeat CPU 0 instructions: 100000000 cycles: 43226157 heartbeat IPC: 2.31404 cumulative IPC: 2.31341 (Simulation time: 0 hr 3 min 3 sec) 

Warmup complete CPU 0 instructions: 100000001 cycles: 43226158 (Simulation time: 0 hr 3 min 3 sec) 

Heartbeat CPU 0 instructions: 110000000 cycles: 57455003 heartbeat IPC: 0.702798 cumulative IPC: 0.702798 (Simulation time: 0 hr 3 min 29 sec) 
Heartbeat CPU 0 instructions: 120000000 cycles: 71679662 heartbeat IPC: 0.703005 cumulative IPC: 0.702901 (Simulation time: 0 hr 3 min 56 sec) 
Heartbeat CPU 0 instructions: 130000000 cycles: 85883830 heartbeat IPC: 0.704019 cumulative IPC: 0.703273 (Simulation time: 0 hr 4 min 22 sec) 
Heartbeat CPU 0 instructions: 140000000 cycles: 99905358 heartbeat IPC: 0.713189 cumulative IPC: 0.705726 (Simulation time: 0 hr 4 min 48 sec) 
Heartbeat CPU 0 instructions: 150000003 cycles: 113392229 heartbeat IPC: 0.741462 cumulative IPC: 0.712595 (Simulation time: 0 hr 5 min 14 sec) 
Heartbeat CPU 0 instructions: 160000000 cycles: 127181896 heartbeat IPC: 0.72518 cumulative IPC: 0.714662 (Simulation time: 0 hr 5 min 41 sec) 
Heartbeat CPU 0 instructions: 170000002 cycles: 141507044 heartbeat IPC: 0.698073 cumulative IPC: 0.712244 (Simulation time: 0 hr 6 min 7 sec) 
Heartbeat CPU 0 instructions: 180000000 cycles: 155245842 heartbeat IPC: 0.727866 cumulative IPC: 0.71416 (Simulation time: 0 hr 6 min 33 sec) 
Heartbeat CPU 0 instructions: 190000003 cycles: 171873867 heartbeat IPC: 0.601395 cumulative IPC: 0.699585 (Simulation time: 0 hr 7 min 2 sec) 
Heartbeat CPU 0 instructions: 200000000 cycles: 192167145 heartbeat IPC: 0.492774 cumulative IPC: 0.671407 (Simulation time: 0 hr 7 min 35 sec) 
Heartbeat CPU 0 instructions: 210000001 cycles: 206200656 heartbeat IPC: 0.71258 cumulative IPC: 0.674952 (Simulation time: 0 hr 8 min 1 sec) 
Heartbeat CPU 0 instructions: 220000000 cycles: 219915017 heartbeat IPC: 0.729163 cumulative IPC: 0.67916 (Simulation time: 0 hr 8 min 27 sec) 
Heartbeat CPU 0 instructions: 230000001 cycles: 233771878 heartbeat IPC: 0.721664 cumulative IPC: 0.682251 (Simulation time: 0 hr 8 min 53 sec) 
Heartbeat CPU 0 instructions: 240000000 cycles: 247972794 heartbeat IPC: 0.70418 cumulative IPC: 0.683772 (Simulation time: 0 hr 9 min 20 sec) 
Heartbeat CPU 0 instructions: 250000000 cycles: 262451797 heartbeat IPC: 0.690655 cumulative IPC: 0.684227 (Simulation time: 0 hr 9 min 47 sec) 
Heartbeat CPU 0 instructions: 260000000 cycles: 277134535 heartbeat IPC: 0.681072 cumulative IPC: 0.684029 (Simulation time: 0 hr 10 min 14 sec) 
Heartbeat CPU 0 instructions: 270000002 cycles: 291700025 heartbeat IPC: 0.686554 cumulative IPC: 0.684177 (Simulation time: 0 hr 10 min 41 sec) 
Heartbeat CPU 0 instructions: 280000000 cycles: 306469843 heartbeat IPC: 0.677056 cumulative IPC: 0.683777 (Simulation time: 0 hr 11 min 8 sec) 
Heartbeat CPU 0 instructions: 290000003 cycles: 321970149 heartbeat IPC: 0.645149 cumulative IPC: 0.681629 (Simulation time: 0 hr 11 min 35 sec) 
Heartbeat CPU 0 instructions: 300000000 cycles: 337102063 heartbeat IPC: 0.660855 cumulative IPC: 0.680559 (Simulation time: 0 hr 12 min 3 sec) 
Heartbeat CPU 0 instructions: 310000000 cycles: 352887350 heartbeat IPC: 0.633501 cumulative IPC: 0.678161 (Simulation time: 0 hr 12 min 31 sec) 
Heartbeat CPU 0 instructions: 320000000 cycles: 368455352 heartbeat IPC: 0.642343 cumulative IPC: 0.676446 (Simulation time: 0 hr 12 min 58 sec) 
Heartbeat CPU 0 instructions: 330000002 cycles: 383337298 heartbeat IPC: 0.671955 cumulative IPC: 0.67625 (Simulation time: 0 hr 13 min 25 sec) 
Heartbeat CPU 0 instructions: 340000000 cycles: 399345282 heartbeat IPC: 0.624688 cumulative IPC: 0.673932 (Simulation time: 0 hr 13 min 52 sec) 
Heartbeat CPU 0 instructions: 350000001 cycles: 413660386 heartbeat IPC: 0.698563 cumulative IPC: 0.674884 (Simulation time: 0 hr 14 min 18 sec) 
Heartbeat CPU 0 instructions: 360000000 cycles: 428840749 heartbeat IPC: 0.658746 cumulative IPC: 0.674248 (Simulation time: 0 hr 14 min 45 sec) 
Heartbeat CPU 0 instructions: 370000000 cycles: 443309065 heartbeat IPC: 0.691165 cumulative IPC: 0.67486 (Simulation time: 0 hr 15 min 11 sec) 
Heartbeat CPU 0 instructions: 380000000 cycles: 458185547 heartbeat IPC: 0.672202 cumulative IPC: 0.674765 (Simulation time: 0 hr 15 min 38 sec) 
Heartbeat CPU 0 instructions: 390000000 cycles: 472409147 heartbeat IPC: 0.703057 cumulative IPC: 0.675702 (Simulation time: 0 hr 16 min 4 sec) 
Heartbeat CPU 0 instructions: 400000000 cycles: 486570014 heartbeat IPC: 0.706171 cumulative IPC: 0.676676 (Simulation time: 0 hr 16 min 30 sec) 
Heartbeat CPU 0 instructions: 410000000 cycles: 500325629 heartbeat IPC: 0.726976 cumulative IPC: 0.678189 (Simulation time: 0 hr 16 min 55 sec) 
Heartbeat CPU 0 instructions: 420000000 cycles: 514324471 heartbeat IPC: 0.714345 cumulative IPC: 0.679264 (Simulation time: 0 hr 17 min 20 sec) 
Heartbeat CPU 0 instructions: 430000002 cycles: 527636139 heartbeat IPC: 0.751221 cumulative IPC: 0.681241 (Simulation time: 0 hr 17 min 45 sec) 
Heartbeat CPU 0 instructions: 440000000 cycles: 541128861 heartbeat IPC: 0.74114 cumulative IPC: 0.682864 (Simulation time: 0 hr 18 min 10 sec) 
Heartbeat CPU 0 instructions: 450000000 cycles: 554933440 heartbeat IPC: 0.724397 cumulative IPC: 0.683985 (Simulation time: 0 hr 18 min 35 sec) 
Heartbeat CPU 0 instructions: 460000000 cycles: 569566304 heartbeat IPC: 0.683393 cumulative IPC: 0.683968 (Simulation time: 0 hr 19 min 0 sec) 
Heartbeat CPU 0 instructions: 470000000 cycles: 583489295 heartbeat IPC: 0.718237 cumulative IPC: 0.684851 (Simulation time: 0 hr 19 min 25 sec) 
Heartbeat CPU 0 instructions: 480000000 cycles: 597445282 heartbeat IPC: 0.716538 cumulative IPC: 0.685649 (Simulation time: 0 hr 19 min 51 sec) 
Heartbeat CPU 0 instructions: 490000001 cycles: 611739985 heartbeat IPC: 0.69956 cumulative IPC: 0.685999 (Simulation time: 0 hr 20 min 16 sec) 
Heartbeat CPU 0 instructions: 500000000 cycles: 625765080 heartbeat IPC: 0.713008 cumulative IPC: 0.686649 (Simulation time: 0 hr 20 min 41 sec) 
Heartbeat CPU 0 instructions: 510000002 cycles: 639622131 heartbeat IPC: 0.721654 cumulative IPC: 0.687463 (Simulation time: 0 hr 21 min 6 sec) 
Heartbeat CPU 0 instructions: 520000000 cycles: 653438305 heartbeat IPC: 0.723789 cumulative IPC: 0.688285 (Simulation time: 0 hr 21 min 32 sec) 
Heartbeat CPU 0 instructions: 530000001 cycles: 667283731 heartbeat IPC: 0.72226 cumulative IPC: 0.689039 (Simulation time: 0 hr 21 min 57 sec) 
Heartbeat CPU 0 instructions: 540000000 cycles: 681525725 heartbeat IPC: 0.702149 cumulative IPC: 0.689331 (Simulation time: 0 hr 22 min 22 sec) 
Heartbeat CPU 0 instructions: 550000003 cycles: 695187757 heartbeat IPC: 0.731956 cumulative IPC: 0.690225 (Simulation time: 0 hr 22 min 47 sec) 
Heartbeat CPU 0 instructions: 560000000 cycles: 709732916 heartbeat IPC: 0.687514 cumulative IPC: 0.690166 (Simulation time: 0 hr 23 min 13 sec) 
Heartbeat CPU 0 instructions: 570000001 cycles: 723673130 heartbeat IPC: 0.717349 cumulative IPC: 0.690722 (Simulation time: 0 hr 23 min 38 sec) 
Heartbeat CPU 0 instructions: 580000000 cycles: 737117277 heartbeat IPC: 0.743818 cumulative IPC: 0.691751 (Simulation time: 0 hr 24 min 2 sec) 
Heartbeat CPU 0 instructions: 590000003 cycles: 750104708 heartbeat IPC: 0.769975 cumulative IPC: 0.693188 (Simulation time: 0 hr 24 min 27 sec) 
Heartbeat CPU 0 instructions: 600000000 cycles: 763894349 heartbeat IPC: 0.725182 cumulative IPC: 0.693801 (Simulation time: 0 hr 24 min 52 sec) 
Finished CPU 0 instructions: 500000000 cycles: 720668199 cumulative IPC: 0.693801 (Simulation time: 0 hr 24 min 52 sec) 

CPU 0 Branch Prediction Accuracy: 99.5915% MPKI: 0.037126
Number of Branches: 4544106 Number of Mispredictions: 18563
Number of LOAD Instructions: 149787067
Number of LOAD Instructions (ROI): 149787067
Number of STORE Instructions: 77239062
Number of STORE Instructions (ROI): 77239062
Total Destination Memory Operands: 77239062
Total Destination Memory Operands (ROI): 77239062
Total Source Memory Operands: 149787067
Total Source Memory Operands (ROI): 149787067
Number of DEPENDED LOADS: 19246055
Number of DEPENDED LOADS (ROI): 19246055
Number of SQ_ADDED: 77239036
Number of SQ_ADDED (ROI): 77239036
Number of LQ_ADDED: 149787020
Number of LQ_ADDED (ROI): 149787020
Number of Instructions read from trace: 600000256

ChampSim completed all CPUs

Region of Interest Statistics

CPU 0 cumulative IPC: 0.693801 instructions: 500000000 cycles: 720668199
ITLB TOTAL     ACCESS:   86453171  HIT:   86453170  MISS:          1
ITLB LOAD      ACCESS:   86453171  HIT:   86453170  MISS:          1
ITLB RFO       ACCESS:          0  HIT:          0  MISS:          0
ITLB PREFETCH  ACCESS:          0  HIT:          0  MISS:          0
ITLB WRITEBACK ACCESS:          0  HIT:          0  MISS:          0
ITLB PREFETCH  REQUESTED:          0  ISSUED:          0  USEFUL:          0  USELESS:          0
ITLB TOTAL MSHR MERGED:          1
ITLB LOAD MSHR MERGED:          1
ITLB RFO MSHR MERGED:          0
ITLB PREFETCH MSHR MERGED:          0
ITLB WRITEBACK MSHR MERGED:          0
ITLB TOTAL ACCESSES:   86453172 HITS:   86453170 MISSES:          2
ITLB LOAD ACCESSES:   86453172 HITS:   86453170 MISSES:          2
ITLB RFO ACCESSES:          0 HITS:          0 MISSES:          0
ITLB PREFETCH ACCESSES:          0 HITS:          0 MISSES:          0
ITLB WRITEBACK ACCESSES:          0 HITS:          0 MISSES:          0
ITLB RQ ACCESS:  500000002
ITLB RQ TO_CACHE:   86453172
ITLB RQ MERGED:  413546830
ITLB RQ FORWARD:          0
ITLB WQ ACCESS:          0
ITLB WQ TO_CACHE:          0
ITLB WQ MERGED:          0
ITLB WQ FORWARD:          0
DTLB TOTAL     ACCESS:   98111009  HIT:   97925748  MISS:     185261
DTLB LOAD      ACCESS:   55042210  HIT:   54995899  MISS:      46311
DTLB RFO       ACCESS:   43068799  HIT:   42929849  MISS:     138950
DTLB PREFETCH  ACCESS:          0  HIT:          0  MISS:          0
DTLB WRITEBACK ACCESS:          0  HIT:          0  MISS:          0
DTLB PREFETCH  REQUESTED:          0  ISSUED:          0  USEFUL:          0  USELESS:          0
DTLB TOTAL MSHR MERGED:      83542
DTLB LOAD MSHR MERGED:      83537
DTLB RFO MSHR MERGED:          5
DTLB PREFETCH MSHR MERGED:          0
DTLB WRITEBACK MSHR MERGED:          0
DTLB TOTAL ACCESSES:   98194551 HITS:   97925748 MISSES:     268803
DTLB LOAD ACCESSES:   55125747 HITS:   54995899 MISSES:     129848
DTLB RFO ACCESSES:   43068804 HITS:   42929849 MISSES:     138955
DTLB PREFETCH ACCESSES:          0 HITS:          0 MISSES:          0
DTLB WRITEBACK ACCESSES:          0 HITS:          0 MISSES:          0
DTLB RQ ACCESS:  173636472
DTLB RQ TO_CACHE:   98194551
DTLB RQ MERGED:   75441921
DTLB RQ FORWARD:          0
DTLB WQ ACCESS:          0
DTLB WQ TO_CACHE:          0
DTLB WQ MERGED:          0
DTLB WQ FORWARD:          0
L1D TOTAL     ACCESS:  164617611  HIT:  145045053  MISS:   19572558
L1D LOAD      ACCESS:   60577015  HIT:   58725255  MISS:    1851760
L1D RFO       ACCESS:   64514079  HIT:   47911936  MISS:   16602143
L1D PREFETCH  ACCESS:   39526517  HIT:   38407862  MISS:    1118655
L1D WRITEBACK ACCESS:          0  HIT:          0  MISS:          0
L1D PREFETCH  REQUESTED:   61780099  ISSUED:   61487434  USEFUL:    1116735  USELESS:       1920
L1D TOTAL MSHR MERGED:    3546982
L1D LOAD MSHR MERGED:    1274638
L1D RFO MSHR MERGED:      11580
L1D PREFETCH MSHR MERGED:    2260764
L1D WRITEBACK MSHR MERGED:          0
L1D TOTAL ACCESSES:  168721928 HITS:  145602389 MISSES:   23119539
L1D LOAD ACCESSES:   62030066 HITS:   58975222 MISSES:    3054844
L1D RFO ACCESSES:   64525629 HITS:   47911936 MISSES:   16613693
L1D PREFETCH ACCESSES:   42166233 HITS:   38715231 MISSES:    3451002
L1D WRITEBACK ACCESSES:          0 HITS:          0 MISSES:          0
L1D RQ ACCESS:  109095157
L1D RQ TO_CACHE:   61780099
L1D RQ MERGED:   47065091
L1D RQ FORWARD:          0
L1D WQ ACCESS:   64541313
L1D WQ TO_CACHE:   64525630
L1D WQ MERGED:      15683
L1D WQ FORWARD:     557336
L1I TOTAL     ACCESS:  107762593  HIT:  107762585  MISS:          8
L1I LOAD      ACCESS:  107762593  HIT:  107762585  MISS:          8
L1I RFO       ACCESS:          0  HIT:          0  MISS:          0
L1I PREFETCH  ACCESS:          0  HIT:          0  MISS:          0
L1I WRITEBACK ACCESS:          0  HIT:          0  MISS:          0
L1I PREFETCH  REQUESTED:          0  ISSUED:          0  USEFUL:          0  USELESS:          0
L1I TOTAL MSHR MERGED:          3
L1I LOAD MSHR MERGED:          3
L1I RFO MSHR MERGED:          0
L1I PREFETCH MSHR MERGED:          0
L1I WRITEBACK MSHR MERGED:          0
L1I TOTAL ACCESSES:  107762596 HITS:  107762585 MISSES:         11
L1I LOAD ACCESSES:  107762596 HITS:  107762585 MISSES:         11
L1I RFO ACCESSES:          0 HITS:          0 MISSES:          0
L1I PREFETCH ACCESSES:          0 HITS:          0 MISSES:          0
L1I WRITEBACK ACCESSES:          0 HITS:          0 MISSES:          0
L1I RQ ACCESS:  500000007
L1I RQ TO_CACHE:  107762596
L1I RQ MERGED:  392237411
L1I RQ FORWARD:          0
L1I WQ ACCESS:          0
L1I WQ TO_CACHE:          0
L1I WQ MERGED:          0
L1I WQ FORWARD:          0
L2C TOTAL     ACCESS:   36816427  HIT:   24858845  MISS:   11957582
L2C LOAD      ACCESS:    1780214  HIT:     258421  MISS:    1521793
L2C RFO       ACCESS:   16602112  HIT:    7610744  MISS:    8991368
L2C PREFETCH  ACCESS:    1831915  HIT:     388723  MISS:    1443192
L2C WRITEBACK ACCESS:   16602186  HIT:   16600957  MISS:       1229
L2C PREFETCH  REQUESTED:     815345  ISSUED:     815345  USEFUL:     256109  USELESS:    1187364
L2C TOTAL MSHR MERGED:       2831
L2C LOAD MSHR MERGED:        654
L2C RFO MSHR MERGED:          0
L2C PREFETCH MSHR MERGED:       2177
L2C WRITEBACK MSHR MERGED:          0
L2C TOTAL ACCESSES:   36990012 HITS:   24858847 MISSES:   12131165
L2C LOAD ACCESSES:    1780214 HITS:     258421 MISSES:    1521793
L2C RFO ACCESSES:   16602113 HITS:    7610746 MISSES:    8991367
L2C PREFETCH ACCESSES:    2005499 HITS:     388723 MISSES:    1616776
L2C WRITEBACK ACCESSES:   16602186 HITS:   16600957 MISSES:       1229
L2C RQ ACCESS:   18382327
L2C RQ TO_CACHE:   18382325
L2C RQ MERGED:          0
L2C RQ FORWARD:          0
L2C WQ ACCESS:   16602186
L2C WQ TO_CACHE:   16602186
L2C WQ MERGED:          0
L2C WQ FORWARD:          2
LLC TOTAL     ACCESS:   21116192  HIT:    2176632  MISS:   18939560
LLC LOAD      ACCESS:    1521139  HIT:      61716  MISS:    1459423
LLC RFO       ACCESS:    8991356  HIT:     916083  MISS:    8075273
LLC PREFETCH  ACCESS:    1611505  HIT:     105629  MISS:    1505876
LLC WRITEBACK ACCESS:    8992192  HIT:    1093204  MISS:    7898988
LLC PREFETCH  REQUESTED:          0  ISSUED:          0  USEFUL:      61589  USELESS:    1444178
LLC TOTAL MSHR MERGED:       2691
LLC LOAD MSHR MERGED:        239
LLC RFO MSHR MERGED:          0
LLC PREFETCH MSHR MERGED:       2452
LLC WRITEBACK MSHR MERGED:          0
LLC TOTAL ACCESSES:   21118894 HITS:    2176644 MISSES:   18942250
LLC LOAD ACCESSES:    1521139 HITS:      61716 MISSES:    1459423
LLC RFO ACCESSES:    8991367 HITS:     916095 MISSES:    8075272
LLC PREFETCH ACCESSES:    1614196 HITS:     105629 MISSES:    1508567
LLC WRITEBACK ACCESSES:    8992192 HITS:    1093204 MISSES:    7898988
LLC 0 RQ ACCESS:   10512506
LLC 0 RQ TO_CACHE:   10512494
LLC 0 RQ MERGED:          0
LLC 0 RQ FORWARD:          0
LLC WQ ACCESS:    8992192
LLC WQ TO_CACHE:    8992192
LLC WQ MERGED:          0
LLC WQ FORWARD:         12
Major fault: 0 Minor fault: 102360
CPU 0 L1D next line prefetcher final stats
CPU 0 L2C PC-based stride prefetcher final stats
All Misses: 22536510
All Hits: 2555193
SD Algo Stats - Switches: 0 SRR-Repls: 1638049 BRR-Repls: 0

DRAM Statistics
 CHANNEL 0
 RQ ROW_BUFFER_HIT:    3714256  ROW_BUFFER_MISS:    7324533
 DBUS_CONGESTED:   13070522
 WQ ROW_BUFFER_HIT:    1305828  ROW_BUFFER_MISS:    6801137  FULL:          0

 AVG_CONGESTED_CYCLE: 13
LOADS RETIRED: 124982196
INSTR RETIRED: 500000000
