
*** ChampSim Multicore Out-of-Order Simulator ***

Warmup Instructions: 100000000
Simulation Instructions: 500000000
Number of CPUs: 1
LLC sets: 2048
LLC ways: 16
Clean RRIP Policies: 2213230222132302 Dirty RRIP Policies: 1203130212031302 PSEL Width: 10 Track Set: 4294967295 PSEL Mask: 1 Demote Mask: 2240100022401000DS Algo: 0Window size: 0
Off-chip DRAM Size: 4096 MB Channels: 1 Width: 64-bit Data Rate: 1600 MT/s

CPU 0 runs /mnt/beegfs/iconst01/spec2017/Parest.trace.gz
NOT SORTED
TRACE STRING: /mnt/beegfs/iconst01/spec2017/Parest.trace.gz
SORTED
TRACE STRING: /mnt/beegfs/iconst01/spec2017/Parest.trace.gz
INITIAL
TRACE STRING: /mnt/beegfs/iconst01/spec2017/Parest.trace.gz

champsim_seed used: 623

CPU 0 L1D next line prefetcher
CPU 0 L2C IP-based stride prefetcher
Initialize DRRIP state
Assign rand_sets[0]: 454  LLC: 2048
rand_sets[0]: 454
Assign rand_sets[1]: 1662  LLC: 2048
rand_sets[1]: 1662
Assign rand_sets[2]: 1921  LLC: 2048
rand_sets[2]: 1921
Assign rand_sets[3]: 1131  LLC: 2048
rand_sets[3]: 1131
Assign rand_sets[4]: 331  LLC: 2048
rand_sets[4]: 331
Assign rand_sets[5]: 1531  LLC: 2048
rand_sets[5]: 1531
Assign rand_sets[6]: 482  LLC: 2048
rand_sets[6]: 482
Assign rand_sets[7]: 1275  LLC: 2048
rand_sets[7]: 1275
Assign rand_sets[8]: 1876  LLC: 2048
rand_sets[8]: 1876
Assign rand_sets[9]: 2038  LLC: 2048
rand_sets[9]: 2038
Assign rand_sets[10]: 701  LLC: 2048
rand_sets[10]: 701
Assign rand_sets[11]: 479  LLC: 2048
rand_sets[11]: 479
Assign rand_sets[12]: 892  LLC: 2048
rand_sets[12]: 892
Assign rand_sets[13]: 1820  LLC: 2048
rand_sets[13]: 1820
Assign rand_sets[14]: 1505  LLC: 2048
rand_sets[14]: 1505
Assign rand_sets[15]: 1159  LLC: 2048
rand_sets[15]: 1159
Assign rand_sets[16]: 513  LLC: 2048
rand_sets[16]: 513
Assign rand_sets[17]: 703  LLC: 2048
rand_sets[17]: 703
Assign rand_sets[18]: 561  LLC: 2048
rand_sets[18]: 561
Assign rand_sets[19]: 990  LLC: 2048
rand_sets[19]: 990
Assign rand_sets[20]: 342  LLC: 2048
rand_sets[20]: 342
Assign rand_sets[21]: 882  LLC: 2048
rand_sets[21]: 882
Assign rand_sets[22]: 15  LLC: 2048
rand_sets[22]: 15
Assign rand_sets[23]: 71  LLC: 2048
rand_sets[23]: 71
Assign rand_sets[24]: 1127  LLC: 2048
rand_sets[24]: 1127
Assign rand_sets[25]: 1382  LLC: 2048
rand_sets[25]: 1382
Assign rand_sets[26]: 647  LLC: 2048
rand_sets[26]: 647
Assign rand_sets[27]: 857  LLC: 2048
rand_sets[27]: 857
Assign rand_sets[28]: 1450  LLC: 2048
rand_sets[28]: 1450
Assign rand_sets[29]: 1160  LLC: 2048
rand_sets[29]: 1160
Assign rand_sets[30]: 1852  LLC: 2048
rand_sets[30]: 1852
Assign rand_sets[31]: 1881  LLC: 2048
rand_sets[31]: 1881
Assign rand_sets[32]: 1770  LLC: 2048
rand_sets[32]: 1770
Assign rand_sets[33]: 1622  LLC: 2048
rand_sets[33]: 1622
Assign rand_sets[34]: 275  LLC: 2048
rand_sets[34]: 275
Assign rand_sets[35]: 635  LLC: 2048
rand_sets[35]: 635
Assign rand_sets[36]: 466  LLC: 2048
rand_sets[36]: 466
Assign rand_sets[37]: 1413  LLC: 2048
rand_sets[37]: 1413
Assign rand_sets[38]: 417  LLC: 2048
rand_sets[38]: 417
Assign rand_sets[39]: 472  LLC: 2048
rand_sets[39]: 472
Assign rand_sets[40]: 1340  LLC: 2048
rand_sets[40]: 1340
Assign rand_sets[41]: 852  LLC: 2048
rand_sets[41]: 852
Assign rand_sets[42]: 1365  LLC: 2048
rand_sets[42]: 1365
Assign rand_sets[43]: 47  LLC: 2048
rand_sets[43]: 47
Assign rand_sets[44]: 823  LLC: 2048
rand_sets[44]: 823
Assign rand_sets[45]: 686  LLC: 2048
rand_sets[45]: 686
Assign rand_sets[46]: 1637  LLC: 2048
rand_sets[46]: 1637
Assign rand_sets[47]: 1115  LLC: 2048
rand_sets[47]: 1115
Assign rand_sets[48]: 986  LLC: 2048
rand_sets[48]: 986
Assign rand_sets[49]: 258  LLC: 2048
rand_sets[49]: 258
Assign rand_sets[50]: 633  LLC: 2048
rand_sets[50]: 633
Assign rand_sets[51]: 920  LLC: 2048
rand_sets[51]: 920
Assign rand_sets[52]: 204  LLC: 2048
rand_sets[52]: 204
Assign rand_sets[53]: 227  LLC: 2048
rand_sets[53]: 227
Assign rand_sets[54]: 1818  LLC: 2048
rand_sets[54]: 1818
Assign rand_sets[55]: 886  LLC: 2048
rand_sets[55]: 886
Assign rand_sets[56]: 1422  LLC: 2048
rand_sets[56]: 1422
Assign rand_sets[57]: 607  LLC: 2048
rand_sets[57]: 607
Assign rand_sets[58]: 217  LLC: 2048
rand_sets[58]: 217
Assign rand_sets[59]: 1945  LLC: 2048
rand_sets[59]: 1945
Assign rand_sets[60]: 143  LLC: 2048
rand_sets[60]: 143
Assign rand_sets[61]: 1311  LLC: 2048
rand_sets[61]: 1311
Assign rand_sets[62]: 319  LLC: 2048
rand_sets[62]: 319
Assign rand_sets[63]: 1846  LLC: 2048
rand_sets[63]: 1846
 CLEAN-RRIP-POLICY-1: 2-2-1-3-2-3-0-2- CLEAN-RRIP-POLICY-2: 2-2-1-3-2-3-0-2-
 DIRTY-RRIP-POLICY-1: 1-2-0-3-1-3-0-2- DIRTY-RRIP-POLICY-2: 1-2-0-3-1-3-0-2-
 PSEL width: 10
Heartbeat CPU 0 instructions: 10000001 cycles: 4387143 heartbeat IPC: 2.27939 cumulative IPC: 2.27939 (Simulation time: 0 hr 0 min 14 sec) 
Heartbeat CPU 0 instructions: 20000000 cycles: 8781328 heartbeat IPC: 2.27573 cumulative IPC: 2.27756 (Simulation time: 0 hr 0 min 29 sec) 
Heartbeat CPU 0 instructions: 30000003 cycles: 13213265 heartbeat IPC: 2.25635 cumulative IPC: 2.27045 (Simulation time: 0 hr 0 min 44 sec) 
Heartbeat CPU 0 instructions: 40000000 cycles: 17643897 heartbeat IPC: 2.25701 cumulative IPC: 2.26707 (Simulation time: 0 hr 0 min 59 sec) 
Heartbeat CPU 0 instructions: 50000000 cycles: 22052170 heartbeat IPC: 2.26846 cumulative IPC: 2.26735 (Simulation time: 0 hr 1 min 13 sec) 
Heartbeat CPU 0 instructions: 60000000 cycles: 26457914 heartbeat IPC: 2.26976 cumulative IPC: 2.26775 (Simulation time: 0 hr 1 min 28 sec) 
Heartbeat CPU 0 instructions: 70000000 cycles: 30858835 heartbeat IPC: 2.27225 cumulative IPC: 2.26839 (Simulation time: 0 hr 1 min 42 sec) 
Heartbeat CPU 0 instructions: 80000000 cycles: 35254445 heartbeat IPC: 2.275 cumulative IPC: 2.26922 (Simulation time: 0 hr 1 min 57 sec) 
Heartbeat CPU 0 instructions: 90000000 cycles: 39648753 heartbeat IPC: 2.27567 cumulative IPC: 2.26993 (Simulation time: 0 hr 2 min 12 sec) 
Heartbeat CPU 0 instructions: 100000000 cycles: 44046096 heartbeat IPC: 2.2741 cumulative IPC: 2.27035 (Simulation time: 0 hr 2 min 27 sec) 

Warmup complete CPU 0 instructions: 100000002 cycles: 44046106 (Simulation time: 0 hr 2 min 27 sec) 

Heartbeat CPU 0 instructions: 110000000 cycles: 54001464 heartbeat IPC: 1.00448 cumulative IPC: 1.00448 (Simulation time: 0 hr 2 min 47 sec) 
Heartbeat CPU 0 instructions: 120000000 cycles: 63028231 heartbeat IPC: 1.10782 cumulative IPC: 1.05362 (Simulation time: 0 hr 3 min 5 sec) 
Heartbeat CPU 0 instructions: 130000000 cycles: 72089873 heartbeat IPC: 1.10355 cumulative IPC: 1.06976 (Simulation time: 0 hr 3 min 24 sec) 
Heartbeat CPU 0 instructions: 140000000 cycles: 81246402 heartbeat IPC: 1.09212 cumulative IPC: 1.07526 (Simulation time: 0 hr 3 min 43 sec) 
Heartbeat CPU 0 instructions: 150000000 cycles: 92358879 heartbeat IPC: 0.899889 cumulative IPC: 1.03492 (Simulation time: 0 hr 4 min 2 sec) 
Heartbeat CPU 0 instructions: 160000000 cycles: 102625769 heartbeat IPC: 0.974005 cumulative IPC: 1.02425 (Simulation time: 0 hr 4 min 21 sec) 
Heartbeat CPU 0 instructions: 170000000 cycles: 112644889 heartbeat IPC: 0.998092 cumulative IPC: 1.02043 (Simulation time: 0 hr 4 min 40 sec) 
Heartbeat CPU 0 instructions: 180000000 cycles: 122475652 heartbeat IPC: 1.01722 cumulative IPC: 1.02002 (Simulation time: 0 hr 4 min 59 sec) 
Heartbeat CPU 0 instructions: 190000002 cycles: 132363100 heartbeat IPC: 1.01138 cumulative IPC: 1.01906 (Simulation time: 0 hr 5 min 18 sec) 
Heartbeat CPU 0 instructions: 200000000 cycles: 141654390 heartbeat IPC: 1.07628 cumulative IPC: 1.0245 (Simulation time: 0 hr 5 min 37 sec) 
Heartbeat CPU 0 instructions: 210000000 cycles: 151306305 heartbeat IPC: 1.03606 cumulative IPC: 1.02554 (Simulation time: 0 hr 5 min 56 sec) 
Heartbeat CPU 0 instructions: 220000000 cycles: 160202783 heartbeat IPC: 1.12404 cumulative IPC: 1.03309 (Simulation time: 0 hr 6 min 15 sec) 
Heartbeat CPU 0 instructions: 230000001 cycles: 172267460 heartbeat IPC: 0.828866 cumulative IPC: 1.01387 (Simulation time: 0 hr 6 min 35 sec) 
Heartbeat CPU 0 instructions: 240000000 cycles: 182832077 heartbeat IPC: 0.946556 cumulative IPC: 1.00875 (Simulation time: 0 hr 6 min 55 sec) 
Heartbeat CPU 0 instructions: 250000002 cycles: 192803348 heartbeat IPC: 1.00288 cumulative IPC: 1.00835 (Simulation time: 0 hr 7 min 13 sec) 
Heartbeat CPU 0 instructions: 260000000 cycles: 202487545 heartbeat IPC: 1.03261 cumulative IPC: 1.00984 (Simulation time: 0 hr 7 min 32 sec) 
Heartbeat CPU 0 instructions: 270000001 cycles: 211948130 heartbeat IPC: 1.05702 cumulative IPC: 1.0125 (Simulation time: 0 hr 7 min 51 sec) 
Heartbeat CPU 0 instructions: 280000000 cycles: 221704932 heartbeat IPC: 1.02493 cumulative IPC: 1.01318 (Simulation time: 0 hr 8 min 10 sec) 
Heartbeat CPU 0 instructions: 290000002 cycles: 230776546 heartbeat IPC: 1.10234 cumulative IPC: 1.01751 (Simulation time: 0 hr 8 min 29 sec) 
Heartbeat CPU 0 instructions: 300000000 cycles: 240320133 heartbeat IPC: 1.04782 cumulative IPC: 1.01898 (Simulation time: 0 hr 8 min 47 sec) 
Heartbeat CPU 0 instructions: 310000000 cycles: 249261963 heartbeat IPC: 1.11834 cumulative IPC: 1.02331 (Simulation time: 0 hr 9 min 6 sec) 
Heartbeat CPU 0 instructions: 320000000 cycles: 258324769 heartbeat IPC: 1.10341 cumulative IPC: 1.0267 (Simulation time: 0 hr 9 min 25 sec) 
Heartbeat CPU 0 instructions: 330000003 cycles: 267555370 heartbeat IPC: 1.08335 cumulative IPC: 1.02904 (Simulation time: 0 hr 9 min 44 sec) 
Heartbeat CPU 0 instructions: 340000000 cycles: 277444210 heartbeat IPC: 1.01124 cumulative IPC: 1.02829 (Simulation time: 0 hr 10 min 3 sec) 
Heartbeat CPU 0 instructions: 350000000 cycles: 287861699 heartbeat IPC: 0.959924 cumulative IPC: 1.02537 (Simulation time: 0 hr 10 min 22 sec) 
Heartbeat CPU 0 instructions: 360000000 cycles: 297843632 heartbeat IPC: 1.00181 cumulative IPC: 1.02444 (Simulation time: 0 hr 10 min 41 sec) 
Heartbeat CPU 0 instructions: 370000000 cycles: 307524827 heartbeat IPC: 1.03293 cumulative IPC: 1.02475 (Simulation time: 0 hr 10 min 59 sec) 
Heartbeat CPU 0 instructions: 380000000 cycles: 316961214 heartbeat IPC: 1.05973 cumulative IPC: 1.02596 (Simulation time: 0 hr 11 min 18 sec) 
Heartbeat CPU 0 instructions: 390000002 cycles: 326119939 heartbeat IPC: 1.09186 cumulative IPC: 1.0281 (Simulation time: 0 hr 11 min 37 sec) 
Heartbeat CPU 0 instructions: 400000000 cycles: 335677492 heartbeat IPC: 1.04629 cumulative IPC: 1.0287 (Simulation time: 0 hr 11 min 56 sec) 
Heartbeat CPU 0 instructions: 410000000 cycles: 344543384 heartbeat IPC: 1.12792 cumulative IPC: 1.03162 (Simulation time: 0 hr 12 min 14 sec) 
Heartbeat CPU 0 instructions: 420000000 cycles: 355300839 heartbeat IPC: 0.929588 cumulative IPC: 1.0281 (Simulation time: 0 hr 12 min 34 sec) 
Heartbeat CPU 0 instructions: 430000000 cycles: 366195603 heartbeat IPC: 0.917872 cumulative IPC: 1.02437 (Simulation time: 0 hr 12 min 53 sec) 
Heartbeat CPU 0 instructions: 440000000 cycles: 376162821 heartbeat IPC: 1.00329 cumulative IPC: 1.02374 (Simulation time: 0 hr 13 min 11 sec) 
Heartbeat CPU 0 instructions: 450000000 cycles: 385986922 heartbeat IPC: 1.0179 cumulative IPC: 1.02357 (Simulation time: 0 hr 13 min 30 sec) 
Heartbeat CPU 0 instructions: 460000000 cycles: 395711937 heartbeat IPC: 1.02828 cumulative IPC: 1.0237 (Simulation time: 0 hr 13 min 48 sec) 
Heartbeat CPU 0 instructions: 470000001 cycles: 405480085 heartbeat IPC: 1.02374 cumulative IPC: 1.0237 (Simulation time: 0 hr 14 min 7 sec) 
Heartbeat CPU 0 instructions: 480000000 cycles: 414633503 heartbeat IPC: 1.09249 cumulative IPC: 1.0254 (Simulation time: 0 hr 14 min 25 sec) 
Heartbeat CPU 0 instructions: 490000000 cycles: 424288227 heartbeat IPC: 1.03576 cumulative IPC: 1.02566 (Simulation time: 0 hr 14 min 44 sec) 
Heartbeat CPU 0 instructions: 500000000 cycles: 433504613 heartbeat IPC: 1.08502 cumulative IPC: 1.02707 (Simulation time: 0 hr 15 min 2 sec) 
Heartbeat CPU 0 instructions: 510000000 cycles: 442509451 heartbeat IPC: 1.11051 cumulative IPC: 1.02895 (Simulation time: 0 hr 15 min 21 sec) 
Heartbeat CPU 0 instructions: 520000000 cycles: 451822309 heartbeat IPC: 1.07378 cumulative IPC: 1.02998 (Simulation time: 0 hr 15 min 39 sec) 
Heartbeat CPU 0 instructions: 530000001 cycles: 461922440 heartbeat IPC: 0.990086 cumulative IPC: 1.02901 (Simulation time: 0 hr 15 min 58 sec) 
Heartbeat CPU 0 instructions: 540000000 cycles: 472488368 heartbeat IPC: 0.946438 cumulative IPC: 1.02698 (Simulation time: 0 hr 16 min 17 sec) 
Heartbeat CPU 0 instructions: 550000003 cycles: 482633536 heartbeat IPC: 0.985691 cumulative IPC: 1.02602 (Simulation time: 0 hr 16 min 35 sec) 
Heartbeat CPU 0 instructions: 560000000 cycles: 492472450 heartbeat IPC: 1.01637 cumulative IPC: 1.02581 (Simulation time: 0 hr 16 min 53 sec) 
Heartbeat CPU 0 instructions: 570000002 cycles: 502064595 heartbeat IPC: 1.04252 cumulative IPC: 1.02616 (Simulation time: 0 hr 17 min 11 sec) 
Heartbeat CPU 0 instructions: 580000000 cycles: 511395057 heartbeat IPC: 1.07176 cumulative IPC: 1.02707 (Simulation time: 0 hr 17 min 29 sec) 
Heartbeat CPU 0 instructions: 590000002 cycles: 521050709 heartbeat IPC: 1.03566 cumulative IPC: 1.02724 (Simulation time: 0 hr 17 min 47 sec) 
Heartbeat CPU 0 instructions: 600000000 cycles: 530199232 heartbeat IPC: 1.09307 cumulative IPC: 1.02848 (Simulation time: 0 hr 18 min 5 sec) 
Finished CPU 0 instructions: 500000000 cycles: 486153140 cumulative IPC: 1.02848 (Simulation time: 0 hr 18 min 5 sec) 

CPU 0 Branch Prediction Accuracy: 97.8526% MPKI: 2.66709
Number of Branches: 62099103 Number of Mispredictions: 1333545
Number of LOAD Instructions: 210576465
Number of LOAD Instructions (ROI): 210576465
Number of STORE Instructions: 16915507
Number of STORE Instructions (ROI): 16915507
Total Destination Memory Operands: 16918869
Total Destination Memory Operands (ROI): 16918869
Total Source Memory Operands: 210576465
Total Source Memory Operands (ROI): 210576465
Number of DEPENDED LOADS: 345782
Number of DEPENDED LOADS (ROI): 345782
Number of SQ_ADDED: 16918826
Number of SQ_ADDED (ROI): 16918826
Number of LQ_ADDED: 210603629
Number of LQ_ADDED (ROI): 210603629
Number of Instructions read from trace: 600000257

ChampSim completed all CPUs

Region of Interest Statistics

CPU 0 cumulative IPC: 1.02848 instructions: 500000000 cycles: 486153140
ITLB TOTAL     ACCESS:   76406070  HIT:   76406032  MISS:         38
ITLB LOAD      ACCESS:   76406070  HIT:   76406032  MISS:         38
ITLB RFO       ACCESS:          0  HIT:          0  MISS:          0
ITLB PREFETCH  ACCESS:          0  HIT:          0  MISS:          0
ITLB WRITEBACK ACCESS:          0  HIT:          0  MISS:          0
ITLB PREFETCH  REQUESTED:          0  ISSUED:          0  USEFUL:          0  USELESS:          0
ITLB TOTAL MSHR MERGED:         37
ITLB LOAD MSHR MERGED:         37
ITLB RFO MSHR MERGED:          0
ITLB PREFETCH MSHR MERGED:          0
ITLB WRITEBACK MSHR MERGED:          0
ITLB TOTAL ACCESSES:   76406107 HITS:   76406032 MISSES:         75
ITLB LOAD ACCESSES:   76406107 HITS:   76406032 MISSES:         75
ITLB RFO ACCESSES:          0 HITS:          0 MISSES:          0
ITLB PREFETCH ACCESSES:          0 HITS:          0 MISSES:          0
ITLB WRITEBACK ACCESSES:          0 HITS:          0 MISSES:          0
ITLB RQ ACCESS:  500000188
ITLB RQ TO_CACHE:   76406108
ITLB RQ MERGED:  423594080
ITLB RQ FORWARD:          0
ITLB WQ ACCESS:          0
ITLB WQ TO_CACHE:          0
ITLB WQ MERGED:          0
ITLB WQ FORWARD:          0
DTLB TOTAL     ACCESS:  136676081  HIT:  136473285  MISS:     202796
DTLB LOAD      ACCESS:  128613806  HIT:  128413731  MISS:     200075
DTLB RFO       ACCESS:    8062275  HIT:    8059554  MISS:       2721
DTLB PREFETCH  ACCESS:          0  HIT:          0  MISS:          0
DTLB WRITEBACK ACCESS:          0  HIT:          0  MISS:          0
DTLB PREFETCH  REQUESTED:          0  ISSUED:          0  USEFUL:          0  USELESS:          0
DTLB TOTAL MSHR MERGED:     447387
DTLB LOAD MSHR MERGED:     443505
DTLB RFO MSHR MERGED:       3882
DTLB PREFETCH MSHR MERGED:          0
DTLB WRITEBACK MSHR MERGED:          0
DTLB TOTAL ACCESSES:  137123468 HITS:  136473285 MISSES:     650183
DTLB LOAD ACCESSES:  129057311 HITS:  128413731 MISSES:     643580
DTLB RFO ACCESSES:    8066157 HITS:    8059554 MISSES:       6603
DTLB PREFETCH ACCESSES:          0 HITS:          0 MISSES:          0
DTLB WRITEBACK ACCESSES:          0 HITS:          0 MISSES:          0
DTLB RQ ACCESS:  189418777
DTLB RQ TO_CACHE:  137123468
DTLB RQ MERGED:   52295309
DTLB RQ FORWARD:          0
DTLB WQ ACCESS:          0
DTLB WQ TO_CACHE:          0
DTLB WQ MERGED:          0
DTLB WQ FORWARD:          0
L1D TOTAL     ACCESS:  125002560  HIT:  107445516  MISS:   17557044
L1D LOAD      ACCESS:   72184562  HIT:   61864249  MISS:   10320313
L1D RFO       ACCESS:   14014323  HIT:   13861488  MISS:     152835
L1D PREFETCH  ACCESS:   38803675  HIT:   31719779  MISS:    7083896
L1D WRITEBACK ACCESS:          0  HIT:          0  MISS:          0
L1D PREFETCH  REQUESTED:   85485914  ISSUED:   84165328  USEFUL:    5824445  USELESS:    1259462
L1D TOTAL MSHR MERGED:   31962077
L1D LOAD MSHR MERGED:   18519807
L1D RFO MSHR MERGED:     265481
L1D PREFETCH MSHR MERGED:   13176789
L1D WRITEBACK MSHR MERGED:          0
L1D TOTAL ACCESSES:  156965130 HITS:  107446010 MISSES:   49519120
L1D LOAD ACCESSES:   85485919 HITS:   61864254 MISSES:   23621665
L1D RFO ACCESSES:   14279777 HITS:   13861488 MISSES:     418289
L1D PREFETCH ACCESSES:   57199434 HITS:   31720268 MISSES:   25479166
L1D WRITEBACK ACCESSES:          0 HITS:          0 MISSES:          0
L1D RQ ACCESS:  175129755
L1D RQ TO_CACHE:   85485914
L1D RQ MERGED:   89643836
L1D RQ FORWARD:          0
L1D WQ ACCESS:   14289037
L1D WQ TO_CACHE:   14279777
L1D WQ MERGED:       9260
L1D WQ FORWARD:        494
L1I TOTAL     ACCESS:   93440672  HIT:   93438876  MISS:       1796
L1I LOAD      ACCESS:   93440672  HIT:   93438876  MISS:       1796
L1I RFO       ACCESS:          0  HIT:          0  MISS:          0
L1I PREFETCH  ACCESS:          0  HIT:          0  MISS:          0
L1I WRITEBACK ACCESS:          0  HIT:          0  MISS:          0
L1I PREFETCH  REQUESTED:          0  ISSUED:          0  USEFUL:          0  USELESS:          0
L1I TOTAL MSHR MERGED:       2334
L1I LOAD MSHR MERGED:       2334
L1I RFO MSHR MERGED:          0
L1I PREFETCH MSHR MERGED:          0
L1I WRITEBACK MSHR MERGED:          0
L1I TOTAL ACCESSES:   93443006 HITS:   93438876 MISSES:       4130
L1I LOAD ACCESSES:   93443006 HITS:   93438876 MISSES:       4130
L1I RFO ACCESSES:          0 HITS:          0 MISSES:          0
L1I PREFETCH ACCESSES:          0 HITS:          0 MISSES:          0
L1I WRITEBACK ACCESSES:          0 HITS:          0 MISSES:          0
L1I RQ ACCESS:  500000187
L1I RQ TO_CACHE:   93443006
L1I RQ MERGED:  406557181
L1I RQ FORWARD:          0
L1I WQ ACCESS:          0
L1I WQ TO_CACHE:          0
L1I WQ MERGED:          0
L1I WQ FORWARD:          0
L2C TOTAL     ACCESS:   20893855  HIT:    8665207  MISS:   12228648
L2C LOAD      ACCESS:    5103631  HIT:    2140839  MISS:    2962792
L2C RFO       ACCESS:     152808  HIT:       6518  MISS:     146290
L2C PREFETCH  ACCESS:   13864663  HIT:    4745208  MISS:    9119455
L2C WRITEBACK ACCESS:    1772753  HIT:    1772642  MISS:        111
L2C PREFETCH  REQUESTED:    1806114  ISSUED:    1806114  USEFUL:    1062282  USELESS:    8058840
L2C TOTAL MSHR MERGED:     100584
L2C LOAD MSHR MERGED:      23828
L2C RFO MSHR MERGED:          0
L2C PREFETCH MSHR MERGED:      76756
L2C WRITEBACK MSHR MERGED:          0
L2C TOTAL ACCESSES:   21018303 HITS:    8665251 MISSES:   12353052
L2C LOAD ACCESSES:    5103654 HITS:    2140862 MISSES:    2962792
L2C RFO ACCESSES:     152808 HITS:       6518 MISSES:     146290
L2C PREFETCH ACCESSES:   13989088 HITS:    4745229 MISSES:    9243859
L2C WRITEBACK ACCESSES:    1772753 HITS:    1772642 MISSES:        111
L2C RQ ACCESS:    5256462
L2C RQ TO_CACHE:    5256439
L2C RQ MERGED:          0
L2C RQ FORWARD:          0
L2C WQ ACCESS:    1772753
L2C WQ TO_CACHE:    1772753
L2C WQ MERGED:          0
L2C WQ FORWARD:         44
LLC TOTAL     ACCESS:   12532647  HIT:    6583280  MISS:    5949367
LLC LOAD      ACCESS:    2938946  HIT:    2429755  MISS:     509191
LLC RFO       ACCESS:     146290  HIT:      98083  MISS:      48207
LLC PREFETCH  ACCESS:    9161440  HIT:    3806599  MISS:    5354841
LLC WRITEBACK ACCESS:     285971  HIT:     248843  MISS:      37128
LLC PREFETCH  REQUESTED:          0  ISSUED:          0  USEFUL:       5317  USELESS:    5349550
LLC TOTAL MSHR MERGED:        934
LLC LOAD MSHR MERGED:        163
LLC RFO MSHR MERGED:          0
LLC PREFETCH MSHR MERGED:        771
LLC WRITEBACK MSHR MERGED:          0
LLC TOTAL ACCESSES:   12533611 HITS:    6583310 MISSES:    5950301
LLC LOAD ACCESSES:    2938964 HITS:    2429773 MISSES:     509191
LLC RFO ACCESSES:     146290 HITS:      98083 MISSES:      48207
LLC PREFETCH ACCESSES:    9162386 HITS:    3806611 MISSES:    5355775
LLC WRITEBACK ACCESSES:     285971 HITS:     248843 MISSES:      37128
LLC 0 RQ ACCESS:    3085254
LLC 0 RQ TO_CACHE:    3085236
LLC 0 RQ MERGED:          0
LLC 0 RQ FORWARD:          0
LLC WQ ACCESS:     285971
LLC WQ TO_CACHE:     285971
LLC WQ MERGED:          0
LLC WQ FORWARD:         30
Major fault: 0 Minor fault: 6524
CPU 0 L1D next line prefetcher final stats
CPU 0 L2C PC-based stride prefetcher final stats
All Misses: 7748781
All Hits: 7308880
SD Algo Stats - Switches: 0 SRR-Repls: 538205 BRR-Repls: 0

DRAM Statistics
 CHANNEL 0
 RQ ROW_BUFFER_HIT:    5126344  ROW_BUFFER_MISS:     780859
 DBUS_CONGESTED:    2179051
 WQ ROW_BUFFER_HIT:       8352  ROW_BUFFER_MISS:      51592  FULL:          0

 AVG_CONGESTED_CYCLE: 12
LOADS RETIRED: 175418235
INSTR RETIRED: 500000000
