
*** ChampSim Multicore Out-of-Order Simulator ***

Warmup Instructions: 100000000
Simulation Instructions: 500000000
Number of CPUs: 1
LLC sets: 2048
LLC ways: 16
Clean RRIP Policies: 2213230222132302 Dirty RRIP Policies: 1203130212031302 PSEL Width: 10 Track Set: 4294967295 PSEL Mask: 1 Demote Mask: 2240100022401000DS Algo: 0Window size: 0
Off-chip DRAM Size: 4096 MB Channels: 1 Width: 64-bit Data Rate: 1600 MT/s

CPU 0 runs /mnt/beegfs/iconst01/spec2017/Roms.trace.gz
NOT SORTED
TRACE STRING: /mnt/beegfs/iconst01/spec2017/Roms.trace.gz
SORTED
TRACE STRING: /mnt/beegfs/iconst01/spec2017/Roms.trace.gz
INITIAL
TRACE STRING: /mnt/beegfs/iconst01/spec2017/Roms.trace.gz

champsim_seed used: 417

CPU 0 L1D next line prefetcher
CPU 0 L2C IP-based stride prefetcher
Initialize DRRIP state
Assign rand_sets[0]: 454  LLC: 2048
rand_sets[0]: 454
Assign rand_sets[1]: 1662  LLC: 2048
rand_sets[1]: 1662
Assign rand_sets[2]: 1921  LLC: 2048
rand_sets[2]: 1921
Assign rand_sets[3]: 1131  LLC: 2048
rand_sets[3]: 1131
Assign rand_sets[4]: 331  LLC: 2048
rand_sets[4]: 331
Assign rand_sets[5]: 1531  LLC: 2048
rand_sets[5]: 1531
Assign rand_sets[6]: 482  LLC: 2048
rand_sets[6]: 482
Assign rand_sets[7]: 1275  LLC: 2048
rand_sets[7]: 1275
Assign rand_sets[8]: 1876  LLC: 2048
rand_sets[8]: 1876
Assign rand_sets[9]: 2038  LLC: 2048
rand_sets[9]: 2038
Assign rand_sets[10]: 701  LLC: 2048
rand_sets[10]: 701
Assign rand_sets[11]: 479  LLC: 2048
rand_sets[11]: 479
Assign rand_sets[12]: 892  LLC: 2048
rand_sets[12]: 892
Assign rand_sets[13]: 1820  LLC: 2048
rand_sets[13]: 1820
Assign rand_sets[14]: 1505  LLC: 2048
rand_sets[14]: 1505
Assign rand_sets[15]: 1159  LLC: 2048
rand_sets[15]: 1159
Assign rand_sets[16]: 513  LLC: 2048
rand_sets[16]: 513
Assign rand_sets[17]: 703  LLC: 2048
rand_sets[17]: 703
Assign rand_sets[18]: 561  LLC: 2048
rand_sets[18]: 561
Assign rand_sets[19]: 990  LLC: 2048
rand_sets[19]: 990
Assign rand_sets[20]: 342  LLC: 2048
rand_sets[20]: 342
Assign rand_sets[21]: 882  LLC: 2048
rand_sets[21]: 882
Assign rand_sets[22]: 15  LLC: 2048
rand_sets[22]: 15
Assign rand_sets[23]: 71  LLC: 2048
rand_sets[23]: 71
Assign rand_sets[24]: 1127  LLC: 2048
rand_sets[24]: 1127
Assign rand_sets[25]: 1382  LLC: 2048
rand_sets[25]: 1382
Assign rand_sets[26]: 647  LLC: 2048
rand_sets[26]: 647
Assign rand_sets[27]: 857  LLC: 2048
rand_sets[27]: 857
Assign rand_sets[28]: 1450  LLC: 2048
rand_sets[28]: 1450
Assign rand_sets[29]: 1160  LLC: 2048
rand_sets[29]: 1160
Assign rand_sets[30]: 1852  LLC: 2048
rand_sets[30]: 1852
Assign rand_sets[31]: 1881  LLC: 2048
rand_sets[31]: 1881
Assign rand_sets[32]: 1770  LLC: 2048
rand_sets[32]: 1770
Assign rand_sets[33]: 1622  LLC: 2048
rand_sets[33]: 1622
Assign rand_sets[34]: 275  LLC: 2048
rand_sets[34]: 275
Assign rand_sets[35]: 635  LLC: 2048
rand_sets[35]: 635
Assign rand_sets[36]: 466  LLC: 2048
rand_sets[36]: 466
Assign rand_sets[37]: 1413  LLC: 2048
rand_sets[37]: 1413
Assign rand_sets[38]: 417  LLC: 2048
rand_sets[38]: 417
Assign rand_sets[39]: 472  LLC: 2048
rand_sets[39]: 472
Assign rand_sets[40]: 1340  LLC: 2048
rand_sets[40]: 1340
Assign rand_sets[41]: 852  LLC: 2048
rand_sets[41]: 852
Assign rand_sets[42]: 1365  LLC: 2048
rand_sets[42]: 1365
Assign rand_sets[43]: 47  LLC: 2048
rand_sets[43]: 47
Assign rand_sets[44]: 823  LLC: 2048
rand_sets[44]: 823
Assign rand_sets[45]: 686  LLC: 2048
rand_sets[45]: 686
Assign rand_sets[46]: 1637  LLC: 2048
rand_sets[46]: 1637
Assign rand_sets[47]: 1115  LLC: 2048
rand_sets[47]: 1115
Assign rand_sets[48]: 986  LLC: 2048
rand_sets[48]: 986
Assign rand_sets[49]: 258  LLC: 2048
rand_sets[49]: 258
Assign rand_sets[50]: 633  LLC: 2048
rand_sets[50]: 633
Assign rand_sets[51]: 920  LLC: 2048
rand_sets[51]: 920
Assign rand_sets[52]: 204  LLC: 2048
rand_sets[52]: 204
Assign rand_sets[53]: 227  LLC: 2048
rand_sets[53]: 227
Assign rand_sets[54]: 1818  LLC: 2048
rand_sets[54]: 1818
Assign rand_sets[55]: 886  LLC: 2048
rand_sets[55]: 886
Assign rand_sets[56]: 1422  LLC: 2048
rand_sets[56]: 1422
Assign rand_sets[57]: 607  LLC: 2048
rand_sets[57]: 607
Assign rand_sets[58]: 217  LLC: 2048
rand_sets[58]: 217
Assign rand_sets[59]: 1945  LLC: 2048
rand_sets[59]: 1945
Assign rand_sets[60]: 143  LLC: 2048
rand_sets[60]: 143
Assign rand_sets[61]: 1311  LLC: 2048
rand_sets[61]: 1311
Assign rand_sets[62]: 319  LLC: 2048
rand_sets[62]: 319
Assign rand_sets[63]: 1846  LLC: 2048
rand_sets[63]: 1846
 CLEAN-RRIP-POLICY-1: 2-2-1-3-2-3-0-2- CLEAN-RRIP-POLICY-2: 2-2-1-3-2-3-0-2-
 DIRTY-RRIP-POLICY-1: 1-2-0-3-1-3-0-2- DIRTY-RRIP-POLICY-2: 1-2-0-3-1-3-0-2-
 PSEL width: 10
Heartbeat CPU 0 instructions: 10000000 cycles: 4688066 heartbeat IPC: 2.13308 cumulative IPC: 2.13308 (Simulation time: 0 hr 0 min 18 sec) 
Heartbeat CPU 0 instructions: 20000000 cycles: 9325334 heartbeat IPC: 2.15644 cumulative IPC: 2.1447 (Simulation time: 0 hr 0 min 35 sec) 
Heartbeat CPU 0 instructions: 30000003 cycles: 14019722 heartbeat IPC: 2.1302 cumulative IPC: 2.13984 (Simulation time: 0 hr 0 min 53 sec) 
Heartbeat CPU 0 instructions: 40000000 cycles: 18670140 heartbeat IPC: 2.15034 cumulative IPC: 2.14246 (Simulation time: 0 hr 1 min 11 sec) 
Heartbeat CPU 0 instructions: 50000003 cycles: 23323497 heartbeat IPC: 2.14899 cumulative IPC: 2.14376 (Simulation time: 0 hr 1 min 28 sec) 
Heartbeat CPU 0 instructions: 60000000 cycles: 27976129 heartbeat IPC: 2.14932 cumulative IPC: 2.14469 (Simulation time: 0 hr 1 min 45 sec) 
Heartbeat CPU 0 instructions: 70000002 cycles: 32367337 heartbeat IPC: 2.27728 cumulative IPC: 2.16267 (Simulation time: 0 hr 2 min 1 sec) 
Heartbeat CPU 0 instructions: 80000000 cycles: 36304251 heartbeat IPC: 2.54006 cumulative IPC: 2.2036 (Simulation time: 0 hr 2 min 13 sec) 
Heartbeat CPU 0 instructions: 90000000 cycles: 40249521 heartbeat IPC: 2.53468 cumulative IPC: 2.23605 (Simulation time: 0 hr 2 min 25 sec) 
Heartbeat CPU 0 instructions: 100000000 cycles: 44211895 heartbeat IPC: 2.52374 cumulative IPC: 2.26183 (Simulation time: 0 hr 2 min 38 sec) 

Warmup complete CPU 0 instructions: 100000002 cycles: 44211896 (Simulation time: 0 hr 2 min 38 sec) 

Heartbeat CPU 0 instructions: 110000000 cycles: 52923595 heartbeat IPC: 1.14788 cumulative IPC: 1.14788 (Simulation time: 0 hr 2 min 57 sec) 
Heartbeat CPU 0 instructions: 120000000 cycles: 61645345 heartbeat IPC: 1.14656 cumulative IPC: 1.14722 (Simulation time: 0 hr 3 min 17 sec) 
Heartbeat CPU 0 instructions: 130000002 cycles: 70386577 heartbeat IPC: 1.144 cumulative IPC: 1.14615 (Simulation time: 0 hr 3 min 36 sec) 
Heartbeat CPU 0 instructions: 140000000 cycles: 78992918 heartbeat IPC: 1.16193 cumulative IPC: 1.15005 (Simulation time: 0 hr 3 min 56 sec) 
Heartbeat CPU 0 instructions: 150000003 cycles: 87765299 heartbeat IPC: 1.13994 cumulative IPC: 1.14802 (Simulation time: 0 hr 4 min 15 sec) 
Heartbeat CPU 0 instructions: 160000000 cycles: 98159962 heartbeat IPC: 0.962032 cumulative IPC: 1.11218 (Simulation time: 0 hr 4 min 37 sec) 
Heartbeat CPU 0 instructions: 170000002 cycles: 110642706 heartbeat IPC: 0.801106 cumulative IPC: 1.05373 (Simulation time: 0 hr 5 min 2 sec) 
Heartbeat CPU 0 instructions: 180000000 cycles: 123133575 heartbeat IPC: 0.800585 cumulative IPC: 1.01366 (Simulation time: 0 hr 5 min 26 sec) 
Heartbeat CPU 0 instructions: 190000000 cycles: 135896442 heartbeat IPC: 0.783523 cumulative IPC: 0.981627 (Simulation time: 0 hr 5 min 51 sec) 
Heartbeat CPU 0 instructions: 200000000 cycles: 149798813 heartbeat IPC: 0.719302 cumulative IPC: 0.947087 (Simulation time: 0 hr 6 min 16 sec) 
Heartbeat CPU 0 instructions: 210000001 cycles: 163734660 heartbeat IPC: 0.717574 cumulative IPC: 0.920327 (Simulation time: 0 hr 6 min 41 sec) 
Heartbeat CPU 0 instructions: 220000000 cycles: 177554287 heartbeat IPC: 0.723608 cumulative IPC: 0.899939 (Simulation time: 0 hr 7 min 6 sec) 
Heartbeat CPU 0 instructions: 230000000 cycles: 191180135 heartbeat IPC: 0.733899 cumulative IPC: 0.884545 (Simulation time: 0 hr 7 min 32 sec) 
Heartbeat CPU 0 instructions: 240000000 cycles: 204894757 heartbeat IPC: 0.729149 cumulative IPC: 0.871281 (Simulation time: 0 hr 7 min 57 sec) 
Heartbeat CPU 0 instructions: 250000003 cycles: 216067709 heartbeat IPC: 0.895019 cumulative IPC: 0.872825 (Simulation time: 0 hr 8 min 21 sec) 
Heartbeat CPU 0 instructions: 260000000 cycles: 223936643 heartbeat IPC: 1.27082 cumulative IPC: 0.89025 (Simulation time: 0 hr 8 min 41 sec) 
Heartbeat CPU 0 instructions: 270000003 cycles: 232459791 heartbeat IPC: 1.17328 cumulative IPC: 0.903065 (Simulation time: 0 hr 9 min 2 sec) 
Heartbeat CPU 0 instructions: 280000000 cycles: 242118531 heartbeat IPC: 1.03533 cumulative IPC: 0.90952 (Simulation time: 0 hr 9 min 24 sec) 
Heartbeat CPU 0 instructions: 290000000 cycles: 251468332 heartbeat IPC: 1.06954 cumulative IPC: 0.916739 (Simulation time: 0 hr 9 min 46 sec) 
Heartbeat CPU 0 instructions: 300000000 cycles: 260653304 heartbeat IPC: 1.08873 cumulative IPC: 0.924038 (Simulation time: 0 hr 10 min 8 sec) 
Heartbeat CPU 0 instructions: 310000000 cycles: 269871448 heartbeat IPC: 1.08482 cumulative IPC: 0.930605 (Simulation time: 0 hr 10 min 31 sec) 
Heartbeat CPU 0 instructions: 320000000 cycles: 278972470 heartbeat IPC: 1.09878 cumulative IPC: 0.937125 (Simulation time: 0 hr 10 min 54 sec) 
Heartbeat CPU 0 instructions: 330000002 cycles: 288014086 heartbeat IPC: 1.106 cumulative IPC: 0.943388 (Simulation time: 0 hr 11 min 16 sec) 
Heartbeat CPU 0 instructions: 340000000 cycles: 298412487 heartbeat IPC: 0.961686 cumulative IPC: 0.944136 (Simulation time: 0 hr 11 min 40 sec) 
Heartbeat CPU 0 instructions: 350000001 cycles: 307395855 heartbeat IPC: 1.11317 cumulative IPC: 0.949906 (Simulation time: 0 hr 12 min 2 sec) 
Heartbeat CPU 0 instructions: 360000000 cycles: 316310531 heartbeat IPC: 1.12175 cumulative IPC: 0.955536 (Simulation time: 0 hr 12 min 24 sec) 
Heartbeat CPU 0 instructions: 370000001 cycles: 325157572 heartbeat IPC: 1.13032 cumulative IPC: 0.96104 (Simulation time: 0 hr 12 min 45 sec) 
Heartbeat CPU 0 instructions: 380000000 cycles: 333894253 heartbeat IPC: 1.1446 cumulative IPC: 0.966576 (Simulation time: 0 hr 13 min 7 sec) 
Heartbeat CPU 0 instructions: 390000001 cycles: 342398741 heartbeat IPC: 1.17585 cumulative IPC: 0.972545 (Simulation time: 0 hr 13 min 28 sec) 
Heartbeat CPU 0 instructions: 400000000 cycles: 350945934 heartbeat IPC: 1.16997 cumulative IPC: 0.978046 (Simulation time: 0 hr 13 min 49 sec) 
Heartbeat CPU 0 instructions: 410000003 cycles: 359367921 heartbeat IPC: 1.18737 cumulative IPC: 0.98364 (Simulation time: 0 hr 14 min 10 sec) 
Heartbeat CPU 0 instructions: 420000000 cycles: 367862678 heartbeat IPC: 1.1772 cumulative IPC: 0.98872 (Simulation time: 0 hr 14 min 31 sec) 
Heartbeat CPU 0 instructions: 430000001 cycles: 376259694 heartbeat IPC: 1.1909 cumulative IPC: 0.993833 (Simulation time: 0 hr 14 min 52 sec) 
Heartbeat CPU 0 instructions: 440000000 cycles: 384588254 heartbeat IPC: 1.20069 cumulative IPC: 0.998894 (Simulation time: 0 hr 15 min 12 sec) 
Heartbeat CPU 0 instructions: 450000001 cycles: 394186665 heartbeat IPC: 1.04184 cumulative IPC: 1.00007 (Simulation time: 0 hr 15 min 35 sec) 
Heartbeat CPU 0 instructions: 460000000 cycles: 402535225 heartbeat IPC: 1.19781 cumulative IPC: 1.00468 (Simulation time: 0 hr 15 min 56 sec) 
Heartbeat CPU 0 instructions: 470000003 cycles: 410741825 heartbeat IPC: 1.21853 cumulative IPC: 1.00947 (Simulation time: 0 hr 16 min 17 sec) 
Heartbeat CPU 0 instructions: 480000000 cycles: 418971909 heartbeat IPC: 1.21505 cumulative IPC: 1.01398 (Simulation time: 0 hr 16 min 37 sec) 
Heartbeat CPU 0 instructions: 490000000 cycles: 427170824 heartbeat IPC: 1.21967 cumulative IPC: 1.01839 (Simulation time: 0 hr 16 min 57 sec) 
Heartbeat CPU 0 instructions: 500000000 cycles: 435371431 heartbeat IPC: 1.21942 cumulative IPC: 1.0226 (Simulation time: 0 hr 17 min 18 sec) 
Heartbeat CPU 0 instructions: 510000001 cycles: 443528740 heartbeat IPC: 1.22589 cumulative IPC: 1.02675 (Simulation time: 0 hr 17 min 38 sec) 
Heartbeat CPU 0 instructions: 520000000 cycles: 451711477 heartbeat IPC: 1.22208 cumulative IPC: 1.03068 (Simulation time: 0 hr 17 min 58 sec) 
Heartbeat CPU 0 instructions: 530000001 cycles: 459899861 heartbeat IPC: 1.22124 cumulative IPC: 1.03443 (Simulation time: 0 hr 18 min 18 sec) 
Heartbeat CPU 0 instructions: 540000000 cycles: 468255057 heartbeat IPC: 1.19686 cumulative IPC: 1.03763 (Simulation time: 0 hr 18 min 39 sec) 
Heartbeat CPU 0 instructions: 550000000 cycles: 476648564 heartbeat IPC: 1.1914 cumulative IPC: 1.04061 (Simulation time: 0 hr 18 min 59 sec) 
Heartbeat CPU 0 instructions: 560000000 cycles: 484810735 heartbeat IPC: 1.22516 cumulative IPC: 1.04403 (Simulation time: 0 hr 19 min 20 sec) 
Heartbeat CPU 0 instructions: 570000001 cycles: 496084768 heartbeat IPC: 0.886994 cumulative IPC: 1.04012 (Simulation time: 0 hr 19 min 42 sec) 
Heartbeat CPU 0 instructions: 580000000 cycles: 507078105 heartbeat IPC: 0.909642 cumulative IPC: 1.03702 (Simulation time: 0 hr 20 min 4 sec) 
Heartbeat CPU 0 instructions: 590000001 cycles: 518278286 heartbeat IPC: 0.892843 cumulative IPC: 1.03361 (Simulation time: 0 hr 20 min 26 sec) 
Heartbeat CPU 0 instructions: 600000000 cycles: 529207004 heartbeat IPC: 0.91502 cumulative IPC: 1.03094 (Simulation time: 0 hr 20 min 48 sec) 
Finished CPU 0 instructions: 500000001 cycles: 484995121 cumulative IPC: 1.03094 (Simulation time: 0 hr 20 min 48 sec) 

CPU 0 Branch Prediction Accuracy: 99.7422% MPKI: 0.173296
Number of Branches: 33608403 Number of Mispredictions: 86648
Number of LOAD Instructions: 180215231
Number of LOAD Instructions (ROI): 180215231
Number of STORE Instructions: 36067263
Number of STORE Instructions (ROI): 36067263
Total Destination Memory Operands: 38428915
Total Destination Memory Operands (ROI): 38428915
Total Source Memory Operands: 180215231
Total Source Memory Operands (ROI): 180215231
Number of DEPENDED LOADS: 3041457
Number of DEPENDED LOADS (ROI): 3041457
Number of SQ_ADDED: 38428892
Number of SQ_ADDED (ROI): 38428892
Number of LQ_ADDED: 207740764
Number of LQ_ADDED (ROI): 207740764
Number of Instructions read from trace: 600000257

ChampSim completed all CPUs

Region of Interest Statistics

CPU 0 cumulative IPC: 1.03094 instructions: 500000001 cycles: 484995121
ITLB TOTAL     ACCESS:   91934989  HIT:   91934970  MISS:         19
ITLB LOAD      ACCESS:   91934989  HIT:   91934970  MISS:         19
ITLB RFO       ACCESS:          0  HIT:          0  MISS:          0
ITLB PREFETCH  ACCESS:          0  HIT:          0  MISS:          0
ITLB WRITEBACK ACCESS:          0  HIT:          0  MISS:          0
ITLB PREFETCH  REQUESTED:          0  ISSUED:          0  USEFUL:          0  USELESS:          0
ITLB TOTAL MSHR MERGED:         40
ITLB LOAD MSHR MERGED:         40
ITLB RFO MSHR MERGED:          0
ITLB PREFETCH MSHR MERGED:          0
ITLB WRITEBACK MSHR MERGED:          0
ITLB TOTAL ACCESSES:   91935029 HITS:   91934970 MISSES:         59
ITLB LOAD ACCESSES:   91935029 HITS:   91934970 MISSES:         59
ITLB RFO ACCESSES:          0 HITS:          0 MISSES:          0
ITLB PREFETCH ACCESSES:          0 HITS:          0 MISSES:          0
ITLB WRITEBACK ACCESSES:          0 HITS:          0 MISSES:          0
ITLB RQ ACCESS:  500000003
ITLB RQ TO_CACHE:   91935029
ITLB RQ MERGED:  408064974
ITLB RQ FORWARD:          0
ITLB WQ ACCESS:          0
ITLB WQ TO_CACHE:          0
ITLB WQ MERGED:          0
ITLB WQ FORWARD:          0
DTLB TOTAL     ACCESS:  142034631  HIT:  141668170  MISS:     366461
DTLB LOAD      ACCESS:  119398103  HIT:  119084518  MISS:     313585
DTLB RFO       ACCESS:   22636528  HIT:   22583652  MISS:      52876
DTLB PREFETCH  ACCESS:          0  HIT:          0  MISS:          0
DTLB WRITEBACK ACCESS:          0  HIT:          0  MISS:          0
DTLB PREFETCH  REQUESTED:          0  ISSUED:          0  USEFUL:          0  USELESS:          0
DTLB TOTAL MSHR MERGED:     285507
DTLB LOAD MSHR MERGED:     237820
DTLB RFO MSHR MERGED:      47687
DTLB PREFETCH MSHR MERGED:          0
DTLB WRITEBACK MSHR MERGED:          0
DTLB TOTAL ACCESSES:  142320138 HITS:  141668170 MISSES:     651968
DTLB LOAD ACCESSES:  119635923 HITS:  119084518 MISSES:     551405
DTLB RFO ACCESSES:   22684215 HITS:   22583652 MISSES:     100563
DTLB PREFETCH ACCESSES:          0 HITS:          0 MISSES:          0
DTLB WRITEBACK ACCESSES:          0 HITS:          0 MISSES:          0
DTLB RQ ACCESS:  184791520
DTLB RQ TO_CACHE:  142320138
DTLB RQ MERGED:   42471382
DTLB RQ FORWARD:          0
DTLB WQ ACCESS:          0
DTLB WQ TO_CACHE:          0
DTLB WQ MERGED:          0
DTLB WQ FORWARD:          0
L1D TOTAL     ACCESS:  189131264  HIT:  175682918  MISS:   13448346
L1D LOAD      ACCESS:  111819888  HIT:  108462503  MISS:    3357385
L1D RFO       ACCESS:   18649864  HIT:   15868113  MISS:    2781751
L1D PREFETCH  ACCESS:   58661512  HIT:   51352302  MISS:    7309210
L1D WRITEBACK ACCESS:          0  HIT:          0  MISS:          0
L1D PREFETCH  REQUESTED:  116504792  ISSUED:  115144120  USEFUL:    7099733  USELESS:     209478
L1D TOTAL MSHR MERGED:   32630306
L1D LOAD MSHR MERGED:    7486241
L1D RFO MSHR MERGED:    9602865
L1D PREFETCH MSHR MERGED:   15541200
L1D WRITEBACK MSHR MERGED:          0
L1D TOTAL ACCESSES:  221761983 HITS:  175683329 MISSES:   46078654
L1D LOAD ACCESSES:  116504841 HITS:  108462552 MISSES:    8042289
L1D RFO ACCESSES:   28252675 HITS:   15868113 MISSES:   12384562
L1D PREFETCH ACCESSES:   77004467 HITS:   51352664 MISSES:   25651803
L1D WRITEBACK ACCESSES:          0 HITS:          0 MISSES:          0
L1D RQ ACCESS:  156535454
L1D RQ TO_CACHE:  116504795
L1D RQ MERGED:   40030610
L1D RQ FORWARD:          0
L1D WQ ACCESS:   28256066
L1D WQ TO_CACHE:   28252675
L1D WQ MERGED:       3391
L1D WQ FORWARD:        411
L1I TOTAL     ACCESS:  115919824  HIT:  115918876  MISS:        948
L1I LOAD      ACCESS:  115919824  HIT:  115918876  MISS:        948
L1I RFO       ACCESS:          0  HIT:          0  MISS:          0
L1I PREFETCH  ACCESS:          0  HIT:          0  MISS:          0
L1I WRITEBACK ACCESS:          0  HIT:          0  MISS:          0
L1I PREFETCH  REQUESTED:          0  ISSUED:          0  USEFUL:          0  USELESS:          0
L1I TOTAL MSHR MERGED:       1574
L1I LOAD MSHR MERGED:       1574
L1I RFO MSHR MERGED:          0
L1I PREFETCH MSHR MERGED:          0
L1I WRITEBACK MSHR MERGED:          0
L1I TOTAL ACCESSES:  115921398 HITS:  115918876 MISSES:       2522
L1I LOAD ACCESSES:  115921398 HITS:  115918876 MISSES:       2522
L1I RFO ACCESSES:          0 HITS:          0 MISSES:          0
L1I PREFETCH ACCESSES:          0 HITS:          0 MISSES:          0
L1I WRITEBACK ACCESSES:          0 HITS:          0 MISSES:          0
L1I RQ ACCESS:  500000007
L1I RQ TO_CACHE:  115921398
L1I RQ MERGED:  384078609
L1I RQ FORWARD:          0
L1I WQ ACCESS:          0
L1I WQ TO_CACHE:          0
L1I WQ MERGED:          0
L1I WQ FORWARD:          0
L2C TOTAL     ACCESS:   16693860  HIT:    4849588  MISS:   11844272
L2C LOAD      ACCESS:     556959  HIT:      95344  MISS:     461615
L2C RFO       ACCESS:    2781697  HIT:     266746  MISS:    2514951
L2C PREFETCH  ACCESS:   10134575  HIT:    1269149  MISS:    8865426
L2C WRITEBACK ACCESS:    3220629  HIT:    3218349  MISS:       2280
L2C PREFETCH  REQUESTED:      25885  ISSUED:      25885  USEFUL:      93035  USELESS:    8770452
L2C TOTAL MSHR MERGED:        445
L2C LOAD MSHR MERGED:          2
L2C RFO MSHR MERGED:          0
L2C PREFETCH MSHR MERGED:        443
L2C WRITEBACK MSHR MERGED:          0
L2C TOTAL ACCESSES:   16694439 HITS:    4849648 MISSES:   11844791
L2C LOAD ACCESSES:     556996 HITS:      95381 MISSES:     461615
L2C RFO ACCESSES:    2781697 HITS:     266746 MISSES:    2514951
L2C PREFETCH ACCESSES:   10135117 HITS:    1269172 MISSES:    8865945
L2C WRITEBACK ACCESSES:    3220629 HITS:    3218349 MISSES:       2280
L2C RQ ACCESS:    3338693
L2C RQ TO_CACHE:    3338656
L2C RQ MERGED:          0
L2C RQ FORWARD:          0
L2C WQ ACCESS:    3220629
L2C WQ TO_CACHE:    3220629
L2C WQ MERGED:          0
L2C WQ FORWARD:         60
LLC TOTAL     ACCESS:   14742359  HIT:    6999129  MISS:    7743230
LLC LOAD      ACCESS:     461610  HIT:     188922  MISS:     272688
LLC RFO       ACCESS:    2514938  HIT:    1765367  MISS:     749571
LLC PREFETCH  ACCESS:    8865449  HIT:    2964518  MISS:    5900931
LLC WRITEBACK ACCESS:    2900362  HIT:    2080322  MISS:     820040
LLC PREFETCH  REQUESTED:          0  ISSUED:          0  USEFUL:       2989  USELESS:    5897476
LLC TOTAL MSHR MERGED:          1
LLC LOAD MSHR MERGED:          0
LLC RFO MSHR MERGED:          0
LLC PREFETCH MSHR MERGED:          1
LLC WRITEBACK MSHR MERGED:          0
LLC TOTAL ACCESSES:   14742427 HITS:    6999195 MISSES:    7743232
LLC LOAD ACCESSES:     461613 HITS:     188925 MISSES:     272688
LLC RFO ACCESSES:    2514951 HITS:    1765380 MISSES:     749571
LLC PREFETCH ACCESSES:    8865501 HITS:    2964568 MISSES:    5900933
LLC WRITEBACK ACCESSES:    2900362 HITS:    2080322 MISSES:     820040
LLC 0 RQ ACCESS:    2976564
LLC 0 RQ TO_CACHE:    2976548
LLC 0 RQ MERGED:          0
LLC 0 RQ FORWARD:          0
LLC WQ ACCESS:    2900363
LLC WQ TO_CACHE:    2900363
LLC WQ MERGED:          0
LLC WQ FORWARD:         66
Major fault: 0 Minor fault: 57518
CPU 0 L1D next line prefetcher final stats
CPU 0 L2C PC-based stride prefetcher final stats
All Misses: 8367400
All Hits: 7871140
SD Algo Stats - Switches: 0 SRR-Repls: 279450 BRR-Repls: 0

DRAM Statistics
 CHANNEL 0
 RQ ROW_BUFFER_HIT:    3797371  ROW_BUFFER_MISS:    3122760
 DBUS_CONGESTED:    3256808
 WQ ROW_BUFFER_HIT:     142036  ROW_BUFFER_MISS:     880506  FULL:          0

 AVG_CONGESTED_CYCLE: 12
LOADS RETIRED: 157818985
INSTR RETIRED: 500000000
