
*** ChampSim Multicore Out-of-Order Simulator ***

Warmup Instructions: 100000000
Simulation Instructions: 500000000
Number of CPUs: 1
LLC sets: 2048
LLC ways: 16
Clean RRIP Policies: 1213130112131301 Dirty RRIP Policies: 1213130112131301 PSEL Width: 10 Track Set: 4294967295 PSEL Mask: 1 Demote Mask: 1040002010400020DS Algo: 0Window size: 0
Off-chip DRAM Size: 4096 MB Channels: 1 Width: 64-bit Data Rate: 1600 MT/s

CPU 0 runs /mnt/beegfs/iconst01/spec2017/Lbm.trace.gz
NOT SORTED
TRACE STRING: /mnt/beegfs/iconst01/spec2017/Lbm.trace.gz
SORTED
TRACE STRING: /mnt/beegfs/iconst01/spec2017/Lbm.trace.gz
INITIAL
TRACE STRING: /mnt/beegfs/iconst01/spec2017/Lbm.trace.gz

champsim_seed used: 283

CPU 0 L1D next line prefetcher
CPU 0 L2C IP-based stride prefetcher
Initialize DRRIP state
Assign rand_sets[0]: 454  LLC: 2048
rand_sets[0]: 454
Assign rand_sets[1]: 1662  LLC: 2048
rand_sets[1]: 1662
Assign rand_sets[2]: 1921  LLC: 2048
rand_sets[2]: 1921
Assign rand_sets[3]: 1131  LLC: 2048
rand_sets[3]: 1131
Assign rand_sets[4]: 331  LLC: 2048
rand_sets[4]: 331
Assign rand_sets[5]: 1531  LLC: 2048
rand_sets[5]: 1531
Assign rand_sets[6]: 482  LLC: 2048
rand_sets[6]: 482
Assign rand_sets[7]: 1275  LLC: 2048
rand_sets[7]: 1275
Assign rand_sets[8]: 1876  LLC: 2048
rand_sets[8]: 1876
Assign rand_sets[9]: 2038  LLC: 2048
rand_sets[9]: 2038
Assign rand_sets[10]: 701  LLC: 2048
rand_sets[10]: 701
Assign rand_sets[11]: 479  LLC: 2048
rand_sets[11]: 479
Assign rand_sets[12]: 892  LLC: 2048
rand_sets[12]: 892
Assign rand_sets[13]: 1820  LLC: 2048
rand_sets[13]: 1820
Assign rand_sets[14]: 1505  LLC: 2048
rand_sets[14]: 1505
Assign rand_sets[15]: 1159  LLC: 2048
rand_sets[15]: 1159
Assign rand_sets[16]: 513  LLC: 2048
rand_sets[16]: 513
Assign rand_sets[17]: 703  LLC: 2048
rand_sets[17]: 703
Assign rand_sets[18]: 561  LLC: 2048
rand_sets[18]: 561
Assign rand_sets[19]: 990  LLC: 2048
rand_sets[19]: 990
Assign rand_sets[20]: 342  LLC: 2048
rand_sets[20]: 342
Assign rand_sets[21]: 882  LLC: 2048
rand_sets[21]: 882
Assign rand_sets[22]: 15  LLC: 2048
rand_sets[22]: 15
Assign rand_sets[23]: 71  LLC: 2048
rand_sets[23]: 71
Assign rand_sets[24]: 1127  LLC: 2048
rand_sets[24]: 1127
Assign rand_sets[25]: 1382  LLC: 2048
rand_sets[25]: 1382
Assign rand_sets[26]: 647  LLC: 2048
rand_sets[26]: 647
Assign rand_sets[27]: 857  LLC: 2048
rand_sets[27]: 857
Assign rand_sets[28]: 1450  LLC: 2048
rand_sets[28]: 1450
Assign rand_sets[29]: 1160  LLC: 2048
rand_sets[29]: 1160
Assign rand_sets[30]: 1852  LLC: 2048
rand_sets[30]: 1852
Assign rand_sets[31]: 1881  LLC: 2048
rand_sets[31]: 1881
Assign rand_sets[32]: 1770  LLC: 2048
rand_sets[32]: 1770
Assign rand_sets[33]: 1622  LLC: 2048
rand_sets[33]: 1622
Assign rand_sets[34]: 275  LLC: 2048
rand_sets[34]: 275
Assign rand_sets[35]: 635  LLC: 2048
rand_sets[35]: 635
Assign rand_sets[36]: 466  LLC: 2048
rand_sets[36]: 466
Assign rand_sets[37]: 1413  LLC: 2048
rand_sets[37]: 1413
Assign rand_sets[38]: 417  LLC: 2048
rand_sets[38]: 417
Assign rand_sets[39]: 472  LLC: 2048
rand_sets[39]: 472
Assign rand_sets[40]: 1340  LLC: 2048
rand_sets[40]: 1340
Assign rand_sets[41]: 852  LLC: 2048
rand_sets[41]: 852
Assign rand_sets[42]: 1365  LLC: 2048
rand_sets[42]: 1365
Assign rand_sets[43]: 47  LLC: 2048
rand_sets[43]: 47
Assign rand_sets[44]: 823  LLC: 2048
rand_sets[44]: 823
Assign rand_sets[45]: 686  LLC: 2048
rand_sets[45]: 686
Assign rand_sets[46]: 1637  LLC: 2048
rand_sets[46]: 1637
Assign rand_sets[47]: 1115  LLC: 2048
rand_sets[47]: 1115
Assign rand_sets[48]: 986  LLC: 2048
rand_sets[48]: 986
Assign rand_sets[49]: 258  LLC: 2048
rand_sets[49]: 258
Assign rand_sets[50]: 633  LLC: 2048
rand_sets[50]: 633
Assign rand_sets[51]: 920  LLC: 2048
rand_sets[51]: 920
Assign rand_sets[52]: 204  LLC: 2048
rand_sets[52]: 204
Assign rand_sets[53]: 227  LLC: 2048
rand_sets[53]: 227
Assign rand_sets[54]: 1818  LLC: 2048
rand_sets[54]: 1818
Assign rand_sets[55]: 886  LLC: 2048
rand_sets[55]: 886
Assign rand_sets[56]: 1422  LLC: 2048
rand_sets[56]: 1422
Assign rand_sets[57]: 607  LLC: 2048
rand_sets[57]: 607
Assign rand_sets[58]: 217  LLC: 2048
rand_sets[58]: 217
Assign rand_sets[59]: 1945  LLC: 2048
rand_sets[59]: 1945
Assign rand_sets[60]: 143  LLC: 2048
rand_sets[60]: 143
Assign rand_sets[61]: 1311  LLC: 2048
rand_sets[61]: 1311
Assign rand_sets[62]: 319  LLC: 2048
rand_sets[62]: 319
Assign rand_sets[63]: 1846  LLC: 2048
rand_sets[63]: 1846
 CLEAN-RRIP-POLICY-1: 1-2-1-3-1-3-0-1- CLEAN-RRIP-POLICY-2: 1-2-1-3-1-3-0-1-
 DIRTY-RRIP-POLICY-1: 1-2-1-3-1-3-0-1- DIRTY-RRIP-POLICY-2: 1-2-1-3-1-3-0-1-
 PSEL width: 10
Heartbeat CPU 0 instructions: 10000000 cycles: 4321586 heartbeat IPC: 2.31397 cumulative IPC: 2.31397 (Simulation time: 0 hr 0 min 18 sec) 
Heartbeat CPU 0 instructions: 20000000 cycles: 8643672 heartbeat IPC: 2.3137 cumulative IPC: 2.31383 (Simulation time: 0 hr 0 min 35 sec) 
Heartbeat CPU 0 instructions: 30000000 cycles: 12965480 heartbeat IPC: 2.31385 cumulative IPC: 2.31384 (Simulation time: 0 hr 0 min 52 sec) 
Heartbeat CPU 0 instructions: 40000000 cycles: 17291412 heartbeat IPC: 2.31164 cumulative IPC: 2.31329 (Simulation time: 0 hr 1 min 10 sec) 
Heartbeat CPU 0 instructions: 50000000 cycles: 21613323 heartbeat IPC: 2.31379 cumulative IPC: 2.31339 (Simulation time: 0 hr 1 min 27 sec) 
Heartbeat CPU 0 instructions: 60000000 cycles: 25935197 heartbeat IPC: 2.31381 cumulative IPC: 2.31346 (Simulation time: 0 hr 1 min 45 sec) 
Heartbeat CPU 0 instructions: 70000000 cycles: 30256699 heartbeat IPC: 2.31401 cumulative IPC: 2.31354 (Simulation time: 0 hr 2 min 2 sec) 
Heartbeat CPU 0 instructions: 80000000 cycles: 34582905 heartbeat IPC: 2.31149 cumulative IPC: 2.31328 (Simulation time: 0 hr 2 min 19 sec) 
Heartbeat CPU 0 instructions: 90000003 cycles: 38905036 heartbeat IPC: 2.31367 cumulative IPC: 2.31333 (Simulation time: 0 hr 2 min 37 sec) 
Heartbeat CPU 0 instructions: 100000000 cycles: 43226492 heartbeat IPC: 2.31403 cumulative IPC: 2.3134 (Simulation time: 0 hr 2 min 54 sec) 

Warmup complete CPU 0 instructions: 100000001 cycles: 43226493 (Simulation time: 0 hr 2 min 54 sec) 

Heartbeat CPU 0 instructions: 110000000 cycles: 57460751 heartbeat IPC: 0.70253 cumulative IPC: 0.70253 (Simulation time: 0 hr 3 min 19 sec) 
Heartbeat CPU 0 instructions: 120000000 cycles: 71773119 heartbeat IPC: 0.698696 cumulative IPC: 0.700608 (Simulation time: 0 hr 3 min 44 sec) 
Heartbeat CPU 0 instructions: 130000000 cycles: 85931902 heartbeat IPC: 0.706275 cumulative IPC: 0.702487 (Simulation time: 0 hr 4 min 9 sec) 
Heartbeat CPU 0 instructions: 140000000 cycles: 100111246 heartbeat IPC: 0.705251 cumulative IPC: 0.703176 (Simulation time: 0 hr 4 min 33 sec) 
Heartbeat CPU 0 instructions: 150000003 cycles: 113879343 heartbeat IPC: 0.726317 cumulative IPC: 0.707686 (Simulation time: 0 hr 4 min 58 sec) 
Heartbeat CPU 0 instructions: 160000000 cycles: 127874111 heartbeat IPC: 0.714553 cumulative IPC: 0.708821 (Simulation time: 0 hr 5 min 22 sec) 
Heartbeat CPU 0 instructions: 170000002 cycles: 142191506 heartbeat IPC: 0.698451 cumulative IPC: 0.707321 (Simulation time: 0 hr 5 min 47 sec) 
Heartbeat CPU 0 instructions: 180000000 cycles: 156310645 heartbeat IPC: 0.708258 cumulative IPC: 0.707438 (Simulation time: 0 hr 6 min 12 sec) 
Heartbeat CPU 0 instructions: 190000003 cycles: 173234633 heartbeat IPC: 0.590877 cumulative IPC: 0.692264 (Simulation time: 0 hr 6 min 39 sec) 
Heartbeat CPU 0 instructions: 200000000 cycles: 193768860 heartbeat IPC: 0.486992 cumulative IPC: 0.664265 (Simulation time: 0 hr 7 min 10 sec) 
Heartbeat CPU 0 instructions: 210000001 cycles: 208012544 heartbeat IPC: 0.702066 cumulative IPC: 0.667532 (Simulation time: 0 hr 7 min 34 sec) 
Heartbeat CPU 0 instructions: 220000000 cycles: 221913930 heartbeat IPC: 0.719353 cumulative IPC: 0.671564 (Simulation time: 0 hr 7 min 59 sec) 
Heartbeat CPU 0 instructions: 230000001 cycles: 236082707 heartbeat IPC: 0.705777 cumulative IPC: 0.674077 (Simulation time: 0 hr 8 min 24 sec) 
Heartbeat CPU 0 instructions: 240000000 cycles: 250412937 heartbeat IPC: 0.697825 cumulative IPC: 0.67572 (Simulation time: 0 hr 8 min 49 sec) 
Heartbeat CPU 0 instructions: 250000000 cycles: 264989143 heartbeat IPC: 0.68605 cumulative IPC: 0.676399 (Simulation time: 0 hr 9 min 14 sec) 
Heartbeat CPU 0 instructions: 260000000 cycles: 279865027 heartbeat IPC: 0.672229 cumulative IPC: 0.676137 (Simulation time: 0 hr 9 min 39 sec) 
Heartbeat CPU 0 instructions: 270000002 cycles: 294990695 heartbeat IPC: 0.661128 cumulative IPC: 0.675235 (Simulation time: 0 hr 10 min 5 sec) 
Heartbeat CPU 0 instructions: 280000000 cycles: 310044995 heartbeat IPC: 0.664262 cumulative IPC: 0.674616 (Simulation time: 0 hr 10 min 30 sec) 
Heartbeat CPU 0 instructions: 290000003 cycles: 325696693 heartbeat IPC: 0.638909 cumulative IPC: 0.672637 (Simulation time: 0 hr 10 min 56 sec) 
Heartbeat CPU 0 instructions: 300000000 cycles: 340652626 heartbeat IPC: 0.668631 cumulative IPC: 0.672436 (Simulation time: 0 hr 11 min 21 sec) 
Heartbeat CPU 0 instructions: 310000000 cycles: 356659002 heartbeat IPC: 0.624751 cumulative IPC: 0.670001 (Simulation time: 0 hr 11 min 48 sec) 
Heartbeat CPU 0 instructions: 320000000 cycles: 372399002 heartbeat IPC: 0.635324 cumulative IPC: 0.668343 (Simulation time: 0 hr 12 min 13 sec) 
Heartbeat CPU 0 instructions: 330000002 cycles: 387433447 heartbeat IPC: 0.665139 cumulative IPC: 0.668203 (Simulation time: 0 hr 12 min 39 sec) 
Heartbeat CPU 0 instructions: 340000000 cycles: 403493811 heartbeat IPC: 0.622651 cumulative IPC: 0.666172 (Simulation time: 0 hr 13 min 5 sec) 
Heartbeat CPU 0 instructions: 350000001 cycles: 418214864 heartbeat IPC: 0.679299 cumulative IPC: 0.666687 (Simulation time: 0 hr 13 min 30 sec) 
Heartbeat CPU 0 instructions: 360000000 cycles: 433782219 heartbeat IPC: 0.64237 cumulative IPC: 0.665718 (Simulation time: 0 hr 13 min 56 sec) 
Heartbeat CPU 0 instructions: 370000000 cycles: 448646448 heartbeat IPC: 0.672756 cumulative IPC: 0.665976 (Simulation time: 0 hr 14 min 21 sec) 
Heartbeat CPU 0 instructions: 380000000 cycles: 463731243 heartbeat IPC: 0.662919 cumulative IPC: 0.665866 (Simulation time: 0 hr 14 min 46 sec) 
Heartbeat CPU 0 instructions: 390000000 cycles: 478236457 heartbeat IPC: 0.689407 cumulative IPC: 0.666651 (Simulation time: 0 hr 15 min 11 sec) 
Heartbeat CPU 0 instructions: 400000000 cycles: 492702789 heartbeat IPC: 0.69126 cumulative IPC: 0.667443 (Simulation time: 0 hr 15 min 36 sec) 
Heartbeat CPU 0 instructions: 410000000 cycles: 506844359 heartbeat IPC: 0.707135 cumulative IPC: 0.668654 (Simulation time: 0 hr 16 min 0 sec) 
Heartbeat CPU 0 instructions: 420000000 cycles: 521218573 heartbeat IPC: 0.69569 cumulative IPC: 0.669467 (Simulation time: 0 hr 16 min 25 sec) 
Heartbeat CPU 0 instructions: 430000002 cycles: 534999946 heartbeat IPC: 0.725617 cumulative IPC: 0.671041 (Simulation time: 0 hr 16 min 50 sec) 
Heartbeat CPU 0 instructions: 440000000 cycles: 548831251 heartbeat IPC: 0.722997 cumulative IPC: 0.672462 (Simulation time: 0 hr 17 min 14 sec) 
Heartbeat CPU 0 instructions: 450000000 cycles: 562732732 heartbeat IPC: 0.719348 cumulative IPC: 0.673717 (Simulation time: 0 hr 17 min 38 sec) 
Heartbeat CPU 0 instructions: 460000000 cycles: 577454472 heartbeat IPC: 0.679268 cumulative IPC: 0.67387 (Simulation time: 0 hr 18 min 3 sec) 
Heartbeat CPU 0 instructions: 470000000 cycles: 591665329 heartbeat IPC: 0.703687 cumulative IPC: 0.674642 (Simulation time: 0 hr 18 min 28 sec) 
Heartbeat CPU 0 instructions: 480000000 cycles: 605621902 heartbeat IPC: 0.716508 cumulative IPC: 0.675681 (Simulation time: 0 hr 18 min 52 sec) 
Heartbeat CPU 0 instructions: 490000001 cycles: 619950345 heartbeat IPC: 0.697913 cumulative IPC: 0.676234 (Simulation time: 0 hr 19 min 17 sec) 
Heartbeat CPU 0 instructions: 500000000 cycles: 634383870 heartbeat IPC: 0.692831 cumulative IPC: 0.676639 (Simulation time: 0 hr 19 min 42 sec) 
Heartbeat CPU 0 instructions: 510000002 cycles: 648429520 heartbeat IPC: 0.711964 cumulative IPC: 0.677459 (Simulation time: 0 hr 20 min 6 sec) 
Heartbeat CPU 0 instructions: 520000000 cycles: 662263724 heartbeat IPC: 0.722846 cumulative IPC: 0.678473 (Simulation time: 0 hr 20 min 30 sec) 
Heartbeat CPU 0 instructions: 530000001 cycles: 676193353 heartbeat IPC: 0.717894 cumulative IPC: 0.67934 (Simulation time: 0 hr 20 min 55 sec) 
Heartbeat CPU 0 instructions: 540000000 cycles: 690572302 heartbeat IPC: 0.695461 cumulative IPC: 0.679699 (Simulation time: 0 hr 21 min 19 sec) 
Heartbeat CPU 0 instructions: 550000003 cycles: 704570132 heartbeat IPC: 0.714397 cumulative IPC: 0.680433 (Simulation time: 0 hr 21 min 44 sec) 
Heartbeat CPU 0 instructions: 560000000 cycles: 718980406 heartbeat IPC: 0.693949 cumulative IPC: 0.680721 (Simulation time: 0 hr 22 min 9 sec) 
Heartbeat CPU 0 instructions: 570000001 cycles: 733226801 heartbeat IPC: 0.701932 cumulative IPC: 0.681159 (Simulation time: 0 hr 22 min 33 sec) 
Heartbeat CPU 0 instructions: 580000000 cycles: 747109383 heartbeat IPC: 0.720327 cumulative IPC: 0.681932 (Simulation time: 0 hr 22 min 58 sec) 
Heartbeat CPU 0 instructions: 590000003 cycles: 760428549 heartbeat IPC: 0.750798 cumulative IPC: 0.683211 (Simulation time: 0 hr 23 min 22 sec) 
Heartbeat CPU 0 instructions: 600000000 cycles: 774335426 heartbeat IPC: 0.719068 cumulative IPC: 0.683893 (Simulation time: 0 hr 23 min 46 sec) 
Finished CPU 0 instructions: 500000000 cycles: 731108941 cumulative IPC: 0.683893 (Simulation time: 0 hr 23 min 46 sec) 

CPU 0 Branch Prediction Accuracy: 99.5915% MPKI: 0.037126
Number of Branches: 4544106 Number of Mispredictions: 18563
Number of LOAD Instructions: 149787067
Number of LOAD Instructions (ROI): 149787067
Number of STORE Instructions: 77239062
Number of STORE Instructions (ROI): 77239062
Total Destination Memory Operands: 77239062
Total Destination Memory Operands (ROI): 77239062
Total Source Memory Operands: 149787067
Total Source Memory Operands (ROI): 149787067
Number of DEPENDED LOADS: 19248052
Number of DEPENDED LOADS (ROI): 19248052
Number of SQ_ADDED: 77239036
Number of SQ_ADDED (ROI): 77239036
Number of LQ_ADDED: 149787020
Number of LQ_ADDED (ROI): 149787020
Number of Instructions read from trace: 600000256

ChampSim completed all CPUs

Region of Interest Statistics

CPU 0 cumulative IPC: 0.683893 instructions: 500000000 cycles: 731108941
ITLB TOTAL     ACCESS:   86450395  HIT:   86450394  MISS:          1
ITLB LOAD      ACCESS:   86450395  HIT:   86450394  MISS:          1
ITLB RFO       ACCESS:          0  HIT:          0  MISS:          0
ITLB PREFETCH  ACCESS:          0  HIT:          0  MISS:          0
ITLB WRITEBACK ACCESS:          0  HIT:          0  MISS:          0
ITLB PREFETCH  REQUESTED:          0  ISSUED:          0  USEFUL:          0  USELESS:          0
ITLB TOTAL MSHR MERGED:          1
ITLB LOAD MSHR MERGED:          1
ITLB RFO MSHR MERGED:          0
ITLB PREFETCH MSHR MERGED:          0
ITLB WRITEBACK MSHR MERGED:          0
ITLB TOTAL ACCESSES:   86450396 HITS:   86450394 MISSES:          2
ITLB LOAD ACCESSES:   86450396 HITS:   86450394 MISSES:          2
ITLB RFO ACCESSES:          0 HITS:          0 MISSES:          0
ITLB PREFETCH ACCESSES:          0 HITS:          0 MISSES:          0
ITLB WRITEBACK ACCESSES:          0 HITS:          0 MISSES:          0
ITLB RQ ACCESS:  500000002
ITLB RQ TO_CACHE:   86450396
ITLB RQ MERGED:  413549606
ITLB RQ FORWARD:          0
ITLB WQ ACCESS:          0
ITLB WQ TO_CACHE:          0
ITLB WQ MERGED:          0
ITLB WQ FORWARD:          0
DTLB TOTAL     ACCESS:   98106391  HIT:   97921130  MISS:     185261
DTLB LOAD      ACCESS:   55039952  HIT:   54993641  MISS:      46311
DTLB RFO       ACCESS:   43066439  HIT:   42927489  MISS:     138950
DTLB PREFETCH  ACCESS:          0  HIT:          0  MISS:          0
DTLB WRITEBACK ACCESS:          0  HIT:          0  MISS:          0
DTLB PREFETCH  REQUESTED:          0  ISSUED:          0  USEFUL:          0  USELESS:          0
DTLB TOTAL MSHR MERGED:      83546
DTLB LOAD MSHR MERGED:      83539
DTLB RFO MSHR MERGED:          7
DTLB PREFETCH MSHR MERGED:          0
DTLB WRITEBACK MSHR MERGED:          0
DTLB TOTAL ACCESSES:   98189937 HITS:   97921130 MISSES:     268807
DTLB LOAD ACCESSES:   55123491 HITS:   54993641 MISSES:     129850
DTLB RFO ACCESSES:   43066446 HITS:   42927489 MISSES:     138957
DTLB PREFETCH ACCESSES:          0 HITS:          0 MISSES:          0
DTLB WRITEBACK ACCESSES:          0 HITS:          0 MISSES:          0
DTLB RQ ACCESS:  173634475
DTLB RQ TO_CACHE:   98189937
DTLB RQ MERGED:   75444538
DTLB RQ FORWARD:          0
DTLB WQ ACCESS:          0
DTLB WQ TO_CACHE:          0
DTLB WQ MERGED:          0
DTLB WQ FORWARD:          0
L1D TOTAL     ACCESS:  164570647  HIT:  144998083  MISS:   19572564
L1D LOAD      ACCESS:   60540068  HIT:   58688226  MISS:    1851842
L1D RFO       ACCESS:   64513847  HIT:   47911708  MISS:   16602139
L1D PREFETCH  ACCESS:   39516732  HIT:   38398149  MISS:    1118583
L1D WRITEBACK ACCESS:          0  HIT:          0  MISS:          0
L1D PREFETCH  REQUESTED:   61723033  ISSUED:   61430704  USEFUL:    1116666  USELESS:       1917
L1D TOTAL MSHR MERGED:    3527013
L1D LOAD MSHR MERGED:    1254729
L1D RFO MSHR MERGED:      11513
L1D PREFETCH MSHR MERGED:    2260771
L1D WRITEBACK MSHR MERGED:          0
L1D TOTAL ACCESSES:  168663271 HITS:  145563695 MISSES:   23099576
L1D LOAD ACCESSES:   61981584 HITS:   58946777 MISSES:    3034807
L1D RFO ACCESSES:   64525335 HITS:   47911708 MISSES:   16613627
L1D PREFETCH ACCESSES:   42156352 HITS:   38705210 MISSES:    3451142
L1D WRITEBACK ACCESSES:          0 HITS:          0 MISSES:          0
L1D RQ ACCESS:  109093160
L1D RQ TO_CACHE:   61723033
L1D RQ MERGED:   47111576
L1D RQ FORWARD:          0
L1D WQ ACCESS:   64541313
L1D WQ TO_CACHE:   64525336
L1D WQ MERGED:      15977
L1D WQ FORWARD:     565612
L1I TOTAL     ACCESS:  107759352  HIT:  107759344  MISS:          8
L1I LOAD      ACCESS:  107759352  HIT:  107759344  MISS:          8
L1I RFO       ACCESS:          0  HIT:          0  MISS:          0
L1I PREFETCH  ACCESS:          0  HIT:          0  MISS:          0
L1I WRITEBACK ACCESS:          0  HIT:          0  MISS:          0
L1I PREFETCH  REQUESTED:          0  ISSUED:          0  USEFUL:          0  USELESS:          0
L1I TOTAL MSHR MERGED:          3
L1I LOAD MSHR MERGED:          3
L1I RFO MSHR MERGED:          0
L1I PREFETCH MSHR MERGED:          0
L1I WRITEBACK MSHR MERGED:          0
L1I TOTAL ACCESSES:  107759355 HITS:  107759344 MISSES:         11
L1I LOAD ACCESSES:  107759355 HITS:  107759344 MISSES:         11
L1I RFO ACCESSES:          0 HITS:          0 MISSES:          0
L1I PREFETCH ACCESSES:          0 HITS:          0 MISSES:          0
L1I WRITEBACK ACCESSES:          0 HITS:          0 MISSES:          0
L1I RQ ACCESS:  500000007
L1I RQ TO_CACHE:  107759355
L1I RQ MERGED:  392240652
L1I RQ FORWARD:          0
L1I WQ ACCESS:          0
L1I WQ TO_CACHE:          0
L1I WQ MERGED:          0
L1I WQ FORWARD:          0
L2C TOTAL     ACCESS:   36805966  HIT:   24848390  MISS:   11957576
L2C LOAD      ACCESS:    1780086  HIT:     254727  MISS:    1525359
L2C RFO       ACCESS:   16602110  HIT:    7610736  MISS:    8991374
L2C PREFETCH  ACCESS:    1821580  HIT:     381964  MISS:    1439616
L2C WRITEBACK ACCESS:   16602190  HIT:   16600963  MISS:       1227
L2C PREFETCH  REQUESTED:     813864  ISSUED:     813864  USEFUL:     252402  USELESS:    1187495
L2C TOTAL MSHR MERGED:       2798
L2C LOAD MSHR MERGED:        642
L2C RFO MSHR MERGED:          0
L2C PREFETCH MSHR MERGED:       2156
L2C WRITEBACK MSHR MERGED:          0
L2C TOTAL ACCESSES:   36988547 HITS:   24848395 MISSES:   12140152
L2C LOAD ACCESSES:    1780086 HITS:     254727 MISSES:    1525359
L2C RFO ACCESSES:   16602114 HITS:    7610741 MISSES:    8991373
L2C PREFETCH ACCESSES:    2004157 HITS:     381964 MISSES:    1622193
L2C WRITEBACK ACCESSES:   16602190 HITS:   16600963 MISSES:       1227
L2C RQ ACCESS:   18382200
L2C RQ TO_CACHE:   18382195
L2C RQ MERGED:          0
L2C RQ FORWARD:          0
L2C WQ ACCESS:   16602190
L2C WQ TO_CACHE:   16602190
L2C WQ MERGED:          0
L2C WQ FORWARD:          5
LLC TOTAL     ACCESS:   21125206  HIT:    1706014  MISS:   19419192
LLC LOAD      ACCESS:    1524717  HIT:      65024  MISS:    1459693
LLC RFO       ACCESS:    8991361  HIT:     668869  MISS:    8322492
LLC PREFETCH  ACCESS:    1616934  HIT:     111322  MISS:    1505612
LLC WRITEBACK ACCESS:    8992194  HIT:     860799  MISS:    8131395
LLC PREFETCH  REQUESTED:          0  ISSUED:          0  USEFUL:      64874  USELESS:    1440609
LLC TOTAL MSHR MERGED:       2728
LLC LOAD MSHR MERGED:        235
LLC RFO MSHR MERGED:          0
LLC PREFETCH MSHR MERGED:       2493
LLC WRITEBACK MSHR MERGED:          0
LLC TOTAL ACCESSES:   21127946 HITS:    1706027 MISSES:   19421919
LLC LOAD ACCESSES:    1524717 HITS:      65024 MISSES:    1459693
LLC RFO ACCESSES:    8991373 HITS:     668882 MISSES:    8322491
LLC PREFETCH ACCESSES:    1619662 HITS:     111322 MISSES:    1508340
LLC WRITEBACK ACCESSES:    8992194 HITS:     860799 MISSES:    8131395
LLC 0 RQ ACCESS:   10516090
LLC 0 RQ TO_CACHE:   10516077
LLC 0 RQ MERGED:          0
LLC 0 RQ FORWARD:          0
LLC WQ ACCESS:    8992194
LLC WQ TO_CACHE:    8992194
LLC WQ MERGED:          0
LLC WQ FORWARD:         13
Major fault: 0 Minor fault: 102360
CPU 0 L1D next line prefetcher final stats
CPU 0 L2C PC-based stride prefetcher final stats
All Misses: 23133562
All Hits: 1967155
SD Algo Stats - Switches: 0 SRR-Repls: 1638319 BRR-Repls: 0

DRAM Statistics
 CHANNEL 0
 RQ ROW_BUFFER_HIT:    3719477  ROW_BUFFER_MISS:    7566433
 DBUS_CONGESTED:   13434211
 WQ ROW_BUFFER_HIT:    1236428  ROW_BUFFER_MISS:    7085652  FULL:          0

 AVG_CONGESTED_CYCLE: 13
LOADS RETIRED: 124982196
INSTR RETIRED: 500000000
