
*** ChampSim Multicore Out-of-Order Simulator ***

Warmup Instructions: 100000000
Simulation Instructions: 500000000
Number of CPUs: 1
LLC sets: 2048
LLC ways: 16
Clean RRIP Policies: 1023110010231100 Dirty RRIP Policies: 1003110010031100 PSEL Width: 10 Track Set: 4294967295 PSEL Mask: 1 Demote Mask: 4034244440342444DS Algo: 0Window size: 0
Off-chip DRAM Size: 4096 MB Channels: 1 Width: 64-bit Data Rate: 1600 MT/s

CPU 0 runs /mnt/beegfs/iconst01/spec2017/Gcc.trace.gz
NOT SORTED
TRACE STRING: /mnt/beegfs/iconst01/spec2017/Gcc.trace.gz
SORTED
TRACE STRING: /mnt/beegfs/iconst01/spec2017/Gcc.trace.gz
INITIAL
TRACE STRING: /mnt/beegfs/iconst01/spec2017/Gcc.trace.gz

champsim_seed used: 269

CPU 0 L1D next line prefetcher
CPU 0 L2C IP-based stride prefetcher
Initialize DRRIP state
Assign rand_sets[0]: 454  LLC: 2048
rand_sets[0]: 454
Assign rand_sets[1]: 1662  LLC: 2048
rand_sets[1]: 1662
Assign rand_sets[2]: 1921  LLC: 2048
rand_sets[2]: 1921
Assign rand_sets[3]: 1131  LLC: 2048
rand_sets[3]: 1131
Assign rand_sets[4]: 331  LLC: 2048
rand_sets[4]: 331
Assign rand_sets[5]: 1531  LLC: 2048
rand_sets[5]: 1531
Assign rand_sets[6]: 482  LLC: 2048
rand_sets[6]: 482
Assign rand_sets[7]: 1275  LLC: 2048
rand_sets[7]: 1275
Assign rand_sets[8]: 1876  LLC: 2048
rand_sets[8]: 1876
Assign rand_sets[9]: 2038  LLC: 2048
rand_sets[9]: 2038
Assign rand_sets[10]: 701  LLC: 2048
rand_sets[10]: 701
Assign rand_sets[11]: 479  LLC: 2048
rand_sets[11]: 479
Assign rand_sets[12]: 892  LLC: 2048
rand_sets[12]: 892
Assign rand_sets[13]: 1820  LLC: 2048
rand_sets[13]: 1820
Assign rand_sets[14]: 1505  LLC: 2048
rand_sets[14]: 1505
Assign rand_sets[15]: 1159  LLC: 2048
rand_sets[15]: 1159
Assign rand_sets[16]: 513  LLC: 2048
rand_sets[16]: 513
Assign rand_sets[17]: 703  LLC: 2048
rand_sets[17]: 703
Assign rand_sets[18]: 561  LLC: 2048
rand_sets[18]: 561
Assign rand_sets[19]: 990  LLC: 2048
rand_sets[19]: 990
Assign rand_sets[20]: 342  LLC: 2048
rand_sets[20]: 342
Assign rand_sets[21]: 882  LLC: 2048
rand_sets[21]: 882
Assign rand_sets[22]: 15  LLC: 2048
rand_sets[22]: 15
Assign rand_sets[23]: 71  LLC: 2048
rand_sets[23]: 71
Assign rand_sets[24]: 1127  LLC: 2048
rand_sets[24]: 1127
Assign rand_sets[25]: 1382  LLC: 2048
rand_sets[25]: 1382
Assign rand_sets[26]: 647  LLC: 2048
rand_sets[26]: 647
Assign rand_sets[27]: 857  LLC: 2048
rand_sets[27]: 857
Assign rand_sets[28]: 1450  LLC: 2048
rand_sets[28]: 1450
Assign rand_sets[29]: 1160  LLC: 2048
rand_sets[29]: 1160
Assign rand_sets[30]: 1852  LLC: 2048
rand_sets[30]: 1852
Assign rand_sets[31]: 1881  LLC: 2048
rand_sets[31]: 1881
Assign rand_sets[32]: 1770  LLC: 2048
rand_sets[32]: 1770
Assign rand_sets[33]: 1622  LLC: 2048
rand_sets[33]: 1622
Assign rand_sets[34]: 275  LLC: 2048
rand_sets[34]: 275
Assign rand_sets[35]: 635  LLC: 2048
rand_sets[35]: 635
Assign rand_sets[36]: 466  LLC: 2048
rand_sets[36]: 466
Assign rand_sets[37]: 1413  LLC: 2048
rand_sets[37]: 1413
Assign rand_sets[38]: 417  LLC: 2048
rand_sets[38]: 417
Assign rand_sets[39]: 472  LLC: 2048
rand_sets[39]: 472
Assign rand_sets[40]: 1340  LLC: 2048
rand_sets[40]: 1340
Assign rand_sets[41]: 852  LLC: 2048
rand_sets[41]: 852
Assign rand_sets[42]: 1365  LLC: 2048
rand_sets[42]: 1365
Assign rand_sets[43]: 47  LLC: 2048
rand_sets[43]: 47
Assign rand_sets[44]: 823  LLC: 2048
rand_sets[44]: 823
Assign rand_sets[45]: 686  LLC: 2048
rand_sets[45]: 686
Assign rand_sets[46]: 1637  LLC: 2048
rand_sets[46]: 1637
Assign rand_sets[47]: 1115  LLC: 2048
rand_sets[47]: 1115
Assign rand_sets[48]: 986  LLC: 2048
rand_sets[48]: 986
Assign rand_sets[49]: 258  LLC: 2048
rand_sets[49]: 258
Assign rand_sets[50]: 633  LLC: 2048
rand_sets[50]: 633
Assign rand_sets[51]: 920  LLC: 2048
rand_sets[51]: 920
Assign rand_sets[52]: 204  LLC: 2048
rand_sets[52]: 204
Assign rand_sets[53]: 227  LLC: 2048
rand_sets[53]: 227
Assign rand_sets[54]: 1818  LLC: 2048
rand_sets[54]: 1818
Assign rand_sets[55]: 886  LLC: 2048
rand_sets[55]: 886
Assign rand_sets[56]: 1422  LLC: 2048
rand_sets[56]: 1422
Assign rand_sets[57]: 607  LLC: 2048
rand_sets[57]: 607
Assign rand_sets[58]: 217  LLC: 2048
rand_sets[58]: 217
Assign rand_sets[59]: 1945  LLC: 2048
rand_sets[59]: 1945
Assign rand_sets[60]: 143  LLC: 2048
rand_sets[60]: 143
Assign rand_sets[61]: 1311  LLC: 2048
rand_sets[61]: 1311
Assign rand_sets[62]: 319  LLC: 2048
rand_sets[62]: 319
Assign rand_sets[63]: 1846  LLC: 2048
rand_sets[63]: 1846
 CLEAN-RRIP-POLICY-1: 1-0-2-3-1-1-0-0- CLEAN-RRIP-POLICY-2: 1-0-2-3-1-1-0-0-
 DIRTY-RRIP-POLICY-1: 1-0-0-3-1-1-0-0- DIRTY-RRIP-POLICY-2: 1-0-0-3-1-1-0-0-
 PSEL width: 10
Heartbeat CPU 0 instructions: 10000001 cycles: 7315980 heartbeat IPC: 1.36687 cumulative IPC: 1.36687 (Simulation time: 0 hr 0 min 15 sec) 
Heartbeat CPU 0 instructions: 20000000 cycles: 14307434 heartbeat IPC: 1.43032 cumulative IPC: 1.39787 (Simulation time: 0 hr 0 min 29 sec) 
Heartbeat CPU 0 instructions: 30000001 cycles: 21020290 heartbeat IPC: 1.48968 cumulative IPC: 1.42719 (Simulation time: 0 hr 0 min 45 sec) 
Heartbeat CPU 0 instructions: 40000000 cycles: 27481075 heartbeat IPC: 1.5478 cumulative IPC: 1.45555 (Simulation time: 0 hr 1 min 1 sec) 
Heartbeat CPU 0 instructions: 50000001 cycles: 33582677 heartbeat IPC: 1.63891 cumulative IPC: 1.48886 (Simulation time: 0 hr 1 min 16 sec) 
Heartbeat CPU 0 instructions: 60000000 cycles: 40063706 heartbeat IPC: 1.54296 cumulative IPC: 1.49761 (Simulation time: 0 hr 1 min 32 sec) 
Heartbeat CPU 0 instructions: 70000000 cycles: 47101322 heartbeat IPC: 1.42094 cumulative IPC: 1.48616 (Simulation time: 0 hr 1 min 47 sec) 
Heartbeat CPU 0 instructions: 80000000 cycles: 54190710 heartbeat IPC: 1.41056 cumulative IPC: 1.47627 (Simulation time: 0 hr 2 min 2 sec) 
Heartbeat CPU 0 instructions: 90000003 cycles: 61194948 heartbeat IPC: 1.42771 cumulative IPC: 1.47071 (Simulation time: 0 hr 2 min 16 sec) 
Heartbeat CPU 0 instructions: 100000000 cycles: 68361969 heartbeat IPC: 1.39528 cumulative IPC: 1.4628 (Simulation time: 0 hr 2 min 31 sec) 

Warmup complete CPU 0 instructions: 100000004 cycles: 68361970 (Simulation time: 0 hr 2 min 31 sec) 

Heartbeat CPU 0 instructions: 110000003 cycles: 96000673 heartbeat IPC: 0.361812 cumulative IPC: 0.361811 (Simulation time: 0 hr 2 min 59 sec) 
Heartbeat CPU 0 instructions: 120000000 cycles: 123455088 heartbeat IPC: 0.36424 cumulative IPC: 0.363022 (Simulation time: 0 hr 3 min 28 sec) 
Heartbeat CPU 0 instructions: 130000000 cycles: 148424491 heartbeat IPC: 0.40049 cumulative IPC: 0.374707 (Simulation time: 0 hr 3 min 56 sec) 
Heartbeat CPU 0 instructions: 140000000 cycles: 177833511 heartbeat IPC: 0.340032 cumulative IPC: 0.365392 (Simulation time: 0 hr 4 min 24 sec) 
Heartbeat CPU 0 instructions: 150000000 cycles: 207645956 heartbeat IPC: 0.33543 cumulative IPC: 0.358979 (Simulation time: 0 hr 4 min 52 sec) 
Heartbeat CPU 0 instructions: 160000000 cycles: 235026548 heartbeat IPC: 0.365222 cumulative IPC: 0.360004 (Simulation time: 0 hr 5 min 19 sec) 
Heartbeat CPU 0 instructions: 170000001 cycles: 263041172 heartbeat IPC: 0.356956 cumulative IPC: 0.359566 (Simulation time: 0 hr 5 min 49 sec) 
Heartbeat CPU 0 instructions: 180000000 cycles: 291464257 heartbeat IPC: 0.351827 cumulative IPC: 0.35858 (Simulation time: 0 hr 6 min 18 sec) 
Heartbeat CPU 0 instructions: 190000002 cycles: 319440966 heartbeat IPC: 0.35744 cumulative IPC: 0.358453 (Simulation time: 0 hr 6 min 46 sec) 
Heartbeat CPU 0 instructions: 200000000 cycles: 347745789 heartbeat IPC: 0.353297 cumulative IPC: 0.357931 (Simulation time: 0 hr 7 min 15 sec) 
Heartbeat CPU 0 instructions: 210000002 cycles: 375529235 heartbeat IPC: 0.359927 cumulative IPC: 0.358111 (Simulation time: 0 hr 7 min 43 sec) 
Heartbeat CPU 0 instructions: 220000000 cycles: 404561390 heartbeat IPC: 0.344446 cumulative IPC: 0.356931 (Simulation time: 0 hr 8 min 10 sec) 
Heartbeat CPU 0 instructions: 230000000 cycles: 432068229 heartbeat IPC: 0.363546 cumulative IPC: 0.357431 (Simulation time: 0 hr 8 min 38 sec) 
Heartbeat CPU 0 instructions: 240000000 cycles: 457999217 heartbeat IPC: 0.385639 cumulative IPC: 0.359309 (Simulation time: 0 hr 9 min 4 sec) 
Heartbeat CPU 0 instructions: 250000000 cycles: 488121991 heartbeat IPC: 0.331975 cumulative IPC: 0.357347 (Simulation time: 0 hr 9 min 34 sec) 
Heartbeat CPU 0 instructions: 260000000 cycles: 515207782 heartbeat IPC: 0.369197 cumulative IPC: 0.358065 (Simulation time: 0 hr 10 min 2 sec) 
Heartbeat CPU 0 instructions: 270000003 cycles: 543643208 heartbeat IPC: 0.351674 cumulative IPC: 0.357683 (Simulation time: 0 hr 10 min 31 sec) 
Heartbeat CPU 0 instructions: 280000000 cycles: 571794813 heartbeat IPC: 0.355219 cumulative IPC: 0.357545 (Simulation time: 0 hr 11 min 0 sec) 
Heartbeat CPU 0 instructions: 290000000 cycles: 600614726 heartbeat IPC: 0.346982 cumulative IPC: 0.356973 (Simulation time: 0 hr 11 min 30 sec) 
Heartbeat CPU 0 instructions: 300000000 cycles: 630391679 heartbeat IPC: 0.33583 cumulative IPC: 0.355853 (Simulation time: 0 hr 11 min 57 sec) 
Heartbeat CPU 0 instructions: 310000001 cycles: 659718347 heartbeat IPC: 0.340987 cumulative IPC: 0.355116 (Simulation time: 0 hr 12 min 25 sec) 
Heartbeat CPU 0 instructions: 320000000 cycles: 687876148 heartbeat IPC: 0.355141 cumulative IPC: 0.355117 (Simulation time: 0 hr 12 min 53 sec) 
Heartbeat CPU 0 instructions: 330000000 cycles: 716463853 heartbeat IPC: 0.349801 cumulative IPC: 0.354882 (Simulation time: 0 hr 13 min 21 sec) 
Heartbeat CPU 0 instructions: 340000000 cycles: 745708664 heartbeat IPC: 0.341941 cumulative IPC: 0.354324 (Simulation time: 0 hr 13 min 49 sec) 
Heartbeat CPU 0 instructions: 350000003 cycles: 772676393 heartbeat IPC: 0.370814 cumulative IPC: 0.354955 (Simulation time: 0 hr 14 min 17 sec) 
Heartbeat CPU 0 instructions: 360000000 cycles: 800755733 heartbeat IPC: 0.356134 cumulative IPC: 0.355 (Simulation time: 0 hr 14 min 44 sec) 
Heartbeat CPU 0 instructions: 370000000 cycles: 828963195 heartbeat IPC: 0.354516 cumulative IPC: 0.354982 (Simulation time: 0 hr 15 min 11 sec) 
Heartbeat CPU 0 instructions: 380000000 cycles: 857484372 heartbeat IPC: 0.350617 cumulative IPC: 0.354825 (Simulation time: 0 hr 15 min 38 sec) 
Heartbeat CPU 0 instructions: 390000001 cycles: 885116687 heartbeat IPC: 0.361895 cumulative IPC: 0.355064 (Simulation time: 0 hr 16 min 4 sec) 
Heartbeat CPU 0 instructions: 400000000 cycles: 913764514 heartbeat IPC: 0.349067 cumulative IPC: 0.354861 (Simulation time: 0 hr 16 min 31 sec) 
Heartbeat CPU 0 instructions: 410000001 cycles: 941096848 heartbeat IPC: 0.365867 cumulative IPC: 0.355205 (Simulation time: 0 hr 16 min 58 sec) 
Heartbeat CPU 0 instructions: 420000000 cycles: 968442381 heartbeat IPC: 0.36569 cumulative IPC: 0.355524 (Simulation time: 0 hr 17 min 25 sec) 
Heartbeat CPU 0 instructions: 430000002 cycles: 996139489 heartbeat IPC: 0.361049 cumulative IPC: 0.355689 (Simulation time: 0 hr 17 min 52 sec) 
Heartbeat CPU 0 instructions: 440000000 cycles: 1025617616 heartbeat IPC: 0.339235 cumulative IPC: 0.355182 (Simulation time: 0 hr 18 min 19 sec) 
Heartbeat CPU 0 instructions: 450000002 cycles: 1054858851 heartbeat IPC: 0.341983 cumulative IPC: 0.354791 (Simulation time: 0 hr 18 min 46 sec) 
Heartbeat CPU 0 instructions: 460000000 cycles: 1082574098 heartbeat IPC: 0.360812 cumulative IPC: 0.354955 (Simulation time: 0 hr 19 min 13 sec) 
Heartbeat CPU 0 instructions: 470000000 cycles: 1110238948 heartbeat IPC: 0.36147 cumulative IPC: 0.355128 (Simulation time: 0 hr 19 min 40 sec) 
Heartbeat CPU 0 instructions: 480000000 cycles: 1138156722 heartbeat IPC: 0.358195 cumulative IPC: 0.355208 (Simulation time: 0 hr 20 min 7 sec) 
Heartbeat CPU 0 instructions: 490000000 cycles: 1165781294 heartbeat IPC: 0.361997 cumulative IPC: 0.355379 (Simulation time: 0 hr 20 min 34 sec) 
Heartbeat CPU 0 instructions: 500000000 cycles: 1194052362 heartbeat IPC: 0.353719 cumulative IPC: 0.355338 (Simulation time: 0 hr 21 min 1 sec) 
Heartbeat CPU 0 instructions: 510000000 cycles: 1228971096 heartbeat IPC: 0.286379 cumulative IPC: 0.353263 (Simulation time: 0 hr 21 min 31 sec) 
Heartbeat CPU 0 instructions: 520000000 cycles: 1256946620 heartbeat IPC: 0.357455 cumulative IPC: 0.353361 (Simulation time: 0 hr 21 min 59 sec) 
Heartbeat CPU 0 instructions: 530000001 cycles: 1286197239 heartbeat IPC: 0.341873 cumulative IPC: 0.353086 (Simulation time: 0 hr 22 min 27 sec) 
Heartbeat CPU 0 instructions: 540000000 cycles: 1314189453 heartbeat IPC: 0.357242 cumulative IPC: 0.353179 (Simulation time: 0 hr 22 min 55 sec) 
Heartbeat CPU 0 instructions: 550000001 cycles: 1343374478 heartbeat IPC: 0.342642 cumulative IPC: 0.352938 (Simulation time: 0 hr 23 min 25 sec) 
Heartbeat CPU 0 instructions: 560000000 cycles: 1368727919 heartbeat IPC: 0.394424 cumulative IPC: 0.353747 (Simulation time: 0 hr 23 min 52 sec) 
Heartbeat CPU 0 instructions: 570000000 cycles: 1398139186 heartbeat IPC: 0.340006 cumulative IPC: 0.353443 (Simulation time: 0 hr 24 min 20 sec) 
Heartbeat CPU 0 instructions: 580000000 cycles: 1426094015 heartbeat IPC: 0.35772 cumulative IPC: 0.353531 (Simulation time: 0 hr 24 min 49 sec) 
Heartbeat CPU 0 instructions: 590000001 cycles: 1450871245 heartbeat IPC: 0.403596 cumulative IPC: 0.354428 (Simulation time: 0 hr 25 min 15 sec) 
Heartbeat CPU 0 instructions: 600000000 cycles: 1477007557 heartbeat IPC: 0.382609 cumulative IPC: 0.354951 (Simulation time: 0 hr 25 min 42 sec) 
Finished CPU 0 instructions: 500000000 cycles: 1408645609 cumulative IPC: 0.354951 (Simulation time: 0 hr 25 min 42 sec) 

CPU 0 Branch Prediction Accuracy: 86.4311% MPKI: 26.2662
Number of Branches: 96788573 Number of Mispredictions: 13133102
Number of LOAD Instructions: 164682285
Number of LOAD Instructions (ROI): 164682285
Number of STORE Instructions: 78194750
Number of STORE Instructions (ROI): 78194750
Total Destination Memory Operands: 83268534
Total Destination Memory Operands (ROI): 83268534
Total Source Memory Operands: 164712438
Total Source Memory Operands (ROI): 164712438
Number of DEPENDED LOADS: 7062239
Number of DEPENDED LOADS (ROI): 7062239
Number of SQ_ADDED: 83268522
Number of SQ_ADDED (ROI): 83268522
Number of LQ_ADDED: 236702173
Number of LQ_ADDED (ROI): 236702173
Number of Instructions read from trace: 600000066

ChampSim completed all CPUs

Region of Interest Statistics

CPU 0 cumulative IPC: 0.354951 instructions: 500000000 cycles: 1408645609
ITLB TOTAL     ACCESS:  100509713  HIT:  100305267  MISS:     204446
ITLB LOAD      ACCESS:  100509713  HIT:  100305267  MISS:     204446
ITLB RFO       ACCESS:          0  HIT:          0  MISS:          0
ITLB PREFETCH  ACCESS:          0  HIT:          0  MISS:          0
ITLB WRITEBACK ACCESS:          0  HIT:          0  MISS:          0
ITLB PREFETCH  REQUESTED:          0  ISSUED:          0  USEFUL:          0  USELESS:          0
ITLB TOTAL MSHR MERGED:     172422
ITLB LOAD MSHR MERGED:     172422
ITLB RFO MSHR MERGED:          0
ITLB PREFETCH MSHR MERGED:          0
ITLB WRITEBACK MSHR MERGED:          0
ITLB TOTAL ACCESSES:  100682135 HITS:  100305267 MISSES:     376868
ITLB LOAD ACCESSES:  100682135 HITS:  100305267 MISSES:     376868
ITLB RFO ACCESSES:          0 HITS:          0 MISSES:          0
ITLB PREFETCH ACCESSES:          0 HITS:          0 MISSES:          0
ITLB WRITEBACK ACCESSES:          0 HITS:          0 MISSES:          0
ITLB RQ ACCESS:  500000057
ITLB RQ TO_CACHE:  100682135
ITLB RQ MERGED:  399317922
ITLB RQ FORWARD:          0
ITLB WQ ACCESS:          0
ITLB WQ TO_CACHE:          0
ITLB WQ MERGED:          0
ITLB WQ FORWARD:          0
DTLB TOTAL     ACCESS:  165333727  HIT:  164699376  MISS:     634351
DTLB LOAD      ACCESS:  106289898  HIT:  105719940  MISS:     569958
DTLB RFO       ACCESS:   59043829  HIT:   58979436  MISS:      64393
DTLB PREFETCH  ACCESS:          0  HIT:          0  MISS:          0
DTLB WRITEBACK ACCESS:          0  HIT:          0  MISS:          0
DTLB PREFETCH  REQUESTED:          0  ISSUED:          0  USEFUL:          0  USELESS:          0
DTLB TOTAL MSHR MERGED:      99972
DTLB LOAD MSHR MERGED:      59428
DTLB RFO MSHR MERGED:      40544
DTLB PREFETCH MSHR MERGED:          0
DTLB WRITEBACK MSHR MERGED:          0
DTLB TOTAL ACCESSES:  165433699 HITS:  164699376 MISSES:     734323
DTLB LOAD ACCESSES:  106349326 HITS:  105719940 MISSES:     629386
DTLB RFO ACCESSES:   59084373 HITS:   58979436 MISSES:     104937
DTLB PREFETCH ACCESSES:          0 HITS:          0 MISSES:          0
DTLB WRITEBACK ACCESSES:          0 HITS:          0 MISSES:          0
DTLB RQ ACCESS:  200308656
DTLB RQ TO_CACHE:  165433699
DTLB RQ MERGED:   34874957
DTLB RQ FORWARD:          0
DTLB WQ ACCESS:          0
DTLB WQ TO_CACHE:          0
DTLB WQ MERGED:          0
DTLB WQ FORWARD:          0
L1D TOTAL     ACCESS:  281785434  HIT:  273876204  MISS:    7909230
L1D LOAD      ACCESS:  110408381  HIT:  107126905  MISS:    3281476
L1D RFO       ACCESS:   67108780  HIT:   66217900  MISS:     890880
L1D PREFETCH  ACCESS:  104268273  HIT:  100531399  MISS:    3736874
L1D WRITEBACK ACCESS:          0  HIT:          0  MISS:          0
L1D PREFETCH  REQUESTED:  110815089  ISSUED:  109115828  USEFUL:    1657680  USELESS:    2079158
L1D TOTAL MSHR MERGED:    2914511
L1D LOAD MSHR MERGED:     507639
L1D RFO MSHR MERGED:    1877382
L1D PREFETCH MSHR MERGED:     529490
L1D WRITEBACK MSHR MERGED:          0
L1D TOTAL ACCESSES:  284727479 HITS:  273903738 MISSES:   10823741
L1D LOAD ACCESSES:  110816619 HITS:  107128435 MISSES:    3688184
L1D RFO ACCESSES:   68974074 HITS:   66217900 MISSES:    2756174
L1D PREFETCH ACCESSES:  104936786 HITS:  100557403 MISSES:    4379383
L1D WRITEBACK ACCESSES:          0 HITS:          0 MISSES:          0
L1D RQ ACCESS:  130756053
L1D RQ TO_CACHE:  110815092
L1D RQ MERGED:   19939431
L1D RQ FORWARD:          0
L1D WQ ACCESS:   69552603
L1D WQ TO_CACHE:   68974075
L1D WQ MERGED:     578528
L1D WQ FORWARD:      27534
L1I TOTAL     ACCESS:  126557598  HIT:  122319043  MISS:    4238555
L1I LOAD      ACCESS:  126557598  HIT:  122319043  MISS:    4238555
L1I RFO       ACCESS:          0  HIT:          0  MISS:          0
L1I PREFETCH  ACCESS:          0  HIT:          0  MISS:          0
L1I WRITEBACK ACCESS:          0  HIT:          0  MISS:          0
L1I PREFETCH  REQUESTED:          0  ISSUED:          0  USEFUL:          0  USELESS:          0
L1I TOTAL MSHR MERGED:    1834398
L1I LOAD MSHR MERGED:    1834398
L1I RFO MSHR MERGED:          0
L1I PREFETCH MSHR MERGED:          0
L1I WRITEBACK MSHR MERGED:          0
L1I TOTAL ACCESSES:  128391999 HITS:  122319043 MISSES:    6072956
L1I LOAD ACCESSES:  128391999 HITS:  122319043 MISSES:    6072956
L1I RFO ACCESSES:          0 HITS:          0 MISSES:          0
L1I PREFETCH ACCESSES:          0 HITS:          0 MISSES:          0
L1I WRITEBACK ACCESSES:          0 HITS:          0 MISSES:          0
L1I RQ ACCESS:  500000057
L1I RQ TO_CACHE:  128391999
L1I RQ MERGED:  371608058
L1I RQ FORWARD:          0
L1I WQ ACCESS:          0
L1I WQ TO_CACHE:          0
L1I WQ MERGED:          0
L1I WQ FORWARD:          0
L2C TOTAL     ACCESS:   14904459  HIT:   11158094  MISS:    3746365
L2C LOAD      ACCESS:    7418894  HIT:    5098772  MISS:    2320122
L2C RFO       ACCESS:     878694  HIT:     409916  MISS:     468778
L2C PREFETCH  ACCESS:    4567643  HIT:    3627439  MISS:     940204
L2C WRITEBACK ACCESS:    2039228  HIT:    2021967  MISS:      17261
L2C PREFETCH  REQUESTED:     842797  ISSUED:     842797  USEFUL:     203232  USELESS:     736678
L2C TOTAL MSHR MERGED:       7695
L2C LOAD MSHR MERGED:        910
L2C RFO MSHR MERGED:          0
L2C PREFETCH MSHR MERGED:       6785
L2C WRITEBACK MSHR MERGED:          0
L2C TOTAL ACCESSES:   14913077 HITS:   11158541 MISSES:    3754536
L2C LOAD ACCESSES:    7419100 HITS:    5098978 MISSES:    2320122
L2C RFO ACCESSES:     878792 HITS:     410014 MISSES:     468778
L2C PREFETCH ACCESSES:    4575957 HITS:    3627582 MISSES:     948375
L2C WRITEBACK ACCESSES:    2039228 HITS:    2021967 MISSES:      17261
L2C RQ ACCESS:    8297895
L2C RQ TO_CACHE:    8297591
L2C RQ MERGED:          0
L2C RQ FORWARD:          0
L2C WQ ACCESS:    2039228
L2C WQ TO_CACHE:    2039228
L2C WQ MERGED:          0
L2C WQ FORWARD:        447
LLC TOTAL     ACCESS:    4609654  HIT:    3904425  MISS:     705229
LLC LOAD      ACCESS:    2319200  HIT:    2092576  MISS:     226624
LLC RFO       ACCESS:     468767  HIT:     390815  MISS:      77952
LLC PREFETCH  ACCESS:     941445  HIT:     577958  MISS:     363487
LLC WRITEBACK ACCESS:     880242  HIT:     843076  MISS:      37166
LLC PREFETCH  REQUESTED:          0  ISSUED:          0  USEFUL:      15324  USELESS:     348791
LLC TOTAL MSHR MERGED:        126
LLC LOAD MSHR MERGED:         44
LLC RFO MSHR MERGED:          0
LLC PREFETCH MSHR MERGED:         82
LLC WRITEBACK MSHR MERGED:          0
LLC TOTAL ACCESSES:    4609814 HITS:    3904459 MISSES:     705355
LLC LOAD ACCESSES:    2319212 HITS:    2092588 MISSES:     226624
LLC RFO ACCESSES:     468778 HITS:     390826 MISSES:      77952
LLC PREFETCH ACCESSES:     941582 HITS:     577969 MISSES:     363613
LLC WRITEBACK ACCESSES:     880242 HITS:     843076 MISSES:      37166
LLC 0 RQ ACCESS:    2787990
LLC 0 RQ TO_CACHE:    2787967
LLC 0 RQ MERGED:          0
LLC 0 RQ FORWARD:          0
LLC WQ ACCESS:     880242
LLC WQ TO_CACHE:     880242
LLC WQ MERGED:          0
LLC WQ FORWARD:         34
Major fault: 0 Minor fault: 12862
CPU 0 L1D next line prefetcher final stats
CPU 0 L2C PC-based stride prefetcher final stats
All Misses: 825530
All Hits: 4601130
SD Algo Stats - Switches: 0 SRR-Repls: 264419 BRR-Repls: 0

DRAM Statistics
 CHANNEL 0
 RQ ROW_BUFFER_HIT:     127020  ROW_BUFFER_MISS:     540004
 DBUS_CONGESTED:     383724
 WQ ROW_BUFFER_HIT:      16332  ROW_BUFFER_MISS:     194979  FULL:          0

 AVG_CONGESTED_CYCLE: 13
LOADS RETIRED: 136549171
INSTR RETIRED: 500000000
