
*** ChampSim Multicore Out-of-Order Simulator ***

Warmup Instructions: 100000000
Simulation Instructions: 500000000
Number of CPUs: 1
LLC sets: 2048
LLC ways: 16
Clean RRIP Policies: 323022003230220 Dirty RRIP Policies: 2323021023230210 PSEL Width: 10 Track Set: 4294967295 PSEL Mask: 1 Demote Mask: 2340141323401413DS Algo: 0Window size: 0
Off-chip DRAM Size: 4096 MB Channels: 1 Width: 64-bit Data Rate: 1600 MT/s

CPU 0 runs /mnt/beegfs/iconst01/spec2017/Gcc.trace.gz
NOT SORTED
TRACE STRING: /mnt/beegfs/iconst01/spec2017/Gcc.trace.gz
SORTED
TRACE STRING: /mnt/beegfs/iconst01/spec2017/Gcc.trace.gz
INITIAL
TRACE STRING: /mnt/beegfs/iconst01/spec2017/Gcc.trace.gz

champsim_seed used: 269

CPU 0 L1D next line prefetcher
CPU 0 L2C IP-based stride prefetcher
Initialize DRRIP state
Assign rand_sets[0]: 454  LLC: 2048
rand_sets[0]: 454
Assign rand_sets[1]: 1662  LLC: 2048
rand_sets[1]: 1662
Assign rand_sets[2]: 1921  LLC: 2048
rand_sets[2]: 1921
Assign rand_sets[3]: 1131  LLC: 2048
rand_sets[3]: 1131
Assign rand_sets[4]: 331  LLC: 2048
rand_sets[4]: 331
Assign rand_sets[5]: 1531  LLC: 2048
rand_sets[5]: 1531
Assign rand_sets[6]: 482  LLC: 2048
rand_sets[6]: 482
Assign rand_sets[7]: 1275  LLC: 2048
rand_sets[7]: 1275
Assign rand_sets[8]: 1876  LLC: 2048
rand_sets[8]: 1876
Assign rand_sets[9]: 2038  LLC: 2048
rand_sets[9]: 2038
Assign rand_sets[10]: 701  LLC: 2048
rand_sets[10]: 701
Assign rand_sets[11]: 479  LLC: 2048
rand_sets[11]: 479
Assign rand_sets[12]: 892  LLC: 2048
rand_sets[12]: 892
Assign rand_sets[13]: 1820  LLC: 2048
rand_sets[13]: 1820
Assign rand_sets[14]: 1505  LLC: 2048
rand_sets[14]: 1505
Assign rand_sets[15]: 1159  LLC: 2048
rand_sets[15]: 1159
Assign rand_sets[16]: 513  LLC: 2048
rand_sets[16]: 513
Assign rand_sets[17]: 703  LLC: 2048
rand_sets[17]: 703
Assign rand_sets[18]: 561  LLC: 2048
rand_sets[18]: 561
Assign rand_sets[19]: 990  LLC: 2048
rand_sets[19]: 990
Assign rand_sets[20]: 342  LLC: 2048
rand_sets[20]: 342
Assign rand_sets[21]: 882  LLC: 2048
rand_sets[21]: 882
Assign rand_sets[22]: 15  LLC: 2048
rand_sets[22]: 15
Assign rand_sets[23]: 71  LLC: 2048
rand_sets[23]: 71
Assign rand_sets[24]: 1127  LLC: 2048
rand_sets[24]: 1127
Assign rand_sets[25]: 1382  LLC: 2048
rand_sets[25]: 1382
Assign rand_sets[26]: 647  LLC: 2048
rand_sets[26]: 647
Assign rand_sets[27]: 857  LLC: 2048
rand_sets[27]: 857
Assign rand_sets[28]: 1450  LLC: 2048
rand_sets[28]: 1450
Assign rand_sets[29]: 1160  LLC: 2048
rand_sets[29]: 1160
Assign rand_sets[30]: 1852  LLC: 2048
rand_sets[30]: 1852
Assign rand_sets[31]: 1881  LLC: 2048
rand_sets[31]: 1881
Assign rand_sets[32]: 1770  LLC: 2048
rand_sets[32]: 1770
Assign rand_sets[33]: 1622  LLC: 2048
rand_sets[33]: 1622
Assign rand_sets[34]: 275  LLC: 2048
rand_sets[34]: 275
Assign rand_sets[35]: 635  LLC: 2048
rand_sets[35]: 635
Assign rand_sets[36]: 466  LLC: 2048
rand_sets[36]: 466
Assign rand_sets[37]: 1413  LLC: 2048
rand_sets[37]: 1413
Assign rand_sets[38]: 417  LLC: 2048
rand_sets[38]: 417
Assign rand_sets[39]: 472  LLC: 2048
rand_sets[39]: 472
Assign rand_sets[40]: 1340  LLC: 2048
rand_sets[40]: 1340
Assign rand_sets[41]: 852  LLC: 2048
rand_sets[41]: 852
Assign rand_sets[42]: 1365  LLC: 2048
rand_sets[42]: 1365
Assign rand_sets[43]: 47  LLC: 2048
rand_sets[43]: 47
Assign rand_sets[44]: 823  LLC: 2048
rand_sets[44]: 823
Assign rand_sets[45]: 686  LLC: 2048
rand_sets[45]: 686
Assign rand_sets[46]: 1637  LLC: 2048
rand_sets[46]: 1637
Assign rand_sets[47]: 1115  LLC: 2048
rand_sets[47]: 1115
Assign rand_sets[48]: 986  LLC: 2048
rand_sets[48]: 986
Assign rand_sets[49]: 258  LLC: 2048
rand_sets[49]: 258
Assign rand_sets[50]: 633  LLC: 2048
rand_sets[50]: 633
Assign rand_sets[51]: 920  LLC: 2048
rand_sets[51]: 920
Assign rand_sets[52]: 204  LLC: 2048
rand_sets[52]: 204
Assign rand_sets[53]: 227  LLC: 2048
rand_sets[53]: 227
Assign rand_sets[54]: 1818  LLC: 2048
rand_sets[54]: 1818
Assign rand_sets[55]: 886  LLC: 2048
rand_sets[55]: 886
Assign rand_sets[56]: 1422  LLC: 2048
rand_sets[56]: 1422
Assign rand_sets[57]: 607  LLC: 2048
rand_sets[57]: 607
Assign rand_sets[58]: 217  LLC: 2048
rand_sets[58]: 217
Assign rand_sets[59]: 1945  LLC: 2048
rand_sets[59]: 1945
Assign rand_sets[60]: 143  LLC: 2048
rand_sets[60]: 143
Assign rand_sets[61]: 1311  LLC: 2048
rand_sets[61]: 1311
Assign rand_sets[62]: 319  LLC: 2048
rand_sets[62]: 319
Assign rand_sets[63]: 1846  LLC: 2048
rand_sets[63]: 1846
 CLEAN-RRIP-POLICY-1: 0-3-2-3-0-2-2-0- CLEAN-RRIP-POLICY-2: 0-3-2-3-0-2-2-0-
 DIRTY-RRIP-POLICY-1: 2-3-2-3-0-2-1-0- DIRTY-RRIP-POLICY-2: 2-3-2-3-0-2-1-0-
 PSEL width: 10
Heartbeat CPU 0 instructions: 10000001 cycles: 7316013 heartbeat IPC: 1.36686 cumulative IPC: 1.36686 (Simulation time: 0 hr 0 min 14 sec) 
Heartbeat CPU 0 instructions: 20000000 cycles: 14308032 heartbeat IPC: 1.4302 cumulative IPC: 1.39782 (Simulation time: 0 hr 0 min 29 sec) 
Heartbeat CPU 0 instructions: 30000001 cycles: 21021338 heartbeat IPC: 1.48958 cumulative IPC: 1.42712 (Simulation time: 0 hr 0 min 45 sec) 
Heartbeat CPU 0 instructions: 40000000 cycles: 27482393 heartbeat IPC: 1.54773 cumulative IPC: 1.45548 (Simulation time: 0 hr 1 min 2 sec) 
Heartbeat CPU 0 instructions: 50000001 cycles: 33583981 heartbeat IPC: 1.63892 cumulative IPC: 1.48881 (Simulation time: 0 hr 1 min 17 sec) 
Heartbeat CPU 0 instructions: 60000000 cycles: 40065082 heartbeat IPC: 1.54295 cumulative IPC: 1.49756 (Simulation time: 0 hr 1 min 34 sec) 
Heartbeat CPU 0 instructions: 70000000 cycles: 47102900 heartbeat IPC: 1.42089 cumulative IPC: 1.48611 (Simulation time: 0 hr 1 min 49 sec) 
Heartbeat CPU 0 instructions: 80000000 cycles: 54192906 heartbeat IPC: 1.41044 cumulative IPC: 1.47621 (Simulation time: 0 hr 2 min 4 sec) 
Heartbeat CPU 0 instructions: 90000003 cycles: 61197640 heartbeat IPC: 1.42761 cumulative IPC: 1.47064 (Simulation time: 0 hr 2 min 18 sec) 
Heartbeat CPU 0 instructions: 100000000 cycles: 68365377 heartbeat IPC: 1.39514 cumulative IPC: 1.46273 (Simulation time: 0 hr 2 min 33 sec) 

Warmup complete CPU 0 instructions: 100000004 cycles: 68365378 (Simulation time: 0 hr 2 min 33 sec) 

Heartbeat CPU 0 instructions: 110000003 cycles: 96239468 heartbeat IPC: 0.358756 cumulative IPC: 0.358756 (Simulation time: 0 hr 3 min 3 sec) 
Heartbeat CPU 0 instructions: 120000000 cycles: 123834713 heartbeat IPC: 0.362381 cumulative IPC: 0.360559 (Simulation time: 0 hr 3 min 32 sec) 
Heartbeat CPU 0 instructions: 130000000 cycles: 148878070 heartbeat IPC: 0.399307 cumulative IPC: 0.372612 (Simulation time: 0 hr 4 min 1 sec) 
Heartbeat CPU 0 instructions: 140000000 cycles: 178541768 heartbeat IPC: 0.337112 cumulative IPC: 0.363054 (Simulation time: 0 hr 4 min 30 sec) 
Heartbeat CPU 0 instructions: 150000000 cycles: 208660757 heartbeat IPC: 0.332016 cumulative IPC: 0.356391 (Simulation time: 0 hr 5 min 0 sec) 
Heartbeat CPU 0 instructions: 160000000 cycles: 236115890 heartbeat IPC: 0.364231 cumulative IPC: 0.357674 (Simulation time: 0 hr 5 min 28 sec) 
Heartbeat CPU 0 instructions: 170000001 cycles: 264254461 heartbeat IPC: 0.355384 cumulative IPC: 0.357345 (Simulation time: 0 hr 5 min 59 sec) 
Heartbeat CPU 0 instructions: 180000000 cycles: 292872415 heartbeat IPC: 0.349431 cumulative IPC: 0.356336 (Simulation time: 0 hr 6 min 28 sec) 
Heartbeat CPU 0 instructions: 190000002 cycles: 320996206 heartbeat IPC: 0.355571 cumulative IPC: 0.356251 (Simulation time: 0 hr 6 min 58 sec) 
Heartbeat CPU 0 instructions: 200000000 cycles: 349549375 heartbeat IPC: 0.350224 cumulative IPC: 0.355639 (Simulation time: 0 hr 7 min 28 sec) 
Heartbeat CPU 0 instructions: 210000002 cycles: 377464127 heartbeat IPC: 0.358234 cumulative IPC: 0.355873 (Simulation time: 0 hr 7 min 57 sec) 
Heartbeat CPU 0 instructions: 220000000 cycles: 406779009 heartbeat IPC: 0.341124 cumulative IPC: 0.354596 (Simulation time: 0 hr 8 min 25 sec) 
Heartbeat CPU 0 instructions: 230000000 cycles: 434565931 heartbeat IPC: 0.359882 cumulative IPC: 0.354997 (Simulation time: 0 hr 8 min 54 sec) 
Heartbeat CPU 0 instructions: 240000000 cycles: 460991407 heartbeat IPC: 0.378423 cumulative IPC: 0.356573 (Simulation time: 0 hr 9 min 22 sec) 
Heartbeat CPU 0 instructions: 250000000 cycles: 491321471 heartbeat IPC: 0.329706 cumulative IPC: 0.354647 (Simulation time: 0 hr 9 min 53 sec) 
Heartbeat CPU 0 instructions: 260000000 cycles: 518521662 heartbeat IPC: 0.367644 cumulative IPC: 0.355432 (Simulation time: 0 hr 10 min 22 sec) 
Heartbeat CPU 0 instructions: 270000003 cycles: 547004717 heartbeat IPC: 0.351086 cumulative IPC: 0.355173 (Simulation time: 0 hr 10 min 52 sec) 
Heartbeat CPU 0 instructions: 280000000 cycles: 575397899 heartbeat IPC: 0.352197 cumulative IPC: 0.355007 (Simulation time: 0 hr 11 min 22 sec) 
Heartbeat CPU 0 instructions: 290000000 cycles: 604297071 heartbeat IPC: 0.346031 cumulative IPC: 0.354523 (Simulation time: 0 hr 11 min 53 sec) 
Heartbeat CPU 0 instructions: 300000000 cycles: 634353496 heartbeat IPC: 0.332708 cumulative IPC: 0.353364 (Simulation time: 0 hr 12 min 22 sec) 
Heartbeat CPU 0 instructions: 310000001 cycles: 664027639 heartbeat IPC: 0.336994 cumulative IPC: 0.352549 (Simulation time: 0 hr 12 min 51 sec) 
Heartbeat CPU 0 instructions: 320000000 cycles: 692466564 heartbeat IPC: 0.351631 cumulative IPC: 0.352507 (Simulation time: 0 hr 13 min 20 sec) 
Heartbeat CPU 0 instructions: 330000000 cycles: 721200251 heartbeat IPC: 0.348024 cumulative IPC: 0.35231 (Simulation time: 0 hr 13 min 49 sec) 
Heartbeat CPU 0 instructions: 340000000 cycles: 750839551 heartbeat IPC: 0.33739 cumulative IPC: 0.351662 (Simulation time: 0 hr 14 min 18 sec) 
Heartbeat CPU 0 instructions: 350000003 cycles: 777914006 heartbeat IPC: 0.369352 cumulative IPC: 0.352337 (Simulation time: 0 hr 14 min 47 sec) 
Heartbeat CPU 0 instructions: 360000000 cycles: 806515988 heartbeat IPC: 0.349626 cumulative IPC: 0.352232 (Simulation time: 0 hr 15 min 15 sec) 
Heartbeat CPU 0 instructions: 370000000 cycles: 835174328 heartbeat IPC: 0.348939 cumulative IPC: 0.352109 (Simulation time: 0 hr 15 min 43 sec) 
Heartbeat CPU 0 instructions: 380000000 cycles: 864208302 heartbeat IPC: 0.344424 cumulative IPC: 0.351828 (Simulation time: 0 hr 16 min 11 sec) 
Heartbeat CPU 0 instructions: 390000001 cycles: 892238258 heartbeat IPC: 0.356761 cumulative IPC: 0.351996 (Simulation time: 0 hr 16 min 39 sec) 
Heartbeat CPU 0 instructions: 400000000 cycles: 921347577 heartbeat IPC: 0.343533 cumulative IPC: 0.351707 (Simulation time: 0 hr 17 min 8 sec) 
Heartbeat CPU 0 instructions: 410000001 cycles: 949085965 heartbeat IPC: 0.360511 cumulative IPC: 0.351985 (Simulation time: 0 hr 17 min 36 sec) 
Heartbeat CPU 0 instructions: 420000000 cycles: 976802746 heartbeat IPC: 0.360792 cumulative IPC: 0.352253 (Simulation time: 0 hr 18 min 3 sec) 
Heartbeat CPU 0 instructions: 430000002 cycles: 1004928252 heartbeat IPC: 0.355549 cumulative IPC: 0.352352 (Simulation time: 0 hr 18 min 31 sec) 
Heartbeat CPU 0 instructions: 440000000 cycles: 1034795016 heartbeat IPC: 0.33482 cumulative IPC: 0.35181 (Simulation time: 0 hr 18 min 59 sec) 
Heartbeat CPU 0 instructions: 450000002 cycles: 1064505094 heartbeat IPC: 0.336586 cumulative IPC: 0.351356 (Simulation time: 0 hr 19 min 27 sec) 
Heartbeat CPU 0 instructions: 460000000 cycles: 1092621183 heartbeat IPC: 0.355668 cumulative IPC: 0.351475 (Simulation time: 0 hr 19 min 54 sec) 
Heartbeat CPU 0 instructions: 470000000 cycles: 1120659681 heartbeat IPC: 0.356652 cumulative IPC: 0.351613 (Simulation time: 0 hr 20 min 22 sec) 
Heartbeat CPU 0 instructions: 480000000 cycles: 1148899820 heartbeat IPC: 0.354106 cumulative IPC: 0.351678 (Simulation time: 0 hr 20 min 49 sec) 
Heartbeat CPU 0 instructions: 490000000 cycles: 1176877859 heartbeat IPC: 0.357423 cumulative IPC: 0.351823 (Simulation time: 0 hr 21 min 17 sec) 
Heartbeat CPU 0 instructions: 500000000 cycles: 1205462016 heartbeat IPC: 0.349844 cumulative IPC: 0.351773 (Simulation time: 0 hr 21 min 44 sec) 
Heartbeat CPU 0 instructions: 510000000 cycles: 1240853841 heartbeat IPC: 0.282551 cumulative IPC: 0.349684 (Simulation time: 0 hr 22 min 16 sec) 
Heartbeat CPU 0 instructions: 520000000 cycles: 1268870427 heartbeat IPC: 0.356931 cumulative IPC: 0.349853 (Simulation time: 0 hr 22 min 44 sec) 
Heartbeat CPU 0 instructions: 530000001 cycles: 1298870632 heartbeat IPC: 0.333331 cumulative IPC: 0.34945 (Simulation time: 0 hr 23 min 13 sec) 
Heartbeat CPU 0 instructions: 540000000 cycles: 1327505731 heartbeat IPC: 0.349222 cumulative IPC: 0.349445 (Simulation time: 0 hr 23 min 41 sec) 
Heartbeat CPU 0 instructions: 550000001 cycles: 1357169297 heartbeat IPC: 0.337114 cumulative IPC: 0.349161 (Simulation time: 0 hr 24 min 11 sec) 
Heartbeat CPU 0 instructions: 560000000 cycles: 1382929937 heartbeat IPC: 0.388189 cumulative IPC: 0.349926 (Simulation time: 0 hr 24 min 39 sec) 
Heartbeat CPU 0 instructions: 570000000 cycles: 1412987931 heartbeat IPC: 0.33269 cumulative IPC: 0.34954 (Simulation time: 0 hr 25 min 8 sec) 
Heartbeat CPU 0 instructions: 580000000 cycles: 1441514869 heartbeat IPC: 0.350546 cumulative IPC: 0.349561 (Simulation time: 0 hr 25 min 37 sec) 
Heartbeat CPU 0 instructions: 590000001 cycles: 1466872319 heartbeat IPC: 0.394361 cumulative IPC: 0.350374 (Simulation time: 0 hr 26 min 4 sec) 
Heartbeat CPU 0 instructions: 600000000 cycles: 1494029920 heartbeat IPC: 0.368221 cumulative IPC: 0.350714 (Simulation time: 0 hr 26 min 33 sec) 
Finished CPU 0 instructions: 500000000 cycles: 1425664564 cumulative IPC: 0.350714 (Simulation time: 0 hr 26 min 33 sec) 

CPU 0 Branch Prediction Accuracy: 86.4311% MPKI: 26.2662
Number of Branches: 96788573 Number of Mispredictions: 13133102
Number of LOAD Instructions: 164682285
Number of LOAD Instructions (ROI): 164682285
Number of STORE Instructions: 78194750
Number of STORE Instructions (ROI): 78194750
Total Destination Memory Operands: 83268534
Total Destination Memory Operands (ROI): 83268534
Total Source Memory Operands: 164712438
Total Source Memory Operands (ROI): 164712438
Number of DEPENDED LOADS: 7076756
Number of DEPENDED LOADS (ROI): 7076756
Number of SQ_ADDED: 83268522
Number of SQ_ADDED (ROI): 83268522
Number of LQ_ADDED: 236882083
Number of LQ_ADDED (ROI): 236882083
Number of Instructions read from trace: 600000066

ChampSim completed all CPUs

Region of Interest Statistics

CPU 0 cumulative IPC: 0.350714 instructions: 500000000 cycles: 1425664564
ITLB TOTAL     ACCESS:  100494972  HIT:  100290526  MISS:     204446
ITLB LOAD      ACCESS:  100494972  HIT:  100290526  MISS:     204446
ITLB RFO       ACCESS:          0  HIT:          0  MISS:          0
ITLB PREFETCH  ACCESS:          0  HIT:          0  MISS:          0
ITLB WRITEBACK ACCESS:          0  HIT:          0  MISS:          0
ITLB PREFETCH  REQUESTED:          0  ISSUED:          0  USEFUL:          0  USELESS:          0
ITLB TOTAL MSHR MERGED:     172423
ITLB LOAD MSHR MERGED:     172423
ITLB RFO MSHR MERGED:          0
ITLB PREFETCH MSHR MERGED:          0
ITLB WRITEBACK MSHR MERGED:          0
ITLB TOTAL ACCESSES:  100667395 HITS:  100290526 MISSES:     376869
ITLB LOAD ACCESSES:  100667395 HITS:  100290526 MISSES:     376869
ITLB RFO ACCESSES:          0 HITS:          0 MISSES:          0
ITLB PREFETCH ACCESSES:          0 HITS:          0 MISSES:          0
ITLB WRITEBACK ACCESSES:          0 HITS:          0 MISSES:          0
ITLB RQ ACCESS:  500000057
ITLB RQ TO_CACHE:  100667395
ITLB RQ MERGED:  399332662
ITLB RQ FORWARD:          0
ITLB WQ ACCESS:          0
ITLB WQ TO_CACHE:          0
ITLB WQ MERGED:          0
ITLB WQ FORWARD:          0
DTLB TOTAL     ACCESS:  165322232  HIT:  164687882  MISS:     634350
DTLB LOAD      ACCESS:  106279342  HIT:  105709344  MISS:     569998
DTLB RFO       ACCESS:   59042890  HIT:   58978538  MISS:      64352
DTLB PREFETCH  ACCESS:          0  HIT:          0  MISS:          0
DTLB WRITEBACK ACCESS:          0  HIT:          0  MISS:          0
DTLB PREFETCH  REQUESTED:          0  ISSUED:          0  USEFUL:          0  USELESS:          0
DTLB TOTAL MSHR MERGED:      99688
DTLB LOAD MSHR MERGED:      59330
DTLB RFO MSHR MERGED:      40358
DTLB PREFETCH MSHR MERGED:          0
DTLB WRITEBACK MSHR MERGED:          0
DTLB TOTAL ACCESSES:  165421920 HITS:  164687882 MISSES:     734038
DTLB LOAD ACCESSES:  106338672 HITS:  105709344 MISSES:     629328
DTLB RFO ACCESSES:   59083248 HITS:   58978538 MISSES:     104710
DTLB PREFETCH ACCESSES:          0 HITS:          0 MISSES:          0
DTLB WRITEBACK ACCESSES:          0 HITS:          0 MISSES:          0
DTLB RQ ACCESS:  200294249
DTLB RQ TO_CACHE:  165421920
DTLB RQ MERGED:   34872329
DTLB RQ FORWARD:          0
DTLB WQ ACCESS:          0
DTLB WQ TO_CACHE:          0
DTLB WQ MERGED:          0
DTLB WQ FORWARD:          0
L1D TOTAL     ACCESS:  281695520  HIT:  273786364  MISS:    7909156
L1D LOAD      ACCESS:  110394161  HIT:  107109145  MISS:    3285016
L1D RFO       ACCESS:   67068514  HIT:   66175291  MISS:     893223
L1D PREFETCH  ACCESS:  104232845  HIT:  100501928  MISS:    3730917
L1D WRITEBACK ACCESS:          0  HIT:          0  MISS:          0
L1D PREFETCH  REQUESTED:  110806402  ISSUED:  109107119  USEFUL:    1652001  USELESS:    2078880
L1D TOTAL MSHR MERGED:    2989451
L1D LOAD MSHR MERGED:     517060
L1D RFO MSHR MERGED:    1919240
L1D PREFETCH MSHR MERGED:     553151
L1D WRITEBACK MSHR MERGED:          0
L1D TOTAL ACCESSES:  284712776 HITS:  273814169 MISSES:   10898607
L1D LOAD ACCESSES:  110808217 HITS:  107110960 MISSES:    3697257
L1D RFO ACCESSES:   68973311 HITS:   66175291 MISSES:    2798020
L1D PREFETCH ACCESSES:  104931248 HITS:  100527918 MISSES:    4403330
L1D WRITEBACK ACCESSES:          0 HITS:          0 MISSES:          0
L1D RQ ACCESS:  130741646
L1D RQ TO_CACHE:  110806405
L1D RQ MERGED:   19933426
L1D RQ FORWARD:          0
L1D WQ ACCESS:   69552603
L1D WQ TO_CACHE:   68973312
L1D WQ MERGED:     579291
L1D WQ FORWARD:      27805
L1I TOTAL     ACCESS:  126540937  HIT:  122302384  MISS:    4238553
L1I LOAD      ACCESS:  126540937  HIT:  122302384  MISS:    4238553
L1I RFO       ACCESS:          0  HIT:          0  MISS:          0
L1I PREFETCH  ACCESS:          0  HIT:          0  MISS:          0
L1I WRITEBACK ACCESS:          0  HIT:          0  MISS:          0
L1I PREFETCH  REQUESTED:          0  ISSUED:          0  USEFUL:          0  USELESS:          0
L1I TOTAL MSHR MERGED:    1835054
L1I LOAD MSHR MERGED:    1835054
L1I RFO MSHR MERGED:          0
L1I PREFETCH MSHR MERGED:          0
L1I WRITEBACK MSHR MERGED:          0
L1I TOTAL ACCESSES:  128375994 HITS:  122302384 MISSES:    6073610
L1I LOAD ACCESSES:  128375994 HITS:  122302384 MISSES:    6073610
L1I RFO ACCESSES:          0 HITS:          0 MISSES:          0
L1I PREFETCH ACCESSES:          0 HITS:          0 MISSES:          0
L1I WRITEBACK ACCESSES:          0 HITS:          0 MISSES:          0
L1I RQ ACCESS:  500000057
L1I RQ TO_CACHE:  128375994
L1I RQ MERGED:  371624063
L1I RQ FORWARD:          0
L1I WQ ACCESS:          0
L1I WQ TO_CACHE:          0
L1I WQ MERGED:          0
L1I WQ FORWARD:          0
L2C TOTAL     ACCESS:   14901276  HIT:   11154844  MISS:    3746432
L2C LOAD      ACCESS:    7418544  HIT:    5097663  MISS:    2320881
L2C RFO       ACCESS:     878680  HIT:     409898  MISS:     468782
L2C PREFETCH  ACCESS:    4564856  HIT:    3625355  MISS:     939501
L2C WRITEBACK ACCESS:    2039196  HIT:    2021928  MISS:      17268
L2C PREFETCH  REQUESTED:     842034  ISSUED:     842034  USEFUL:     202326  USELESS:     736883
L2C TOTAL MSHR MERGED:      10316
L2C LOAD MSHR MERGED:       1748
L2C RFO MSHR MERGED:          0
L2C PREFETCH MSHR MERGED:       8568
L2C WRITEBACK MSHR MERGED:          0
L2C TOTAL ACCESSES:   14912593 HITS:   11155293 MISSES:    3757300
L2C LOAD ACCESSES:    7418750 HITS:    5097869 MISSES:    2320881
L2C RFO ACCESSES:     878780 HITS:     409998 MISSES:     468782
L2C PREFETCH ACCESSES:    4575867 HITS:    3625498 MISSES:     950369
L2C WRITEBACK ACCESSES:    2039196 HITS:    2021928 MISSES:      17268
L2C RQ ACCESS:    8297533
L2C RQ TO_CACHE:    8297227
L2C RQ MERGED:          0
L2C RQ FORWARD:          0
L2C WQ ACCESS:    2039196
L2C WQ TO_CACHE:    2039196
L2C WQ MERGED:          0
L2C WQ FORWARD:        449
LLC TOTAL     ACCESS:    4609806  HIT:    3527859  MISS:    1081947
LLC LOAD      ACCESS:    2319120  HIT:    1985202  MISS:     333918
LLC RFO       ACCESS:     468772  HIT:     307072  MISS:     161700
LLC PREFETCH  ACCESS:     941652  HIT:     512336  MISS:     429316
LLC WRITEBACK ACCESS:     880262  HIT:     723249  MISS:     157013
LLC PREFETCH  REQUESTED:          0  ISSUED:          0  USEFUL:      17477  USELESS:     412284
LLC TOTAL MSHR MERGED:        131
LLC LOAD MSHR MERGED:         44
LLC RFO MSHR MERGED:          0
LLC PREFETCH MSHR MERGED:         87
LLC WRITEBACK MSHR MERGED:          0
LLC TOTAL ACCESSES:    4609968 HITS:    3527890 MISSES:    1082078
LLC LOAD ACCESSES:    2319133 HITS:    1985215 MISSES:     333918
LLC RFO ACCESSES:     468782 HITS:     307082 MISSES:     161700
LLC PREFETCH ACCESSES:     941791 HITS:     512344 MISSES:     429447
LLC WRITEBACK ACCESSES:     880262 HITS:     723249 MISSES:     157013
LLC 0 RQ ACCESS:    2787915
LLC 0 RQ TO_CACHE:    2787892
LLC 0 RQ MERGED:          0
LLC 0 RQ FORWARD:          0
LLC WQ ACCESS:     880262
LLC WQ TO_CACHE:     880262
LLC WQ MERGED:          0
LLC WQ FORWARD:         31
Major fault: 0 Minor fault: 12862
CPU 0 L1D next line prefetcher final stats
CPU 0 L2C PC-based stride prefetcher final stats
All Misses: 1247176
All Hits: 4179636
SD Algo Stats - Switches: 0 SRR-Repls: 376185 BRR-Repls: 0

DRAM Statistics
 CHANNEL 0
 RQ ROW_BUFFER_HIT:     192578  ROW_BUFFER_MISS:     726817
 DBUS_CONGESTED:     590057
 WQ ROW_BUFFER_HIT:      42271  ROW_BUFFER_MISS:     336411  FULL:          0

 AVG_CONGESTED_CYCLE: 13
LOADS RETIRED: 136549171
INSTR RETIRED: 500000000
