
*** ChampSim Multicore Out-of-Order Simulator ***

Warmup Instructions: 100000000
Simulation Instructions: 500000000
Number of CPUs: 1
LLC sets: 2048
LLC ways: 16
Clean RRIP Policies: 1012210010122100 Dirty RRIP Policies: 22010000220100 PSEL Width: 10 Track Set: 4294967295 PSEL Mask: 1 Demote Mask: 4013142040131420DS Algo: 0Window size: 0
Off-chip DRAM Size: 4096 MB Channels: 1 Width: 64-bit Data Rate: 1600 MT/s

CPU 0 runs /mnt/beegfs/iconst01/spec2017/Xalancbmk.trace.gz
NOT SORTED
TRACE STRING: /mnt/beegfs/iconst01/spec2017/Xalancbmk.trace.gz
SORTED
TRACE STRING: /mnt/beegfs/iconst01/spec2017/Xalancbmk.trace.gz
INITIAL
TRACE STRING: /mnt/beegfs/iconst01/spec2017/Xalancbmk.trace.gz

champsim_seed used: 913

CPU 0 L1D next line prefetcher
CPU 0 L2C IP-based stride prefetcher
Initialize DRRIP state
Assign rand_sets[0]: 454  LLC: 2048
rand_sets[0]: 454
Assign rand_sets[1]: 1662  LLC: 2048
rand_sets[1]: 1662
Assign rand_sets[2]: 1921  LLC: 2048
rand_sets[2]: 1921
Assign rand_sets[3]: 1131  LLC: 2048
rand_sets[3]: 1131
Assign rand_sets[4]: 331  LLC: 2048
rand_sets[4]: 331
Assign rand_sets[5]: 1531  LLC: 2048
rand_sets[5]: 1531
Assign rand_sets[6]: 482  LLC: 2048
rand_sets[6]: 482
Assign rand_sets[7]: 1275  LLC: 2048
rand_sets[7]: 1275
Assign rand_sets[8]: 1876  LLC: 2048
rand_sets[8]: 1876
Assign rand_sets[9]: 2038  LLC: 2048
rand_sets[9]: 2038
Assign rand_sets[10]: 701  LLC: 2048
rand_sets[10]: 701
Assign rand_sets[11]: 479  LLC: 2048
rand_sets[11]: 479
Assign rand_sets[12]: 892  LLC: 2048
rand_sets[12]: 892
Assign rand_sets[13]: 1820  LLC: 2048
rand_sets[13]: 1820
Assign rand_sets[14]: 1505  LLC: 2048
rand_sets[14]: 1505
Assign rand_sets[15]: 1159  LLC: 2048
rand_sets[15]: 1159
Assign rand_sets[16]: 513  LLC: 2048
rand_sets[16]: 513
Assign rand_sets[17]: 703  LLC: 2048
rand_sets[17]: 703
Assign rand_sets[18]: 561  LLC: 2048
rand_sets[18]: 561
Assign rand_sets[19]: 990  LLC: 2048
rand_sets[19]: 990
Assign rand_sets[20]: 342  LLC: 2048
rand_sets[20]: 342
Assign rand_sets[21]: 882  LLC: 2048
rand_sets[21]: 882
Assign rand_sets[22]: 15  LLC: 2048
rand_sets[22]: 15
Assign rand_sets[23]: 71  LLC: 2048
rand_sets[23]: 71
Assign rand_sets[24]: 1127  LLC: 2048
rand_sets[24]: 1127
Assign rand_sets[25]: 1382  LLC: 2048
rand_sets[25]: 1382
Assign rand_sets[26]: 647  LLC: 2048
rand_sets[26]: 647
Assign rand_sets[27]: 857  LLC: 2048
rand_sets[27]: 857
Assign rand_sets[28]: 1450  LLC: 2048
rand_sets[28]: 1450
Assign rand_sets[29]: 1160  LLC: 2048
rand_sets[29]: 1160
Assign rand_sets[30]: 1852  LLC: 2048
rand_sets[30]: 1852
Assign rand_sets[31]: 1881  LLC: 2048
rand_sets[31]: 1881
Assign rand_sets[32]: 1770  LLC: 2048
rand_sets[32]: 1770
Assign rand_sets[33]: 1622  LLC: 2048
rand_sets[33]: 1622
Assign rand_sets[34]: 275  LLC: 2048
rand_sets[34]: 275
Assign rand_sets[35]: 635  LLC: 2048
rand_sets[35]: 635
Assign rand_sets[36]: 466  LLC: 2048
rand_sets[36]: 466
Assign rand_sets[37]: 1413  LLC: 2048
rand_sets[37]: 1413
Assign rand_sets[38]: 417  LLC: 2048
rand_sets[38]: 417
Assign rand_sets[39]: 472  LLC: 2048
rand_sets[39]: 472
Assign rand_sets[40]: 1340  LLC: 2048
rand_sets[40]: 1340
Assign rand_sets[41]: 852  LLC: 2048
rand_sets[41]: 852
Assign rand_sets[42]: 1365  LLC: 2048
rand_sets[42]: 1365
Assign rand_sets[43]: 47  LLC: 2048
rand_sets[43]: 47
Assign rand_sets[44]: 823  LLC: 2048
rand_sets[44]: 823
Assign rand_sets[45]: 686  LLC: 2048
rand_sets[45]: 686
Assign rand_sets[46]: 1637  LLC: 2048
rand_sets[46]: 1637
Assign rand_sets[47]: 1115  LLC: 2048
rand_sets[47]: 1115
Assign rand_sets[48]: 986  LLC: 2048
rand_sets[48]: 986
Assign rand_sets[49]: 258  LLC: 2048
rand_sets[49]: 258
Assign rand_sets[50]: 633  LLC: 2048
rand_sets[50]: 633
Assign rand_sets[51]: 920  LLC: 2048
rand_sets[51]: 920
Assign rand_sets[52]: 204  LLC: 2048
rand_sets[52]: 204
Assign rand_sets[53]: 227  LLC: 2048
rand_sets[53]: 227
Assign rand_sets[54]: 1818  LLC: 2048
rand_sets[54]: 1818
Assign rand_sets[55]: 886  LLC: 2048
rand_sets[55]: 886
Assign rand_sets[56]: 1422  LLC: 2048
rand_sets[56]: 1422
Assign rand_sets[57]: 607  LLC: 2048
rand_sets[57]: 607
Assign rand_sets[58]: 217  LLC: 2048
rand_sets[58]: 217
Assign rand_sets[59]: 1945  LLC: 2048
rand_sets[59]: 1945
Assign rand_sets[60]: 143  LLC: 2048
rand_sets[60]: 143
Assign rand_sets[61]: 1311  LLC: 2048
rand_sets[61]: 1311
Assign rand_sets[62]: 319  LLC: 2048
rand_sets[62]: 319
Assign rand_sets[63]: 1846  LLC: 2048
rand_sets[63]: 1846
 CLEAN-RRIP-POLICY-1: 1-0-1-2-2-1-0-0- CLEAN-RRIP-POLICY-2: 1-0-1-2-2-1-0-0-
 DIRTY-RRIP-POLICY-1: 0-0-2-2-0-1-0-0- DIRTY-RRIP-POLICY-2: 0-0-2-2-0-1-0-0-
 PSEL width: 10
Heartbeat CPU 0 instructions: 10000003 cycles: 4596609 heartbeat IPC: 2.17552 cumulative IPC: 2.17552 (Simulation time: 0 hr 0 min 15 sec) 
Heartbeat CPU 0 instructions: 20000000 cycles: 9000451 heartbeat IPC: 2.27074 cumulative IPC: 2.22211 (Simulation time: 0 hr 0 min 28 sec) 
Heartbeat CPU 0 instructions: 30000000 cycles: 13434605 heartbeat IPC: 2.25522 cumulative IPC: 2.23304 (Simulation time: 0 hr 0 min 42 sec) 
Heartbeat CPU 0 instructions: 40000000 cycles: 18070196 heartbeat IPC: 2.15722 cumulative IPC: 2.21359 (Simulation time: 0 hr 0 min 57 sec) 
Heartbeat CPU 0 instructions: 50000002 cycles: 22496543 heartbeat IPC: 2.2592 cumulative IPC: 2.22256 (Simulation time: 0 hr 1 min 11 sec) 
Heartbeat CPU 0 instructions: 60000000 cycles: 27157365 heartbeat IPC: 2.14554 cumulative IPC: 2.20935 (Simulation time: 0 hr 1 min 26 sec) 
Heartbeat CPU 0 instructions: 70000003 cycles: 31575152 heartbeat IPC: 2.26358 cumulative IPC: 2.21693 (Simulation time: 0 hr 1 min 40 sec) 
Heartbeat CPU 0 instructions: 80000000 cycles: 36019911 heartbeat IPC: 2.24984 cumulative IPC: 2.22099 (Simulation time: 0 hr 1 min 53 sec) 
Heartbeat CPU 0 instructions: 90000002 cycles: 40498054 heartbeat IPC: 2.23307 cumulative IPC: 2.22233 (Simulation time: 0 hr 2 min 7 sec) 
Heartbeat CPU 0 instructions: 100000000 cycles: 44985357 heartbeat IPC: 2.22851 cumulative IPC: 2.22295 (Simulation time: 0 hr 2 min 21 sec) 

Warmup complete CPU 0 instructions: 100000003 cycles: 44985358 (Simulation time: 0 hr 2 min 21 sec) 

Heartbeat CPU 0 instructions: 110000000 cycles: 72283926 heartbeat IPC: 0.36632 cumulative IPC: 0.366319 (Simulation time: 0 hr 2 min 51 sec) 
Heartbeat CPU 0 instructions: 120000000 cycles: 102221660 heartbeat IPC: 0.334027 cumulative IPC: 0.349429 (Simulation time: 0 hr 3 min 23 sec) 
Heartbeat CPU 0 instructions: 130000000 cycles: 126686092 heartbeat IPC: 0.408757 cumulative IPC: 0.367194 (Simulation time: 0 hr 3 min 51 sec) 
Heartbeat CPU 0 instructions: 140000000 cycles: 149945288 heartbeat IPC: 0.429937 cumulative IPC: 0.381098 (Simulation time: 0 hr 4 min 19 sec) 
Heartbeat CPU 0 instructions: 150000000 cycles: 174782360 heartbeat IPC: 0.402624 cumulative IPC: 0.385217 (Simulation time: 0 hr 4 min 47 sec) 
Heartbeat CPU 0 instructions: 160000000 cycles: 200325578 heartbeat IPC: 0.391493 cumulative IPC: 0.386249 (Simulation time: 0 hr 5 min 16 sec) 
Heartbeat CPU 0 instructions: 170000002 cycles: 222068915 heartbeat IPC: 0.459911 cumulative IPC: 0.395294 (Simulation time: 0 hr 5 min 42 sec) 
Heartbeat CPU 0 instructions: 180000000 cycles: 245930261 heartbeat IPC: 0.419088 cumulative IPC: 0.398119 (Simulation time: 0 hr 6 min 10 sec) 
Heartbeat CPU 0 instructions: 190000000 cycles: 266222113 heartbeat IPC: 0.492809 cumulative IPC: 0.406804 (Simulation time: 0 hr 6 min 35 sec) 
Heartbeat CPU 0 instructions: 200000000 cycles: 287810155 heartbeat IPC: 0.463219 cumulative IPC: 0.41182 (Simulation time: 0 hr 7 min 2 sec) 
Heartbeat CPU 0 instructions: 210000001 cycles: 314905810 heartbeat IPC: 0.369063 cumulative IPC: 0.407527 (Simulation time: 0 hr 7 min 32 sec) 
Heartbeat CPU 0 instructions: 220000000 cycles: 341933069 heartbeat IPC: 0.369997 cumulative IPC: 0.404112 (Simulation time: 0 hr 8 min 1 sec) 
Heartbeat CPU 0 instructions: 230000000 cycles: 364784712 heartbeat IPC: 0.437605 cumulative IPC: 0.406505 (Simulation time: 0 hr 8 min 28 sec) 
Heartbeat CPU 0 instructions: 240000000 cycles: 390679890 heartbeat IPC: 0.386172 cumulative IPC: 0.404982 (Simulation time: 0 hr 8 min 58 sec) 
Heartbeat CPU 0 instructions: 250000001 cycles: 416643336 heartbeat IPC: 0.385157 cumulative IPC: 0.403597 (Simulation time: 0 hr 9 min 27 sec) 
Heartbeat CPU 0 instructions: 260000000 cycles: 438244330 heartbeat IPC: 0.462942 cumulative IPC: 0.406857 (Simulation time: 0 hr 9 min 53 sec) 
Heartbeat CPU 0 instructions: 270000000 cycles: 461017844 heartbeat IPC: 0.439107 cumulative IPC: 0.408622 (Simulation time: 0 hr 10 min 20 sec) 
Heartbeat CPU 0 instructions: 280000000 cycles: 489618547 heartbeat IPC: 0.349642 cumulative IPC: 0.404828 (Simulation time: 0 hr 10 min 51 sec) 
Heartbeat CPU 0 instructions: 290000000 cycles: 511708268 heartbeat IPC: 0.452699 cumulative IPC: 0.407094 (Simulation time: 0 hr 11 min 17 sec) 
Heartbeat CPU 0 instructions: 300000000 cycles: 532596686 heartbeat IPC: 0.478734 cumulative IPC: 0.410163 (Simulation time: 0 hr 11 min 43 sec) 
Heartbeat CPU 0 instructions: 310000000 cycles: 552702039 heartbeat IPC: 0.49738 cumulative IPC: 0.413617 (Simulation time: 0 hr 12 min 8 sec) 
Heartbeat CPU 0 instructions: 320000000 cycles: 583339566 heartbeat IPC: 0.326397 cumulative IPC: 0.408653 (Simulation time: 0 hr 12 min 40 sec) 
Heartbeat CPU 0 instructions: 330000001 cycles: 603298040 heartbeat IPC: 0.50104 cumulative IPC: 0.411956 (Simulation time: 0 hr 13 min 4 sec) 
Heartbeat CPU 0 instructions: 340000000 cycles: 623454318 heartbeat IPC: 0.496123 cumulative IPC: 0.414888 (Simulation time: 0 hr 13 min 29 sec) 
Heartbeat CPU 0 instructions: 350000000 cycles: 648840143 heartbeat IPC: 0.393921 cumulative IPC: 0.414007 (Simulation time: 0 hr 13 min 58 sec) 
Heartbeat CPU 0 instructions: 360000000 cycles: 671465909 heartbeat IPC: 0.441974 cumulative IPC: 0.415017 (Simulation time: 0 hr 14 min 24 sec) 
Heartbeat CPU 0 instructions: 370000001 cycles: 697189119 heartbeat IPC: 0.388754 cumulative IPC: 0.413981 (Simulation time: 0 hr 14 min 53 sec) 
Heartbeat CPU 0 instructions: 380000000 cycles: 720499146 heartbeat IPC: 0.429 cumulative IPC: 0.414499 (Simulation time: 0 hr 15 min 20 sec) 
Heartbeat CPU 0 instructions: 390000000 cycles: 739487951 heartbeat IPC: 0.526626 cumulative IPC: 0.417565 (Simulation time: 0 hr 15 min 44 sec) 
Heartbeat CPU 0 instructions: 400000000 cycles: 760143690 heartbeat IPC: 0.484127 cumulative IPC: 0.419488 (Simulation time: 0 hr 16 min 9 sec) 
Heartbeat CPU 0 instructions: 410000001 cycles: 786672594 heartbeat IPC: 0.376947 cumulative IPC: 0.417966 (Simulation time: 0 hr 16 min 38 sec) 
Heartbeat CPU 0 instructions: 420000000 cycles: 812082799 heartbeat IPC: 0.393543 cumulative IPC: 0.417157 (Simulation time: 0 hr 17 min 6 sec) 
Heartbeat CPU 0 instructions: 430000002 cycles: 834262766 heartbeat IPC: 0.450857 cumulative IPC: 0.418104 (Simulation time: 0 hr 17 min 32 sec) 
Heartbeat CPU 0 instructions: 440000000 cycles: 854945566 heartbeat IPC: 0.483493 cumulative IPC: 0.419774 (Simulation time: 0 hr 17 min 57 sec) 
Heartbeat CPU 0 instructions: 450000002 cycles: 882700341 heartbeat IPC: 0.360298 cumulative IPC: 0.417803 (Simulation time: 0 hr 18 min 26 sec) 
Heartbeat CPU 0 instructions: 460000000 cycles: 910007080 heartbeat IPC: 0.36621 cumulative IPC: 0.416175 (Simulation time: 0 hr 18 min 56 sec) 
Heartbeat CPU 0 instructions: 470000002 cycles: 936740313 heartbeat IPC: 0.374066 cumulative IPC: 0.414912 (Simulation time: 0 hr 19 min 24 sec) 
Heartbeat CPU 0 instructions: 480000000 cycles: 962139189 heartbeat IPC: 0.393718 cumulative IPC: 0.414325 (Simulation time: 0 hr 19 min 52 sec) 
Heartbeat CPU 0 instructions: 490000000 cycles: 983737205 heartbeat IPC: 0.463005 cumulative IPC: 0.415445 (Simulation time: 0 hr 20 min 18 sec) 
Heartbeat CPU 0 instructions: 500000000 cycles: 1008986896 heartbeat IPC: 0.396044 cumulative IPC: 0.414937 (Simulation time: 0 hr 20 min 46 sec) 
Heartbeat CPU 0 instructions: 510000000 cycles: 1034773997 heartbeat IPC: 0.387791 cumulative IPC: 0.41423 (Simulation time: 0 hr 21 min 14 sec) 
Heartbeat CPU 0 instructions: 520000000 cycles: 1056433171 heartbeat IPC: 0.461698 cumulative IPC: 0.415246 (Simulation time: 0 hr 21 min 40 sec) 
Heartbeat CPU 0 instructions: 530000003 cycles: 1082777580 heartbeat IPC: 0.379587 cumulative IPC: 0.414341 (Simulation time: 0 hr 22 min 8 sec) 
Heartbeat CPU 0 instructions: 540000000 cycles: 1106311651 heartbeat IPC: 0.424916 cumulative IPC: 0.414576 (Simulation time: 0 hr 22 min 35 sec) 
Heartbeat CPU 0 instructions: 550000000 cycles: 1132631364 heartbeat IPC: 0.379943 cumulative IPC: 0.413738 (Simulation time: 0 hr 23 min 4 sec) 
Heartbeat CPU 0 instructions: 560000000 cycles: 1157081758 heartbeat IPC: 0.408991 cumulative IPC: 0.413633 (Simulation time: 0 hr 23 min 31 sec) 
Heartbeat CPU 0 instructions: 570000002 cycles: 1181067424 heartbeat IPC: 0.416916 cumulative IPC: 0.413703 (Simulation time: 0 hr 23 min 58 sec) 
Heartbeat CPU 0 instructions: 580000000 cycles: 1202870210 heartbeat IPC: 0.458657 cumulative IPC: 0.414549 (Simulation time: 0 hr 24 min 24 sec) 
Heartbeat CPU 0 instructions: 590000001 cycles: 1227578045 heartbeat IPC: 0.40473 cumulative IPC: 0.414344 (Simulation time: 0 hr 24 min 52 sec) 
Heartbeat CPU 0 instructions: 600000000 cycles: 1247448513 heartbeat IPC: 0.503259 cumulative IPC: 0.415813 (Simulation time: 0 hr 25 min 16 sec) 
Finished CPU 0 instructions: 500000000 cycles: 1202463176 cumulative IPC: 0.415813 (Simulation time: 0 hr 25 min 16 sec) 

CPU 0 Branch Prediction Accuracy: 99.5434% MPKI: 1.33026
Number of Branches: 145676990 Number of Mispredictions: 665128
Number of LOAD Instructions: 188863207
Number of LOAD Instructions (ROI): 188863207
Number of STORE Instructions: 7332002
Number of STORE Instructions (ROI): 7332002
Total Destination Memory Operands: 10029285
Total Destination Memory Operands (ROI): 10029285
Total Source Memory Operands: 188863207
Total Source Memory Operands (ROI): 188863207
Number of DEPENDED LOADS: 293943
Number of DEPENDED LOADS (ROI): 293943
Number of SQ_ADDED: 10029285
Number of SQ_ADDED (ROI): 10029285
Number of LQ_ADDED: 201115031
Number of LQ_ADDED (ROI): 201115031
Number of Instructions read from trace: 600000010

ChampSim completed all CPUs

Region of Interest Statistics

CPU 0 cumulative IPC: 0.415813 instructions: 500000000 cycles: 1202463176
ITLB TOTAL     ACCESS:  145829982  HIT:  145790444  MISS:      39538
ITLB LOAD      ACCESS:  145829982  HIT:  145790444  MISS:      39538
ITLB RFO       ACCESS:          0  HIT:          0  MISS:          0
ITLB PREFETCH  ACCESS:          0  HIT:          0  MISS:          0
ITLB WRITEBACK ACCESS:          0  HIT:          0  MISS:          0
ITLB PREFETCH  REQUESTED:          0  ISSUED:          0  USEFUL:          0  USELESS:          0
ITLB TOTAL MSHR MERGED:      57351
ITLB LOAD MSHR MERGED:      57351
ITLB RFO MSHR MERGED:          0
ITLB PREFETCH MSHR MERGED:          0
ITLB WRITEBACK MSHR MERGED:          0
ITLB TOTAL ACCESSES:  145887333 HITS:  145790444 MISSES:      96889
ITLB LOAD ACCESSES:  145887333 HITS:  145790444 MISSES:      96889
ITLB RFO ACCESSES:          0 HITS:          0 MISSES:          0
ITLB PREFETCH ACCESSES:          0 HITS:          0 MISSES:          0
ITLB WRITEBACK ACCESSES:          0 HITS:          0 MISSES:          0
ITLB RQ ACCESS:  499999754
ITLB RQ TO_CACHE:  145887333
ITLB RQ MERGED:  354112421
ITLB RQ FORWARD:          0
ITLB WQ ACCESS:          0
ITLB WQ TO_CACHE:          0
ITLB WQ MERGED:          0
ITLB WQ FORWARD:          0
DTLB TOTAL     ACCESS:  135274393  HIT:  134106034  MISS:    1168359
DTLB LOAD      ACCESS:  127232957  HIT:  126073696  MISS:    1159261
DTLB RFO       ACCESS:    8041436  HIT:    8032338  MISS:       9098
DTLB PREFETCH  ACCESS:          0  HIT:          0  MISS:          0
DTLB WRITEBACK ACCESS:          0  HIT:          0  MISS:          0
DTLB PREFETCH  REQUESTED:          0  ISSUED:          0  USEFUL:          0  USELESS:          0
DTLB TOTAL MSHR MERGED:     574088
DTLB LOAD MSHR MERGED:     569795
DTLB RFO MSHR MERGED:       4293
DTLB PREFETCH MSHR MERGED:          0
DTLB WRITEBACK MSHR MERGED:          0
DTLB TOTAL ACCESSES:  135848481 HITS:  134106034 MISSES:    1742447
DTLB LOAD ACCESSES:  127802752 HITS:  126073696 MISSES:    1729056
DTLB RFO ACCESSES:    8045729 HITS:    8032338 MISSES:      13391
DTLB PREFETCH ACCESSES:          0 HITS:          0 MISSES:          0
DTLB WRITEBACK ACCESSES:          0 HITS:          0 MISSES:          0
DTLB RQ ACCESS:  165760408
DTLB RQ TO_CACHE:  135848481
DTLB RQ MERGED:   29911927
DTLB RQ FORWARD:          0
DTLB WQ ACCESS:          0
DTLB WQ TO_CACHE:          0
DTLB WQ MERGED:          0
DTLB WQ FORWARD:          0
L1D TOTAL     ACCESS:  157519116  HIT:  140203440  MISS:   17315676
L1D LOAD      ACCESS:   90058033  HIT:   79077871  MISS:   10980162
L1D RFO       ACCESS:    8495209  HIT:    8408010  MISS:      87199
L1D PREFETCH  ACCESS:   58965874  HIT:   52717559  MISS:    6248315
L1D WRITEBACK ACCESS:          0  HIT:          0  MISS:          0
L1D PREFETCH  REQUESTED:   93742691  ISSUED:   92874761  USEFUL:    2166850  USELESS:    4081539
L1D TOTAL MSHR MERGED:   14554597
L1D LOAD MSHR MERGED:    6939425
L1D RFO MSHR MERGED:     129548
L1D PREFETCH MSHR MERGED:    7485624
L1D WRITEBACK MSHR MERGED:          0
L1D TOTAL ACCESSES:  172073892 HITS:  140203618 MISSES:   31870274
L1D LOAD ACCESSES:   93742696 HITS:   79077876 MISSES:   14664820
L1D RFO ACCESSES:    8622847 HITS:    8408010 MISSES:     214837
L1D PREFETCH ACCESSES:   69708349 HITS:   52717732 MISSES:   16990617
L1D WRITEBACK ACCESSES:          0 HITS:          0 MISSES:          0
L1D RQ ACCESS:  157121202
L1D RQ TO_CACHE:   93742691
L1D RQ MERGED:   63378506
L1D RQ FORWARD:          0
L1D WQ ACCESS:    8639208
L1D WQ TO_CACHE:    8622847
L1D WQ MERGED:      16361
L1D WQ FORWARD:        178
L1I TOTAL     ACCESS:  178774166  HIT:  178110716  MISS:     663450
L1I LOAD      ACCESS:  178774166  HIT:  178110716  MISS:     663450
L1I RFO       ACCESS:          0  HIT:          0  MISS:          0
L1I PREFETCH  ACCESS:          0  HIT:          0  MISS:          0
L1I WRITEBACK ACCESS:          0  HIT:          0  MISS:          0
L1I PREFETCH  REQUESTED:          0  ISSUED:          0  USEFUL:          0  USELESS:          0
L1I TOTAL MSHR MERGED:     610055
L1I LOAD MSHR MERGED:     610055
L1I RFO MSHR MERGED:          0
L1I PREFETCH MSHR MERGED:          0
L1I WRITEBACK MSHR MERGED:          0
L1I TOTAL ACCESSES:  179384221 HITS:  178110716 MISSES:    1273505
L1I LOAD ACCESSES:  179384221 HITS:  178110716 MISSES:    1273505
L1I RFO ACCESSES:          0 HITS:          0 MISSES:          0
L1I PREFETCH ACCESSES:          0 HITS:          0 MISSES:          0
L1I WRITEBACK ACCESSES:          0 HITS:          0 MISSES:          0
L1I RQ ACCESS:  499999757
L1I RQ TO_CACHE:  179384221
L1I RQ MERGED:  320615536
L1I RQ FORWARD:          0
L1I WQ ACCESS:          0
L1I WQ TO_CACHE:          0
L1I WQ MERGED:          0
L1I WQ FORWARD:          0
L2C TOTAL     ACCESS:   19272735  HIT:    2054342  MISS:   17218393
L2C LOAD      ACCESS:    8388741  HIT:     950054  MISS:    7438687
L2C RFO       ACCESS:      85266  HIT:      53716  MISS:      31550
L2C PREFETCH  ACCESS:   10513761  HIT:     768418  MISS:    9745343
L2C WRITEBACK ACCESS:     284967  HIT:     282154  MISS:       2813
L2C PREFETCH  REQUESTED:    1011482  ISSUED:    1011482  USEFUL:     273928  USELESS:    9470495
L2C TOTAL MSHR MERGED:        845
L2C LOAD MSHR MERGED:        189
L2C RFO MSHR MERGED:          1
L2C PREFETCH MSHR MERGED:        655
L2C WRITEBACK MSHR MERGED:          0
L2C TOTAL ACCESSES:   19274302 HITS:    2054533 MISSES:   17219769
L2C LOAD ACCESSES:    8388845 HITS:     950158 MISSES:    7438687
L2C RFO ACCESSES:      85289 HITS:      53739 MISSES:      31550
L2C PREFETCH ACCESSES:   10515201 HITS:     768482 MISSES:    9746719
L2C WRITEBACK ACCESSES:     284967 HITS:     282154 MISSES:       2813
L2C RQ ACCESS:    8474134
L2C RQ TO_CACHE:    8474007
L2C RQ MERGED:          0
L2C RQ FORWARD:          0
L2C WQ ACCESS:     284967
L2C WQ TO_CACHE:     284967
L2C WQ MERGED:          0
L2C WQ FORWARD:        191
LLC TOTAL     ACCESS:   17322166  HIT:    4051158  MISS:   13271008
LLC LOAD      ACCESS:    7438498  HIT:    2696284  MISS:    4742214
LLC RFO       ACCESS:      31549  HIT:       7029  MISS:      24520
LLC PREFETCH  ACCESS:    9746060  HIT:    1251315  MISS:    8494745
LLC WRITEBACK ACCESS:     106059  HIT:      96530  MISS:       9529
LLC PREFETCH  REQUESTED:          0  ISSUED:          0  USEFUL:      39714  USELESS:    8451862
LLC TOTAL MSHR MERGED:          2
LLC LOAD MSHR MERGED:          0
LLC RFO MSHR MERGED:          0
LLC PREFETCH MSHR MERGED:          2
LLC WRITEBACK MSHR MERGED:          0
LLC TOTAL ACCESSES:   17322169 HITS:    4051158 MISSES:   13271011
LLC LOAD ACCESSES:    7438498 HITS:    2696284 MISSES:    4742214
LLC RFO ACCESSES:      31549 HITS:       7029 MISSES:      24520
LLC PREFETCH ACCESSES:    9746063 HITS:    1251315 MISSES:    8494748
LLC WRITEBACK ACCESSES:     106059 HITS:      96530 MISSES:       9529
LLC 0 RQ ACCESS:    7470047
LLC 0 RQ TO_CACHE:    7470047
LLC 0 RQ MERGED:          0
LLC 0 RQ FORWARD:          0
LLC WQ ACCESS:     106059
LLC WQ TO_CACHE:     106059
LLC WQ MERGED:          0
LLC WQ FORWARD:          0
Major fault: 0 Minor fault: 6432
CPU 0 L1D next line prefetcher final stats
CPU 0 L2C PC-based stride prefetcher final stats
All Misses: 15562286
All Hits: 4979022
SD Algo Stats - Switches: 0 SRR-Repls: 5133670 BRR-Repls: 0

DRAM Statistics
 CHANNEL 0
 RQ ROW_BUFFER_HIT:   10132360  ROW_BUFFER_MISS:    3122032
 DBUS_CONGESTED:    6631754
 WQ ROW_BUFFER_HIT:       2441  ROW_BUFFER_MISS:      77444  FULL:          0

 AVG_CONGESTED_CYCLE: 13
LOADS RETIRED: 157382665
INSTR RETIRED: 500000000
