
*** ChampSim Multicore Out-of-Order Simulator ***

Warmup Instructions: 100000000
Simulation Instructions: 500000000
Number of CPUs: 1
LLC sets: 2048
LLC ways: 16
Clean RRIP Policies: 2213230222132302 Dirty RRIP Policies: 1203130212031302 PSEL Width: 10 Track Set: 4294967295 PSEL Mask: 1 Demote Mask: 1044100010441000DS Algo: 0Window size: 0
Off-chip DRAM Size: 4096 MB Channels: 1 Width: 64-bit Data Rate: 1600 MT/s

CPU 0 runs /mnt/beegfs/iconst01/spec2017/Roms.trace.gz
NOT SORTED
TRACE STRING: /mnt/beegfs/iconst01/spec2017/Roms.trace.gz
SORTED
TRACE STRING: /mnt/beegfs/iconst01/spec2017/Roms.trace.gz
INITIAL
TRACE STRING: /mnt/beegfs/iconst01/spec2017/Roms.trace.gz

champsim_seed used: 417

CPU 0 L1D next line prefetcher
CPU 0 L2C IP-based stride prefetcher
Initialize DRRIP state
Assign rand_sets[0]: 454  LLC: 2048
rand_sets[0]: 454
Assign rand_sets[1]: 1662  LLC: 2048
rand_sets[1]: 1662
Assign rand_sets[2]: 1921  LLC: 2048
rand_sets[2]: 1921
Assign rand_sets[3]: 1131  LLC: 2048
rand_sets[3]: 1131
Assign rand_sets[4]: 331  LLC: 2048
rand_sets[4]: 331
Assign rand_sets[5]: 1531  LLC: 2048
rand_sets[5]: 1531
Assign rand_sets[6]: 482  LLC: 2048
rand_sets[6]: 482
Assign rand_sets[7]: 1275  LLC: 2048
rand_sets[7]: 1275
Assign rand_sets[8]: 1876  LLC: 2048
rand_sets[8]: 1876
Assign rand_sets[9]: 2038  LLC: 2048
rand_sets[9]: 2038
Assign rand_sets[10]: 701  LLC: 2048
rand_sets[10]: 701
Assign rand_sets[11]: 479  LLC: 2048
rand_sets[11]: 479
Assign rand_sets[12]: 892  LLC: 2048
rand_sets[12]: 892
Assign rand_sets[13]: 1820  LLC: 2048
rand_sets[13]: 1820
Assign rand_sets[14]: 1505  LLC: 2048
rand_sets[14]: 1505
Assign rand_sets[15]: 1159  LLC: 2048
rand_sets[15]: 1159
Assign rand_sets[16]: 513  LLC: 2048
rand_sets[16]: 513
Assign rand_sets[17]: 703  LLC: 2048
rand_sets[17]: 703
Assign rand_sets[18]: 561  LLC: 2048
rand_sets[18]: 561
Assign rand_sets[19]: 990  LLC: 2048
rand_sets[19]: 990
Assign rand_sets[20]: 342  LLC: 2048
rand_sets[20]: 342
Assign rand_sets[21]: 882  LLC: 2048
rand_sets[21]: 882
Assign rand_sets[22]: 15  LLC: 2048
rand_sets[22]: 15
Assign rand_sets[23]: 71  LLC: 2048
rand_sets[23]: 71
Assign rand_sets[24]: 1127  LLC: 2048
rand_sets[24]: 1127
Assign rand_sets[25]: 1382  LLC: 2048
rand_sets[25]: 1382
Assign rand_sets[26]: 647  LLC: 2048
rand_sets[26]: 647
Assign rand_sets[27]: 857  LLC: 2048
rand_sets[27]: 857
Assign rand_sets[28]: 1450  LLC: 2048
rand_sets[28]: 1450
Assign rand_sets[29]: 1160  LLC: 2048
rand_sets[29]: 1160
Assign rand_sets[30]: 1852  LLC: 2048
rand_sets[30]: 1852
Assign rand_sets[31]: 1881  LLC: 2048
rand_sets[31]: 1881
Assign rand_sets[32]: 1770  LLC: 2048
rand_sets[32]: 1770
Assign rand_sets[33]: 1622  LLC: 2048
rand_sets[33]: 1622
Assign rand_sets[34]: 275  LLC: 2048
rand_sets[34]: 275
Assign rand_sets[35]: 635  LLC: 2048
rand_sets[35]: 635
Assign rand_sets[36]: 466  LLC: 2048
rand_sets[36]: 466
Assign rand_sets[37]: 1413  LLC: 2048
rand_sets[37]: 1413
Assign rand_sets[38]: 417  LLC: 2048
rand_sets[38]: 417
Assign rand_sets[39]: 472  LLC: 2048
rand_sets[39]: 472
Assign rand_sets[40]: 1340  LLC: 2048
rand_sets[40]: 1340
Assign rand_sets[41]: 852  LLC: 2048
rand_sets[41]: 852
Assign rand_sets[42]: 1365  LLC: 2048
rand_sets[42]: 1365
Assign rand_sets[43]: 47  LLC: 2048
rand_sets[43]: 47
Assign rand_sets[44]: 823  LLC: 2048
rand_sets[44]: 823
Assign rand_sets[45]: 686  LLC: 2048
rand_sets[45]: 686
Assign rand_sets[46]: 1637  LLC: 2048
rand_sets[46]: 1637
Assign rand_sets[47]: 1115  LLC: 2048
rand_sets[47]: 1115
Assign rand_sets[48]: 986  LLC: 2048
rand_sets[48]: 986
Assign rand_sets[49]: 258  LLC: 2048
rand_sets[49]: 258
Assign rand_sets[50]: 633  LLC: 2048
rand_sets[50]: 633
Assign rand_sets[51]: 920  LLC: 2048
rand_sets[51]: 920
Assign rand_sets[52]: 204  LLC: 2048
rand_sets[52]: 204
Assign rand_sets[53]: 227  LLC: 2048
rand_sets[53]: 227
Assign rand_sets[54]: 1818  LLC: 2048
rand_sets[54]: 1818
Assign rand_sets[55]: 886  LLC: 2048
rand_sets[55]: 886
Assign rand_sets[56]: 1422  LLC: 2048
rand_sets[56]: 1422
Assign rand_sets[57]: 607  LLC: 2048
rand_sets[57]: 607
Assign rand_sets[58]: 217  LLC: 2048
rand_sets[58]: 217
Assign rand_sets[59]: 1945  LLC: 2048
rand_sets[59]: 1945
Assign rand_sets[60]: 143  LLC: 2048
rand_sets[60]: 143
Assign rand_sets[61]: 1311  LLC: 2048
rand_sets[61]: 1311
Assign rand_sets[62]: 319  LLC: 2048
rand_sets[62]: 319
Assign rand_sets[63]: 1846  LLC: 2048
rand_sets[63]: 1846
 CLEAN-RRIP-POLICY-1: 2-2-1-3-2-3-0-2- CLEAN-RRIP-POLICY-2: 2-2-1-3-2-3-0-2-
 DIRTY-RRIP-POLICY-1: 1-2-0-3-1-3-0-2- DIRTY-RRIP-POLICY-2: 1-2-0-3-1-3-0-2-
 PSEL width: 10
Heartbeat CPU 0 instructions: 10000000 cycles: 4688066 heartbeat IPC: 2.13308 cumulative IPC: 2.13308 (Simulation time: 0 hr 0 min 17 sec) 
Heartbeat CPU 0 instructions: 20000000 cycles: 9325334 heartbeat IPC: 2.15644 cumulative IPC: 2.1447 (Simulation time: 0 hr 0 min 34 sec) 
Heartbeat CPU 0 instructions: 30000003 cycles: 14019722 heartbeat IPC: 2.1302 cumulative IPC: 2.13984 (Simulation time: 0 hr 0 min 51 sec) 
Heartbeat CPU 0 instructions: 40000000 cycles: 18670140 heartbeat IPC: 2.15034 cumulative IPC: 2.14246 (Simulation time: 0 hr 1 min 9 sec) 
Heartbeat CPU 0 instructions: 50000003 cycles: 23323495 heartbeat IPC: 2.14899 cumulative IPC: 2.14376 (Simulation time: 0 hr 1 min 26 sec) 
Heartbeat CPU 0 instructions: 60000000 cycles: 27976128 heartbeat IPC: 2.14932 cumulative IPC: 2.14469 (Simulation time: 0 hr 1 min 43 sec) 
Heartbeat CPU 0 instructions: 70000002 cycles: 32367301 heartbeat IPC: 2.2773 cumulative IPC: 2.16268 (Simulation time: 0 hr 1 min 58 sec) 
Heartbeat CPU 0 instructions: 80000000 cycles: 36304156 heartbeat IPC: 2.5401 cumulative IPC: 2.2036 (Simulation time: 0 hr 2 min 10 sec) 
Heartbeat CPU 0 instructions: 90000000 cycles: 40249401 heartbeat IPC: 2.5347 cumulative IPC: 2.23606 (Simulation time: 0 hr 2 min 22 sec) 
Heartbeat CPU 0 instructions: 100000000 cycles: 44211700 heartbeat IPC: 2.52379 cumulative IPC: 2.26184 (Simulation time: 0 hr 2 min 35 sec) 

Warmup complete CPU 0 instructions: 100000002 cycles: 44211701 (Simulation time: 0 hr 2 min 35 sec) 

Heartbeat CPU 0 instructions: 110000000 cycles: 52851451 heartbeat IPC: 1.15744 cumulative IPC: 1.15744 (Simulation time: 0 hr 2 min 54 sec) 
Heartbeat CPU 0 instructions: 120000000 cycles: 61565545 heartbeat IPC: 1.14757 cumulative IPC: 1.15248 (Simulation time: 0 hr 3 min 13 sec) 
Heartbeat CPU 0 instructions: 130000002 cycles: 70319734 heartbeat IPC: 1.14231 cumulative IPC: 1.14907 (Simulation time: 0 hr 3 min 32 sec) 
Heartbeat CPU 0 instructions: 140000000 cycles: 78920377 heartbeat IPC: 1.1627 cumulative IPC: 1.15245 (Simulation time: 0 hr 3 min 51 sec) 
Heartbeat CPU 0 instructions: 150000003 cycles: 87678861 heartbeat IPC: 1.14175 cumulative IPC: 1.15029 (Simulation time: 0 hr 4 min 10 sec) 
Heartbeat CPU 0 instructions: 160000000 cycles: 97992844 heartbeat IPC: 0.969557 cumulative IPC: 1.11563 (Simulation time: 0 hr 4 min 32 sec) 
Heartbeat CPU 0 instructions: 170000000 cycles: 110481548 heartbeat IPC: 0.800724 cumulative IPC: 1.05629 (Simulation time: 0 hr 4 min 56 sec) 
Heartbeat CPU 0 instructions: 180000000 cycles: 123001574 heartbeat IPC: 0.79872 cumulative IPC: 1.01536 (Simulation time: 0 hr 5 min 20 sec) 
Heartbeat CPU 0 instructions: 190000000 cycles: 135770163 heartbeat IPC: 0.783172 cumulative IPC: 0.982978 (Simulation time: 0 hr 5 min 45 sec) 
Heartbeat CPU 0 instructions: 200000000 cycles: 149683262 heartbeat IPC: 0.718747 cumulative IPC: 0.948123 (Simulation time: 0 hr 6 min 9 sec) 
Heartbeat CPU 0 instructions: 210000001 cycles: 163639651 heartbeat IPC: 0.716518 cumulative IPC: 0.921057 (Simulation time: 0 hr 6 min 33 sec) 
Heartbeat CPU 0 instructions: 220000000 cycles: 177416052 heartbeat IPC: 0.725879 cumulative IPC: 0.900871 (Simulation time: 0 hr 6 min 58 sec) 
Heartbeat CPU 0 instructions: 230000000 cycles: 191043074 heartbeat IPC: 0.733836 cumulative IPC: 0.885369 (Simulation time: 0 hr 7 min 23 sec) 
Heartbeat CPU 0 instructions: 240000000 cycles: 204772306 heartbeat IPC: 0.728373 cumulative IPC: 0.871945 (Simulation time: 0 hr 7 min 49 sec) 
Heartbeat CPU 0 instructions: 250000003 cycles: 215900923 heartbeat IPC: 0.898585 cumulative IPC: 0.873672 (Simulation time: 0 hr 8 min 12 sec) 
Heartbeat CPU 0 instructions: 260000000 cycles: 223732368 heartbeat IPC: 1.2769 cumulative IPC: 0.891262 (Simulation time: 0 hr 8 min 32 sec) 
Heartbeat CPU 0 instructions: 270000003 cycles: 232033948 heartbeat IPC: 1.20459 cumulative IPC: 0.905111 (Simulation time: 0 hr 8 min 52 sec) 
Heartbeat CPU 0 instructions: 280000000 cycles: 240514948 heartbeat IPC: 1.17911 cumulative IPC: 0.916949 (Simulation time: 0 hr 9 min 13 sec) 
Heartbeat CPU 0 instructions: 290000000 cycles: 249147553 heartbeat IPC: 1.1584 cumulative IPC: 0.927119 (Simulation time: 0 hr 9 min 34 sec) 
Heartbeat CPU 0 instructions: 300000000 cycles: 257815719 heartbeat IPC: 1.15365 cumulative IPC: 0.936312 (Simulation time: 0 hr 9 min 55 sec) 
Heartbeat CPU 0 instructions: 310000000 cycles: 266535580 heartbeat IPC: 1.14681 cumulative IPC: 0.944568 (Simulation time: 0 hr 10 min 17 sec) 
Heartbeat CPU 0 instructions: 320000000 cycles: 275309066 heartbeat IPC: 1.1398 cumulative IPC: 0.95198 (Simulation time: 0 hr 10 min 39 sec) 
Heartbeat CPU 0 instructions: 330000002 cycles: 284050960 heartbeat IPC: 1.14392 cumulative IPC: 0.958976 (Simulation time: 0 hr 11 min 1 sec) 
Heartbeat CPU 0 instructions: 340000000 cycles: 294043320 heartbeat IPC: 1.00076 cumulative IPC: 0.960647 (Simulation time: 0 hr 11 min 24 sec) 
Heartbeat CPU 0 instructions: 350000001 cycles: 302460320 heartbeat IPC: 1.18807 cumulative IPC: 0.968059 (Simulation time: 0 hr 11 min 45 sec) 
Heartbeat CPU 0 instructions: 360000000 cycles: 310910787 heartbeat IPC: 1.18337 cumulative IPC: 0.974881 (Simulation time: 0 hr 12 min 6 sec) 
Heartbeat CPU 0 instructions: 370000001 cycles: 319349103 heartbeat IPC: 1.18507 cumulative IPC: 0.981328 (Simulation time: 0 hr 12 min 27 sec) 
Heartbeat CPU 0 instructions: 380000000 cycles: 327767554 heartbeat IPC: 1.18787 cumulative IPC: 0.98746 (Simulation time: 0 hr 12 min 48 sec) 
Heartbeat CPU 0 instructions: 390000001 cycles: 336014916 heartbeat IPC: 1.21251 cumulative IPC: 0.99382 (Simulation time: 0 hr 13 min 8 sec) 
Heartbeat CPU 0 instructions: 400000000 cycles: 344335853 heartbeat IPC: 1.20179 cumulative IPC: 0.999586 (Simulation time: 0 hr 13 min 29 sec) 
Heartbeat CPU 0 instructions: 410000003 cycles: 352582853 heartbeat IPC: 1.21256 cumulative IPC: 1.00528 (Simulation time: 0 hr 13 min 49 sec) 
Heartbeat CPU 0 instructions: 420000000 cycles: 360914894 heartbeat IPC: 1.20019 cumulative IPC: 1.01041 (Simulation time: 0 hr 14 min 10 sec) 
Heartbeat CPU 0 instructions: 430000001 cycles: 369177702 heartbeat IPC: 1.21024 cumulative IPC: 1.01549 (Simulation time: 0 hr 14 min 30 sec) 
Heartbeat CPU 0 instructions: 440000000 cycles: 377384917 heartbeat IPC: 1.21844 cumulative IPC: 1.02049 (Simulation time: 0 hr 14 min 51 sec) 
Heartbeat CPU 0 instructions: 450000001 cycles: 386873989 heartbeat IPC: 1.05384 cumulative IPC: 1.02141 (Simulation time: 0 hr 15 min 13 sec) 
Heartbeat CPU 0 instructions: 460000000 cycles: 395135757 heartbeat IPC: 1.21039 cumulative IPC: 1.02586 (Simulation time: 0 hr 15 min 33 sec) 
Heartbeat CPU 0 instructions: 470000003 cycles: 403269506 heartbeat IPC: 1.22945 cumulative IPC: 1.03047 (Simulation time: 0 hr 15 min 54 sec) 
Heartbeat CPU 0 instructions: 480000000 cycles: 411433665 heartbeat IPC: 1.22487 cumulative IPC: 1.0348 (Simulation time: 0 hr 16 min 14 sec) 
Heartbeat CPU 0 instructions: 490000000 cycles: 419575067 heartbeat IPC: 1.22829 cumulative IPC: 1.03899 (Simulation time: 0 hr 16 min 34 sec) 
Heartbeat CPU 0 instructions: 500000000 cycles: 427730952 heartbeat IPC: 1.22611 cumulative IPC: 1.04297 (Simulation time: 0 hr 16 min 55 sec) 
Heartbeat CPU 0 instructions: 510000001 cycles: 435849652 heartbeat IPC: 1.23172 cumulative IPC: 1.04689 (Simulation time: 0 hr 17 min 15 sec) 
Heartbeat CPU 0 instructions: 520000000 cycles: 443999851 heartbeat IPC: 1.22696 cumulative IPC: 1.05056 (Simulation time: 0 hr 17 min 35 sec) 
Heartbeat CPU 0 instructions: 530000001 cycles: 452157142 heartbeat IPC: 1.2259 cumulative IPC: 1.05406 (Simulation time: 0 hr 17 min 55 sec) 
Heartbeat CPU 0 instructions: 540000000 cycles: 460472424 heartbeat IPC: 1.2026 cumulative IPC: 1.05703 (Simulation time: 0 hr 18 min 15 sec) 
Heartbeat CPU 0 instructions: 550000001 cycles: 468852029 heartbeat IPC: 1.19337 cumulative IPC: 1.05972 (Simulation time: 0 hr 18 min 36 sec) 
Heartbeat CPU 0 instructions: 560000000 cycles: 477000265 heartbeat IPC: 1.22726 cumulative IPC: 1.06287 (Simulation time: 0 hr 18 min 56 sec) 
Heartbeat CPU 0 instructions: 570000001 cycles: 488121506 heartbeat IPC: 0.89918 cumulative IPC: 1.05877 (Simulation time: 0 hr 19 min 18 sec) 
Heartbeat CPU 0 instructions: 580000000 cycles: 498903831 heartbeat IPC: 0.927444 cumulative IPC: 1.05566 (Simulation time: 0 hr 19 min 40 sec) 
Heartbeat CPU 0 instructions: 590000001 cycles: 509927998 heartbeat IPC: 0.907098 cumulative IPC: 1.05214 (Simulation time: 0 hr 20 min 2 sec) 
Heartbeat CPU 0 instructions: 600000000 cycles: 520688034 heartbeat IPC: 0.929365 cumulative IPC: 1.04937 (Simulation time: 0 hr 20 min 24 sec) 
Finished CPU 0 instructions: 500000001 cycles: 476476346 cumulative IPC: 1.04937 (Simulation time: 0 hr 20 min 24 sec) 

CPU 0 Branch Prediction Accuracy: 99.7422% MPKI: 0.173296
Number of Branches: 33608403 Number of Mispredictions: 86648
Number of LOAD Instructions: 180215231
Number of LOAD Instructions (ROI): 180215231
Number of STORE Instructions: 36067263
Number of STORE Instructions (ROI): 36067263
Total Destination Memory Operands: 38428915
Total Destination Memory Operands (ROI): 38428915
Total Source Memory Operands: 180215231
Total Source Memory Operands (ROI): 180215231
Number of DEPENDED LOADS: 3041314
Number of DEPENDED LOADS (ROI): 3041314
Number of SQ_ADDED: 38428892
Number of SQ_ADDED (ROI): 38428892
Number of LQ_ADDED: 207721351
Number of LQ_ADDED (ROI): 207721351
Number of Instructions read from trace: 600000257

ChampSim completed all CPUs

Region of Interest Statistics

CPU 0 cumulative IPC: 1.04937 instructions: 500000001 cycles: 476476346
ITLB TOTAL     ACCESS:   91771246  HIT:   91771227  MISS:         19
ITLB LOAD      ACCESS:   91771246  HIT:   91771227  MISS:         19
ITLB RFO       ACCESS:          0  HIT:          0  MISS:          0
ITLB PREFETCH  ACCESS:          0  HIT:          0  MISS:          0
ITLB WRITEBACK ACCESS:          0  HIT:          0  MISS:          0
ITLB PREFETCH  REQUESTED:          0  ISSUED:          0  USEFUL:          0  USELESS:          0
ITLB TOTAL MSHR MERGED:         40
ITLB LOAD MSHR MERGED:         40
ITLB RFO MSHR MERGED:          0
ITLB PREFETCH MSHR MERGED:          0
ITLB WRITEBACK MSHR MERGED:          0
ITLB TOTAL ACCESSES:   91771286 HITS:   91771227 MISSES:         59
ITLB LOAD ACCESSES:   91771286 HITS:   91771227 MISSES:         59
ITLB RFO ACCESSES:          0 HITS:          0 MISSES:          0
ITLB PREFETCH ACCESSES:          0 HITS:          0 MISSES:          0
ITLB WRITEBACK ACCESSES:          0 HITS:          0 MISSES:          0
ITLB RQ ACCESS:  500000003
ITLB RQ TO_CACHE:   91771286
ITLB RQ MERGED:  408228717
ITLB RQ FORWARD:          0
ITLB WQ ACCESS:          0
ITLB WQ TO_CACHE:          0
ITLB WQ MERGED:          0
ITLB WQ FORWARD:          0
DTLB TOTAL     ACCESS:  142081414  HIT:  141714953  MISS:     366461
DTLB LOAD      ACCESS:  119434351  HIT:  119120766  MISS:     313585
DTLB RFO       ACCESS:   22647063  HIT:   22594187  MISS:      52876
DTLB PREFETCH  ACCESS:          0  HIT:          0  MISS:          0
DTLB WRITEBACK ACCESS:          0  HIT:          0  MISS:          0
DTLB PREFETCH  REQUESTED:          0  ISSUED:          0  USEFUL:          0  USELESS:          0
DTLB TOTAL MSHR MERGED:     287952
DTLB LOAD MSHR MERGED:     240255
DTLB RFO MSHR MERGED:      47697
DTLB PREFETCH MSHR MERGED:          0
DTLB WRITEBACK MSHR MERGED:          0
DTLB TOTAL ACCESSES:  142369366 HITS:  141714953 MISSES:     654413
DTLB LOAD ACCESSES:  119674606 HITS:  119120766 MISSES:     553840
DTLB RFO ACCESSES:   22694760 HITS:   22594187 MISSES:     100573
DTLB PREFETCH ACCESSES:          0 HITS:          0 MISSES:          0
DTLB WRITEBACK ACCESSES:          0 HITS:          0 MISSES:          0
DTLB RQ ACCESS:  184791663
DTLB RQ TO_CACHE:  142369366
DTLB RQ MERGED:   42422297
DTLB RQ FORWARD:          0
DTLB WQ ACCESS:          0
DTLB WQ TO_CACHE:          0
DTLB WQ MERGED:          0
DTLB WQ FORWARD:          0
L1D TOTAL     ACCESS:  190625322  HIT:  177172158  MISS:   13453164
L1D LOAD      ACCESS:  112015536  HIT:  108807278  MISS:    3208258
L1D RFO       ACCESS:   19163921  HIT:   16382184  MISS:    2781737
L1D PREFETCH  ACCESS:   59445865  HIT:   51982696  MISS:    7463169
L1D WRITEBACK ACCESS:          0  HIT:          0  MISS:          0
L1D PREFETCH  REQUESTED:  116526064  ISSUED:  115172074  USEFUL:    7253362  USELESS:     209807
L1D TOTAL MSHR MERGED:   30975248
L1D LOAD MSHR MERGED:    7161948
L1D RFO MSHR MERGED:    9088838
L1D PREFETCH MSHR MERGED:   14724462
L1D WRITEBACK MSHR MERGED:          0
L1D TOTAL ACCESSES:  221600987 HITS:  177172574 MISSES:   44428413
L1D LOAD ACCESSES:  116526084 HITS:  108807298 MISSES:    7718786
L1D RFO ACCESSES:   28252712 HITS:   16382184 MISSES:   11870528
L1D PREFETCH ACCESSES:   76822191 HITS:   51983092 MISSES:   24839099
L1D WRITEBACK ACCESSES:          0 HITS:          0 MISSES:          0
L1D RQ ACCESS:  156535597
L1D RQ TO_CACHE:  116526067
L1D RQ MERGED:   40009510
L1D RQ FORWARD:          0
L1D WQ ACCESS:   28256066
L1D WQ TO_CACHE:   28252712
L1D WQ MERGED:       3354
L1D WQ FORWARD:        416
L1I TOTAL     ACCESS:  115762214  HIT:  115761266  MISS:        948
L1I LOAD      ACCESS:  115762214  HIT:  115761266  MISS:        948
L1I RFO       ACCESS:          0  HIT:          0  MISS:          0
L1I PREFETCH  ACCESS:          0  HIT:          0  MISS:          0
L1I WRITEBACK ACCESS:          0  HIT:          0  MISS:          0
L1I PREFETCH  REQUESTED:          0  ISSUED:          0  USEFUL:          0  USELESS:          0
L1I TOTAL MSHR MERGED:       1577
L1I LOAD MSHR MERGED:       1577
L1I RFO MSHR MERGED:          0
L1I PREFETCH MSHR MERGED:          0
L1I WRITEBACK MSHR MERGED:          0
L1I TOTAL ACCESSES:  115763791 HITS:  115761266 MISSES:       2525
L1I LOAD ACCESSES:  115763791 HITS:  115761266 MISSES:       2525
L1I RFO ACCESSES:          0 HITS:          0 MISSES:          0
L1I PREFETCH ACCESSES:          0 HITS:          0 MISSES:          0
L1I WRITEBACK ACCESSES:          0 HITS:          0 MISSES:          0
L1I RQ ACCESS:  500000007
L1I RQ TO_CACHE:  115763791
L1I RQ MERGED:  384236216
L1I RQ FORWARD:          0
L1I WQ ACCESS:          0
L1I WQ TO_CACHE:          0
L1I WQ MERGED:          0
L1I WQ FORWARD:          0
L2C TOTAL     ACCESS:   16699288  HIT:    4855088  MISS:   11844200
L2C LOAD      ACCESS:     557757  HIT:      95620  MISS:     462137
L2C RFO       ACCESS:    2781690  HIT:     266770  MISS:    2514920
L2C PREFETCH  ACCESS:   10139187  HIT:    1274325  MISS:    8864862
L2C WRITEBACK ACCESS:    3220654  HIT:    3218373  MISS:       2281
L2C PREFETCH  REQUESTED:      26502  ISSUED:      26502  USEFUL:      93169  USELESS:    8769750
L2C TOTAL MSHR MERGED:        404
L2C LOAD MSHR MERGED:          5
L2C RFO MSHR MERGED:          0
L2C PREFETCH MSHR MERGED:        399
L2C WRITEBACK MSHR MERGED:          0
L2C TOTAL ACCESSES:   16699850 HITS:    4855137 MISSES:   11844713
L2C LOAD ACCESSES:     557786 HITS:      95649 MISSES:     462137
L2C RFO ACCESSES:    2781690 HITS:     266770 MISSES:    2514920
L2C PREFETCH ACCESSES:   10139720 HITS:    1274345 MISSES:    8865375
L2C WRITEBACK ACCESSES:    3220654 HITS:    3218373 MISSES:       2281
L2C RQ ACCESS:    3339476
L2C RQ TO_CACHE:    3339447
L2C RQ MERGED:          0
L2C RQ FORWARD:          0
L2C WQ ACCESS:    3220654
L2C WQ TO_CACHE:    3220654
L2C WQ MERGED:          0
L2C WQ FORWARD:         49
LLC TOTAL     ACCESS:   14742277  HIT:    7711135  MISS:    7031142
LLC LOAD      ACCESS:     462129  HIT:     195221  MISS:     266908
LLC RFO       ACCESS:    2514899  HIT:    1931390  MISS:     583509
LLC PREFETCH  ACCESS:    8864919  HIT:    3347044  MISS:    5517875
LLC WRITEBACK ACCESS:    2900330  HIT:    2237480  MISS:     662850
LLC PREFETCH  REQUESTED:          0  ISSUED:          0  USEFUL:       3185  USELESS:    5520908
LLC TOTAL MSHR MERGED:          4
LLC LOAD MSHR MERGED:          0
LLC RFO MSHR MERGED:          0
LLC PREFETCH MSHR MERGED:          4
LLC WRITEBACK MSHR MERGED:          0
LLC TOTAL ACCESSES:   14742344 HITS:    7711197 MISSES:    7031147
LLC LOAD ACCESSES:     462132 HITS:     195224 MISSES:     266908
LLC RFO ACCESSES:    2514920 HITS:    1931411 MISSES:     583509
LLC PREFETCH ACCESSES:    8864962 HITS:    3347082 MISSES:    5517880
LLC WRITEBACK ACCESSES:    2900330 HITS:    2237480 MISSES:     662850
LLC 0 RQ ACCESS:    2977052
LLC 0 RQ TO_CACHE:    2977028
LLC 0 RQ MERGED:          0
LLC 0 RQ FORWARD:          0
LLC WQ ACCESS:    2900330
LLC WQ TO_CACHE:    2900330
LLC WQ MERGED:          0
LLC WQ FORWARD:         62
Major fault: 0 Minor fault: 57518
CPU 0 L1D next line prefetcher final stats
CPU 0 L2C PC-based stride prefetcher final stats
All Misses: 7626875
All Hits: 8611575
SD Algo Stats - Switches: 0 SRR-Repls: 275629 BRR-Repls: 0

DRAM Statistics
 CHANNEL 0
 RQ ROW_BUFFER_HIT:    3671527  ROW_BUFFER_MISS:    2694136
 DBUS_CONGESTED:    2855107
 WQ ROW_BUFFER_HIT:      86547  ROW_BUFFER_MISS:     760170  FULL:          0

 AVG_CONGESTED_CYCLE: 12
LOADS RETIRED: 157818985
INSTR RETIRED: 500000000
