
*** ChampSim Multicore Out-of-Order Simulator ***

Warmup Instructions: 100000000
Simulation Instructions: 500000000
Number of CPUs: 1
LLC sets: 2048
LLC ways: 16
Clean RRIP Policies: 1213030112130301 Dirty RRIP Policies: 2213130122131301 PSEL Width: 10 Track Set: 4294967295 PSEL Mask: 1 Demote Mask: 1340211013402110DS Algo: 0Window size: 0
Off-chip DRAM Size: 4096 MB Channels: 1 Width: 64-bit Data Rate: 1600 MT/s

CPU 0 runs /mnt/beegfs/iconst01/spec2017/Mcf.trace.gz
NOT SORTED
TRACE STRING: /mnt/beegfs/iconst01/spec2017/Mcf.trace.gz
SORTED
TRACE STRING: /mnt/beegfs/iconst01/spec2017/Mcf.trace.gz
INITIAL
TRACE STRING: /mnt/beegfs/iconst01/spec2017/Mcf.trace.gz

champsim_seed used: 278

CPU 0 L1D next line prefetcher
CPU 0 L2C IP-based stride prefetcher
Initialize DRRIP state
Assign rand_sets[0]: 454  LLC: 2048
rand_sets[0]: 454
Assign rand_sets[1]: 1662  LLC: 2048
rand_sets[1]: 1662
Assign rand_sets[2]: 1921  LLC: 2048
rand_sets[2]: 1921
Assign rand_sets[3]: 1131  LLC: 2048
rand_sets[3]: 1131
Assign rand_sets[4]: 331  LLC: 2048
rand_sets[4]: 331
Assign rand_sets[5]: 1531  LLC: 2048
rand_sets[5]: 1531
Assign rand_sets[6]: 482  LLC: 2048
rand_sets[6]: 482
Assign rand_sets[7]: 1275  LLC: 2048
rand_sets[7]: 1275
Assign rand_sets[8]: 1876  LLC: 2048
rand_sets[8]: 1876
Assign rand_sets[9]: 2038  LLC: 2048
rand_sets[9]: 2038
Assign rand_sets[10]: 701  LLC: 2048
rand_sets[10]: 701
Assign rand_sets[11]: 479  LLC: 2048
rand_sets[11]: 479
Assign rand_sets[12]: 892  LLC: 2048
rand_sets[12]: 892
Assign rand_sets[13]: 1820  LLC: 2048
rand_sets[13]: 1820
Assign rand_sets[14]: 1505  LLC: 2048
rand_sets[14]: 1505
Assign rand_sets[15]: 1159  LLC: 2048
rand_sets[15]: 1159
Assign rand_sets[16]: 513  LLC: 2048
rand_sets[16]: 513
Assign rand_sets[17]: 703  LLC: 2048
rand_sets[17]: 703
Assign rand_sets[18]: 561  LLC: 2048
rand_sets[18]: 561
Assign rand_sets[19]: 990  LLC: 2048
rand_sets[19]: 990
Assign rand_sets[20]: 342  LLC: 2048
rand_sets[20]: 342
Assign rand_sets[21]: 882  LLC: 2048
rand_sets[21]: 882
Assign rand_sets[22]: 15  LLC: 2048
rand_sets[22]: 15
Assign rand_sets[23]: 71  LLC: 2048
rand_sets[23]: 71
Assign rand_sets[24]: 1127  LLC: 2048
rand_sets[24]: 1127
Assign rand_sets[25]: 1382  LLC: 2048
rand_sets[25]: 1382
Assign rand_sets[26]: 647  LLC: 2048
rand_sets[26]: 647
Assign rand_sets[27]: 857  LLC: 2048
rand_sets[27]: 857
Assign rand_sets[28]: 1450  LLC: 2048
rand_sets[28]: 1450
Assign rand_sets[29]: 1160  LLC: 2048
rand_sets[29]: 1160
Assign rand_sets[30]: 1852  LLC: 2048
rand_sets[30]: 1852
Assign rand_sets[31]: 1881  LLC: 2048
rand_sets[31]: 1881
Assign rand_sets[32]: 1770  LLC: 2048
rand_sets[32]: 1770
Assign rand_sets[33]: 1622  LLC: 2048
rand_sets[33]: 1622
Assign rand_sets[34]: 275  LLC: 2048
rand_sets[34]: 275
Assign rand_sets[35]: 635  LLC: 2048
rand_sets[35]: 635
Assign rand_sets[36]: 466  LLC: 2048
rand_sets[36]: 466
Assign rand_sets[37]: 1413  LLC: 2048
rand_sets[37]: 1413
Assign rand_sets[38]: 417  LLC: 2048
rand_sets[38]: 417
Assign rand_sets[39]: 472  LLC: 2048
rand_sets[39]: 472
Assign rand_sets[40]: 1340  LLC: 2048
rand_sets[40]: 1340
Assign rand_sets[41]: 852  LLC: 2048
rand_sets[41]: 852
Assign rand_sets[42]: 1365  LLC: 2048
rand_sets[42]: 1365
Assign rand_sets[43]: 47  LLC: 2048
rand_sets[43]: 47
Assign rand_sets[44]: 823  LLC: 2048
rand_sets[44]: 823
Assign rand_sets[45]: 686  LLC: 2048
rand_sets[45]: 686
Assign rand_sets[46]: 1637  LLC: 2048
rand_sets[46]: 1637
Assign rand_sets[47]: 1115  LLC: 2048
rand_sets[47]: 1115
Assign rand_sets[48]: 986  LLC: 2048
rand_sets[48]: 986
Assign rand_sets[49]: 258  LLC: 2048
rand_sets[49]: 258
Assign rand_sets[50]: 633  LLC: 2048
rand_sets[50]: 633
Assign rand_sets[51]: 920  LLC: 2048
rand_sets[51]: 920
Assign rand_sets[52]: 204  LLC: 2048
rand_sets[52]: 204
Assign rand_sets[53]: 227  LLC: 2048
rand_sets[53]: 227
Assign rand_sets[54]: 1818  LLC: 2048
rand_sets[54]: 1818
Assign rand_sets[55]: 886  LLC: 2048
rand_sets[55]: 886
Assign rand_sets[56]: 1422  LLC: 2048
rand_sets[56]: 1422
Assign rand_sets[57]: 607  LLC: 2048
rand_sets[57]: 607
Assign rand_sets[58]: 217  LLC: 2048
rand_sets[58]: 217
Assign rand_sets[59]: 1945  LLC: 2048
rand_sets[59]: 1945
Assign rand_sets[60]: 143  LLC: 2048
rand_sets[60]: 143
Assign rand_sets[61]: 1311  LLC: 2048
rand_sets[61]: 1311
Assign rand_sets[62]: 319  LLC: 2048
rand_sets[62]: 319
Assign rand_sets[63]: 1846  LLC: 2048
rand_sets[63]: 1846
 CLEAN-RRIP-POLICY-1: 1-2-1-3-0-3-0-1- CLEAN-RRIP-POLICY-2: 1-2-1-3-0-3-0-1-
 DIRTY-RRIP-POLICY-1: 2-2-1-3-1-3-0-1- DIRTY-RRIP-POLICY-2: 2-2-1-3-1-3-0-1-
 PSEL width: 10
Heartbeat CPU 0 instructions: 10000002 cycles: 6248498 heartbeat IPC: 1.60038 cumulative IPC: 1.60038 (Simulation time: 0 hr 0 min 12 sec) 
Heartbeat CPU 0 instructions: 20000000 cycles: 12469286 heartbeat IPC: 1.60751 cumulative IPC: 1.60394 (Simulation time: 0 hr 0 min 25 sec) 
Heartbeat CPU 0 instructions: 30000000 cycles: 18679627 heartbeat IPC: 1.61022 cumulative IPC: 1.60603 (Simulation time: 0 hr 0 min 38 sec) 
Heartbeat CPU 0 instructions: 40000000 cycles: 24890173 heartbeat IPC: 1.61016 cumulative IPC: 1.60706 (Simulation time: 0 hr 0 min 50 sec) 
Heartbeat CPU 0 instructions: 50000003 cycles: 31102542 heartbeat IPC: 1.60969 cumulative IPC: 1.60759 (Simulation time: 0 hr 1 min 3 sec) 
Heartbeat CPU 0 instructions: 60000000 cycles: 37298669 heartbeat IPC: 1.61391 cumulative IPC: 1.60864 (Simulation time: 0 hr 1 min 16 sec) 
Heartbeat CPU 0 instructions: 70000003 cycles: 43517013 heartbeat IPC: 1.60815 cumulative IPC: 1.60857 (Simulation time: 0 hr 1 min 29 sec) 
Heartbeat CPU 0 instructions: 80000000 cycles: 49747465 heartbeat IPC: 1.60502 cumulative IPC: 1.60812 (Simulation time: 0 hr 1 min 42 sec) 
Heartbeat CPU 0 instructions: 90000000 cycles: 55976396 heartbeat IPC: 1.60541 cumulative IPC: 1.60782 (Simulation time: 0 hr 1 min 55 sec) 
Heartbeat CPU 0 instructions: 100000000 cycles: 62195358 heartbeat IPC: 1.60799 cumulative IPC: 1.60784 (Simulation time: 0 hr 2 min 8 sec) 

Warmup complete CPU 0 instructions: 100000001 cycles: 62195359 (Simulation time: 0 hr 2 min 8 sec) 

Heartbeat CPU 0 instructions: 110000000 cycles: 86880079 heartbeat IPC: 0.405109 cumulative IPC: 0.405109 (Simulation time: 0 hr 2 min 33 sec) 
Heartbeat CPU 0 instructions: 120000000 cycles: 111677087 heartbeat IPC: 0.403274 cumulative IPC: 0.40419 (Simulation time: 0 hr 2 min 58 sec) 
Heartbeat CPU 0 instructions: 130000000 cycles: 136543084 heartbeat IPC: 0.402156 cumulative IPC: 0.403509 (Simulation time: 0 hr 3 min 23 sec) 
Heartbeat CPU 0 instructions: 140000000 cycles: 161360560 heartbeat IPC: 0.402942 cumulative IPC: 0.403367 (Simulation time: 0 hr 3 min 47 sec) 
Heartbeat CPU 0 instructions: 150000003 cycles: 186073726 heartbeat IPC: 0.404643 cumulative IPC: 0.403622 (Simulation time: 0 hr 4 min 12 sec) 
Heartbeat CPU 0 instructions: 160000000 cycles: 211074533 heartbeat IPC: 0.399987 cumulative IPC: 0.403011 (Simulation time: 0 hr 4 min 37 sec) 
Heartbeat CPU 0 instructions: 170000001 cycles: 235934450 heartbeat IPC: 0.402254 cumulative IPC: 0.402903 (Simulation time: 0 hr 5 min 3 sec) 
Heartbeat CPU 0 instructions: 180000000 cycles: 260770829 heartbeat IPC: 0.402635 cumulative IPC: 0.402869 (Simulation time: 0 hr 5 min 28 sec) 
Heartbeat CPU 0 instructions: 190000003 cycles: 285575240 heartbeat IPC: 0.403154 cumulative IPC: 0.402901 (Simulation time: 0 hr 5 min 53 sec) 
Heartbeat CPU 0 instructions: 200000000 cycles: 310426873 heartbeat IPC: 0.402388 cumulative IPC: 0.40285 (Simulation time: 0 hr 6 min 17 sec) 
Heartbeat CPU 0 instructions: 210000003 cycles: 335329760 heartbeat IPC: 0.40156 cumulative IPC: 0.402732 (Simulation time: 0 hr 6 min 42 sec) 
Heartbeat CPU 0 instructions: 220000000 cycles: 360441672 heartbeat IPC: 0.398217 cumulative IPC: 0.402352 (Simulation time: 0 hr 7 min 7 sec) 
Heartbeat CPU 0 instructions: 230000002 cycles: 385206217 heartbeat IPC: 0.403803 cumulative IPC: 0.402463 (Simulation time: 0 hr 7 min 32 sec) 
Heartbeat CPU 0 instructions: 240000000 cycles: 410273359 heartbeat IPC: 0.398929 cumulative IPC: 0.402209 (Simulation time: 0 hr 7 min 57 sec) 
Heartbeat CPU 0 instructions: 250000000 cycles: 435158379 heartbeat IPC: 0.401848 cumulative IPC: 0.402185 (Simulation time: 0 hr 8 min 21 sec) 
Heartbeat CPU 0 instructions: 260000000 cycles: 460015922 heartbeat IPC: 0.402292 cumulative IPC: 0.402191 (Simulation time: 0 hr 8 min 46 sec) 
Heartbeat CPU 0 instructions: 270000001 cycles: 484939443 heartbeat IPC: 0.401227 cumulative IPC: 0.402135 (Simulation time: 0 hr 9 min 11 sec) 
Heartbeat CPU 0 instructions: 280000000 cycles: 509813337 heartbeat IPC: 0.402028 cumulative IPC: 0.402129 (Simulation time: 0 hr 9 min 36 sec) 
Heartbeat CPU 0 instructions: 290000001 cycles: 534758087 heartbeat IPC: 0.400886 cumulative IPC: 0.402063 (Simulation time: 0 hr 10 min 1 sec) 
Heartbeat CPU 0 instructions: 300000000 cycles: 559882910 heartbeat IPC: 0.398013 cumulative IPC: 0.401859 (Simulation time: 0 hr 10 min 26 sec) 
Heartbeat CPU 0 instructions: 310000003 cycles: 584654384 heartbeat IPC: 0.40369 cumulative IPC: 0.401945 (Simulation time: 0 hr 10 min 50 sec) 
Heartbeat CPU 0 instructions: 320000000 cycles: 609781494 heartbeat IPC: 0.397976 cumulative IPC: 0.401763 (Simulation time: 0 hr 11 min 15 sec) 
Heartbeat CPU 0 instructions: 330000003 cycles: 634647335 heartbeat IPC: 0.402158 cumulative IPC: 0.40178 (Simulation time: 0 hr 11 min 40 sec) 
Heartbeat CPU 0 instructions: 340000000 cycles: 659812432 heartbeat IPC: 0.397376 cumulative IPC: 0.401595 (Simulation time: 0 hr 12 min 5 sec) 
Heartbeat CPU 0 instructions: 350000002 cycles: 684939964 heartbeat IPC: 0.39797 cumulative IPC: 0.401449 (Simulation time: 0 hr 12 min 30 sec) 
Heartbeat CPU 0 instructions: 360000000 cycles: 710237658 heartbeat IPC: 0.395293 cumulative IPC: 0.401208 (Simulation time: 0 hr 12 min 55 sec) 
Heartbeat CPU 0 instructions: 370000000 cycles: 735300068 heartbeat IPC: 0.399004 cumulative IPC: 0.401126 (Simulation time: 0 hr 13 min 19 sec) 
Heartbeat CPU 0 instructions: 380000000 cycles: 760172896 heartbeat IPC: 0.402045 cumulative IPC: 0.401159 (Simulation time: 0 hr 13 min 44 sec) 
Heartbeat CPU 0 instructions: 390000002 cycles: 785046624 heartbeat IPC: 0.402031 cumulative IPC: 0.401189 (Simulation time: 0 hr 14 min 8 sec) 
Heartbeat CPU 0 instructions: 400000000 cycles: 810094979 heartbeat IPC: 0.399228 cumulative IPC: 0.401123 (Simulation time: 0 hr 14 min 33 sec) 
Heartbeat CPU 0 instructions: 410000002 cycles: 835052814 heartbeat IPC: 0.400676 cumulative IPC: 0.401109 (Simulation time: 0 hr 14 min 57 sec) 
Heartbeat CPU 0 instructions: 420000000 cycles: 859824091 heartbeat IPC: 0.403693 cumulative IPC: 0.401189 (Simulation time: 0 hr 15 min 22 sec) 
Heartbeat CPU 0 instructions: 430000000 cycles: 884835480 heartbeat IPC: 0.399818 cumulative IPC: 0.401147 (Simulation time: 0 hr 15 min 47 sec) 
Heartbeat CPU 0 instructions: 440000000 cycles: 909532292 heartbeat IPC: 0.404911 cumulative IPC: 0.401257 (Simulation time: 0 hr 16 min 11 sec) 
Heartbeat CPU 0 instructions: 450000000 cycles: 934737333 heartbeat IPC: 0.396746 cumulative IPC: 0.401127 (Simulation time: 0 hr 16 min 37 sec) 
Heartbeat CPU 0 instructions: 460000000 cycles: 959827925 heartbeat IPC: 0.398556 cumulative IPC: 0.401055 (Simulation time: 0 hr 17 min 3 sec) 
Heartbeat CPU 0 instructions: 470000001 cycles: 984720104 heartbeat IPC: 0.401733 cumulative IPC: 0.401073 (Simulation time: 0 hr 17 min 28 sec) 
Heartbeat CPU 0 instructions: 480000000 cycles: 1009782412 heartbeat IPC: 0.399006 cumulative IPC: 0.401019 (Simulation time: 0 hr 17 min 54 sec) 
Heartbeat CPU 0 instructions: 490000000 cycles: 1034932678 heartbeat IPC: 0.39761 cumulative IPC: 0.40093 (Simulation time: 0 hr 18 min 19 sec) 
Heartbeat CPU 0 instructions: 500000000 cycles: 1060389645 heartbeat IPC: 0.39282 cumulative IPC: 0.400724 (Simulation time: 0 hr 18 min 45 sec) 
Heartbeat CPU 0 instructions: 510000003 cycles: 1085717141 heartbeat IPC: 0.394828 cumulative IPC: 0.400578 (Simulation time: 0 hr 19 min 10 sec) 
Heartbeat CPU 0 instructions: 520000000 cycles: 1111217288 heartbeat IPC: 0.392154 cumulative IPC: 0.400373 (Simulation time: 0 hr 19 min 36 sec) 
Heartbeat CPU 0 instructions: 530000003 cycles: 1136760773 heartbeat IPC: 0.391489 cumulative IPC: 0.400162 (Simulation time: 0 hr 20 min 2 sec) 
Heartbeat CPU 0 instructions: 540000000 cycles: 1162220028 heartbeat IPC: 0.392784 cumulative IPC: 0.399991 (Simulation time: 0 hr 20 min 27 sec) 
Heartbeat CPU 0 instructions: 550000000 cycles: 1187672255 heartbeat IPC: 0.392893 cumulative IPC: 0.399831 (Simulation time: 0 hr 20 min 53 sec) 
Heartbeat CPU 0 instructions: 560000000 cycles: 1213434800 heartbeat IPC: 0.38816 cumulative IPC: 0.399569 (Simulation time: 0 hr 21 min 19 sec) 
Heartbeat CPU 0 instructions: 570000001 cycles: 1239134865 heartbeat IPC: 0.389104 cumulative IPC: 0.399341 (Simulation time: 0 hr 21 min 44 sec) 
Heartbeat CPU 0 instructions: 580000000 cycles: 1264838860 heartbeat IPC: 0.389045 cumulative IPC: 0.399121 (Simulation time: 0 hr 22 min 10 sec) 
Heartbeat CPU 0 instructions: 590000000 cycles: 1290713630 heartbeat IPC: 0.386477 cumulative IPC: 0.398854 (Simulation time: 0 hr 22 min 36 sec) 
Heartbeat CPU 0 instructions: 600000000 cycles: 1316655270 heartbeat IPC: 0.385481 cumulative IPC: 0.398578 (Simulation time: 0 hr 23 min 2 sec) 
Finished CPU 0 instructions: 500000003 cycles: 1254459924 cumulative IPC: 0.398578 (Simulation time: 0 hr 23 min 2 sec) 

CPU 0 Branch Prediction Accuracy: 91.1342% MPKI: 18.7968
Number of Branches: 106006945 Number of Mispredictions: 9398408
Number of LOAD Instructions: 207894007
Number of LOAD Instructions (ROI): 207894007
Number of STORE Instructions: 54285997
Number of STORE Instructions (ROI): 54285997
Total Destination Memory Operands: 57463404
Total Destination Memory Operands (ROI): 57463404
Total Source Memory Operands: 207894007
Total Source Memory Operands (ROI): 207894007
Number of DEPENDED LOADS: 18115878
Number of DEPENDED LOADS (ROI): 18115878
Number of SQ_ADDED: 57463404
Number of SQ_ADDED (ROI): 57463404
Number of LQ_ADDED: 209259473
Number of LQ_ADDED (ROI): 209259473
Number of Instructions read from trace: 600000039

ChampSim completed all CPUs

Region of Interest Statistics

CPU 0 cumulative IPC: 0.398578 instructions: 500000003 cycles: 1254459924
ITLB TOTAL     ACCESS:   96396516  HIT:   96396516  MISS:          0
ITLB LOAD      ACCESS:   96396516  HIT:   96396516  MISS:          0
ITLB RFO       ACCESS:          0  HIT:          0  MISS:          0
ITLB PREFETCH  ACCESS:          0  HIT:          0  MISS:          0
ITLB WRITEBACK ACCESS:          0  HIT:          0  MISS:          0
ITLB PREFETCH  REQUESTED:          0  ISSUED:          0  USEFUL:          0  USELESS:          0
ITLB TOTAL MSHR MERGED:          0
ITLB LOAD MSHR MERGED:          0
ITLB RFO MSHR MERGED:          0
ITLB PREFETCH MSHR MERGED:          0
ITLB WRITEBACK MSHR MERGED:          0
ITLB TOTAL ACCESSES:   96396516 HITS:   96396516 MISSES:          0
ITLB LOAD ACCESSES:   96396516 HITS:   96396516 MISSES:          0
ITLB RFO ACCESSES:          0 HITS:          0 MISSES:          0
ITLB PREFETCH ACCESSES:          0 HITS:          0 MISSES:          0
ITLB WRITEBACK ACCESSES:          0 HITS:          0 MISSES:          0
ITLB RQ ACCESS:  499999980
ITLB RQ TO_CACHE:   96396516
ITLB RQ MERGED:  403603464
ITLB RQ FORWARD:          0
ITLB WQ ACCESS:          0
ITLB WQ TO_CACHE:          0
ITLB WQ MERGED:          0
ITLB WQ FORWARD:          0
DTLB TOTAL     ACCESS:  155162139  HIT:  150249943  MISS:    4912196
DTLB LOAD      ACCESS:  117710742  HIT:  113320239  MISS:    4390503
DTLB RFO       ACCESS:   37451397  HIT:   36929704  MISS:     521693
DTLB PREFETCH  ACCESS:          0  HIT:          0  MISS:          0
DTLB WRITEBACK ACCESS:          0  HIT:          0  MISS:          0
DTLB PREFETCH  REQUESTED:          0  ISSUED:          0  USEFUL:          0  USELESS:          0
DTLB TOTAL MSHR MERGED:     452456
DTLB LOAD MSHR MERGED:     161097
DTLB RFO MSHR MERGED:     291359
DTLB PREFETCH MSHR MERGED:          0
DTLB WRITEBACK MSHR MERGED:          0
DTLB TOTAL ACCESSES:  155614595 HITS:  150249943 MISSES:    5364652
DTLB LOAD ACCESSES:  117871839 HITS:  113320239 MISSES:    4551600
DTLB RFO ACCESSES:   37742756 HITS:   36929704 MISSES:     813052
DTLB PREFETCH ACCESSES:          0 HITS:          0 MISSES:          0
DTLB WRITEBACK ACCESSES:          0 HITS:          0 MISSES:          0
DTLB RQ ACCESS:  205967394
DTLB RQ TO_CACHE:  155614595
DTLB RQ MERGED:   50352799
DTLB RQ FORWARD:          0
DTLB WQ ACCESS:          0
DTLB WQ TO_CACHE:          0
DTLB WQ MERGED:          0
DTLB WQ FORWARD:          0
L1D TOTAL     ACCESS:  277110296  HIT:  242288370  MISS:   34821926
L1D LOAD      ACCESS:  125401542  HIT:  107757660  MISS:   17643882
L1D RFO       ACCESS:   41128554  HIT:   38816725  MISS:    2311829
L1D PREFETCH  ACCESS:  110580200  HIT:   95713985  MISS:   14866215
L1D WRITEBACK ACCESS:          0  HIT:          0  MISS:          0
L1D PREFETCH  REQUESTED:  126256750  ISSUED:  124737626  USEFUL:    2700550  USELESS:   12165691
L1D TOTAL MSHR MERGED:    8519494
L1D LOAD MSHR MERGED:    1547490
L1D RFO MSHR MERGED:    3774531
L1D PREFETCH MSHR MERGED:    3197473
L1D WRITEBACK MSHR MERGED:          0
L1D TOTAL ACCESSES:  285717105 HITS:  242375682 MISSES:   43341423
L1D LOAD ACCESSES:  126256785 HITS:  107757695 MISSES:   18499090
L1D RFO ACCESSES:   44902590 HITS:   38816725 MISSES:    6085865
L1D PREFETCH ACCESSES:  114557730 HITS:   95801262 MISSES:   18756468
L1D WRITEBACK ACCESSES:          0 HITS:          0 MISSES:          0
L1D RQ ACCESS:  158420513
L1D RQ TO_CACHE:  126256750
L1D RQ MERGED:   32163728
L1D RQ FORWARD:          0
L1D WQ ACCESS:   47546882
L1D WQ TO_CACHE:   44902590
L1D WQ MERGED:    2644292
L1D WQ FORWARD:      87312
L1I TOTAL     ACCESS:  132801542  HIT:  132801542  MISS:          0
L1I LOAD      ACCESS:  132801542  HIT:  132801542  MISS:          0
L1I RFO       ACCESS:          0  HIT:          0  MISS:          0
L1I PREFETCH  ACCESS:          0  HIT:          0  MISS:          0
L1I WRITEBACK ACCESS:          0  HIT:          0  MISS:          0
L1I PREFETCH  REQUESTED:          0  ISSUED:          0  USEFUL:          0  USELESS:          0
L1I TOTAL MSHR MERGED:          0
L1I LOAD MSHR MERGED:          0
L1I RFO MSHR MERGED:          0
L1I PREFETCH MSHR MERGED:          0
L1I WRITEBACK MSHR MERGED:          0
L1I TOTAL ACCESSES:  132801542 HITS:  132801542 MISSES:          0
L1I LOAD ACCESSES:  132801542 HITS:  132801542 MISSES:          0
L1I RFO ACCESSES:          0 HITS:          0 MISSES:          0
L1I PREFETCH ACCESSES:          0 HITS:          0 MISSES:          0
L1I WRITEBACK ACCESSES:          0 HITS:          0 MISSES:          0
L1I RQ ACCESS:  499999980
L1I RQ TO_CACHE:  132801542
L1I RQ MERGED:  367198438
L1I RQ FORWARD:          0
L1I WQ ACCESS:          0
L1I WQ TO_CACHE:          0
L1I WQ MERGED:          0
L1I WQ FORWARD:          0
L2C TOTAL     ACCESS:   39596691  HIT:   20627611  MISS:   18969080
L2C LOAD      ACCESS:   16951539  HIT:    8567025  MISS:    8384514
L2C RFO       ACCESS:    2311287  HIT:     630857  MISS:    1680430
L2C PREFETCH  ACCESS:   17111437  HIT:    8211051  MISS:    8900386
L2C WRITEBACK ACCESS:    3222428  HIT:    3218678  MISS:       3750
L2C PREFETCH  REQUESTED:    2893310  ISSUED:    2893310  USEFUL:    1306479  USELESS:    7593663
L2C TOTAL MSHR MERGED:     538170
L2C LOAD MSHR MERGED:      92509
L2C RFO MSHR MERGED:          0
L2C PREFETCH MSHR MERGED:     445661
L2C WRITEBACK MSHR MERGED:          0
L2C TOTAL ACCESSES:   40262529 HITS:   20627769 MISSES:   19634760
L2C LOAD ACCESSES:   16951600 HITS:    8567086 MISSES:    8384514
L2C RFO ACCESSES:    2311334 HITS:     630904 MISSES:    1680430
L2C PREFETCH ACCESSES:   17777167 HITS:    8211101 MISSES:    9566066
L2C WRITEBACK ACCESSES:    3222428 HITS:    3218678 MISSES:       3750
L2C RQ ACCESS:   19262934
L2C RQ TO_CACHE:   19262826
L2C RQ MERGED:          0
L2C RQ FORWARD:          0
L2C WQ ACCESS:    3222428
L2C WQ TO_CACHE:    3222428
L2C WQ MERGED:          0
L2C WQ FORWARD:        158
LLC TOTAL     ACCESS:   21203775  HIT:   13638768  MISS:    7565007
LLC LOAD      ACCESS:    8291980  HIT:    5738801  MISS:    2553179
LLC RFO       ACCESS:    1680349  HIT:    1613235  MISS:      67114
LLC PREFETCH  ACCESS:    9055812  HIT:    4173500  MISS:    4882312
LLC WRITEBACK ACCESS:    2175634  HIT:    2113232  MISS:      62402
LLC PREFETCH  REQUESTED:          0  ISSUED:          0  USEFUL:     193360  USELESS:    4690955
LLC TOTAL MSHR MERGED:      54378
LLC LOAD MSHR MERGED:      17342
LLC RFO MSHR MERGED:          0
LLC PREFETCH MSHR MERGED:      37036
LLC WRITEBACK MSHR MERGED:          0
LLC TOTAL ACCESSES:   21258290 HITS:   13638902 MISSES:    7619388
LLC LOAD ACCESSES:    8292005 HITS:    5738826 MISSES:    2553179
LLC RFO ACCESSES:    1680430 HITS:    1613316 MISSES:      67114
LLC PREFETCH ACCESSES:    9110221 HITS:    4173528 MISSES:    4936693
LLC WRITEBACK ACCESSES:    2175634 HITS:    2113232 MISSES:      62402
LLC 0 RQ ACCESS:    9972435
LLC 0 RQ TO_CACHE:    9972329
LLC 0 RQ MERGED:          0
LLC 0 RQ FORWARD:          0
LLC WQ ACCESS:    2175634
LLC WQ TO_CACHE:    2175634
LLC WQ MERGED:          0
LLC WQ FORWARD:        134
Major fault: 0 Minor fault: 56391
CPU 0 L1D next line prefetcher final stats
CPU 0 L2C PC-based stride prefetcher final stats
All Misses: 8870012
All Hits: 15710606
SD Algo Stats - Switches: 0 SRR-Repls: 2680454 BRR-Repls: 0

DRAM Statistics
 CHANNEL 0
 RQ ROW_BUFFER_HIT:    4608063  ROW_BUFFER_MISS:    2853626
 DBUS_CONGESTED:    3519329
 WQ ROW_BUFFER_HIT:       9501  ROW_BUFFER_MISS:     123406  FULL:          0

 AVG_CONGESTED_CYCLE: 12
LOADS RETIRED: 173631671
INSTR RETIRED: 500000000
