
*** ChampSim Multicore Out-of-Order Simulator ***

Warmup Instructions: 100000000
Simulation Instructions: 500000000
Number of CPUs: 1
LLC sets: 2048
LLC ways: 16
Clean RRIP Policies: 2113230221132302 Dirty RRIP Policies: 1103130211031302 PSEL Width: 10 Track Set: 4294967295 PSEL Mask: 1 Demote Mask: 1040100010401000DS Algo: 0Window size: 0
Off-chip DRAM Size: 4096 MB Channels: 1 Width: 64-bit Data Rate: 1600 MT/s

CPU 0 runs /mnt/beegfs/iconst01/spec2017/Xalancbmk.trace.gz
NOT SORTED
TRACE STRING: /mnt/beegfs/iconst01/spec2017/Xalancbmk.trace.gz
SORTED
TRACE STRING: /mnt/beegfs/iconst01/spec2017/Xalancbmk.trace.gz
INITIAL
TRACE STRING: /mnt/beegfs/iconst01/spec2017/Xalancbmk.trace.gz

champsim_seed used: 913

CPU 0 L1D next line prefetcher
CPU 0 L2C IP-based stride prefetcher
Initialize DRRIP state
Assign rand_sets[0]: 454  LLC: 2048
rand_sets[0]: 454
Assign rand_sets[1]: 1662  LLC: 2048
rand_sets[1]: 1662
Assign rand_sets[2]: 1921  LLC: 2048
rand_sets[2]: 1921
Assign rand_sets[3]: 1131  LLC: 2048
rand_sets[3]: 1131
Assign rand_sets[4]: 331  LLC: 2048
rand_sets[4]: 331
Assign rand_sets[5]: 1531  LLC: 2048
rand_sets[5]: 1531
Assign rand_sets[6]: 482  LLC: 2048
rand_sets[6]: 482
Assign rand_sets[7]: 1275  LLC: 2048
rand_sets[7]: 1275
Assign rand_sets[8]: 1876  LLC: 2048
rand_sets[8]: 1876
Assign rand_sets[9]: 2038  LLC: 2048
rand_sets[9]: 2038
Assign rand_sets[10]: 701  LLC: 2048
rand_sets[10]: 701
Assign rand_sets[11]: 479  LLC: 2048
rand_sets[11]: 479
Assign rand_sets[12]: 892  LLC: 2048
rand_sets[12]: 892
Assign rand_sets[13]: 1820  LLC: 2048
rand_sets[13]: 1820
Assign rand_sets[14]: 1505  LLC: 2048
rand_sets[14]: 1505
Assign rand_sets[15]: 1159  LLC: 2048
rand_sets[15]: 1159
Assign rand_sets[16]: 513  LLC: 2048
rand_sets[16]: 513
Assign rand_sets[17]: 703  LLC: 2048
rand_sets[17]: 703
Assign rand_sets[18]: 561  LLC: 2048
rand_sets[18]: 561
Assign rand_sets[19]: 990  LLC: 2048
rand_sets[19]: 990
Assign rand_sets[20]: 342  LLC: 2048
rand_sets[20]: 342
Assign rand_sets[21]: 882  LLC: 2048
rand_sets[21]: 882
Assign rand_sets[22]: 15  LLC: 2048
rand_sets[22]: 15
Assign rand_sets[23]: 71  LLC: 2048
rand_sets[23]: 71
Assign rand_sets[24]: 1127  LLC: 2048
rand_sets[24]: 1127
Assign rand_sets[25]: 1382  LLC: 2048
rand_sets[25]: 1382
Assign rand_sets[26]: 647  LLC: 2048
rand_sets[26]: 647
Assign rand_sets[27]: 857  LLC: 2048
rand_sets[27]: 857
Assign rand_sets[28]: 1450  LLC: 2048
rand_sets[28]: 1450
Assign rand_sets[29]: 1160  LLC: 2048
rand_sets[29]: 1160
Assign rand_sets[30]: 1852  LLC: 2048
rand_sets[30]: 1852
Assign rand_sets[31]: 1881  LLC: 2048
rand_sets[31]: 1881
Assign rand_sets[32]: 1770  LLC: 2048
rand_sets[32]: 1770
Assign rand_sets[33]: 1622  LLC: 2048
rand_sets[33]: 1622
Assign rand_sets[34]: 275  LLC: 2048
rand_sets[34]: 275
Assign rand_sets[35]: 635  LLC: 2048
rand_sets[35]: 635
Assign rand_sets[36]: 466  LLC: 2048
rand_sets[36]: 466
Assign rand_sets[37]: 1413  LLC: 2048
rand_sets[37]: 1413
Assign rand_sets[38]: 417  LLC: 2048
rand_sets[38]: 417
Assign rand_sets[39]: 472  LLC: 2048
rand_sets[39]: 472
Assign rand_sets[40]: 1340  LLC: 2048
rand_sets[40]: 1340
Assign rand_sets[41]: 852  LLC: 2048
rand_sets[41]: 852
Assign rand_sets[42]: 1365  LLC: 2048
rand_sets[42]: 1365
Assign rand_sets[43]: 47  LLC: 2048
rand_sets[43]: 47
Assign rand_sets[44]: 823  LLC: 2048
rand_sets[44]: 823
Assign rand_sets[45]: 686  LLC: 2048
rand_sets[45]: 686
Assign rand_sets[46]: 1637  LLC: 2048
rand_sets[46]: 1637
Assign rand_sets[47]: 1115  LLC: 2048
rand_sets[47]: 1115
Assign rand_sets[48]: 986  LLC: 2048
rand_sets[48]: 986
Assign rand_sets[49]: 258  LLC: 2048
rand_sets[49]: 258
Assign rand_sets[50]: 633  LLC: 2048
rand_sets[50]: 633
Assign rand_sets[51]: 920  LLC: 2048
rand_sets[51]: 920
Assign rand_sets[52]: 204  LLC: 2048
rand_sets[52]: 204
Assign rand_sets[53]: 227  LLC: 2048
rand_sets[53]: 227
Assign rand_sets[54]: 1818  LLC: 2048
rand_sets[54]: 1818
Assign rand_sets[55]: 886  LLC: 2048
rand_sets[55]: 886
Assign rand_sets[56]: 1422  LLC: 2048
rand_sets[56]: 1422
Assign rand_sets[57]: 607  LLC: 2048
rand_sets[57]: 607
Assign rand_sets[58]: 217  LLC: 2048
rand_sets[58]: 217
Assign rand_sets[59]: 1945  LLC: 2048
rand_sets[59]: 1945
Assign rand_sets[60]: 143  LLC: 2048
rand_sets[60]: 143
Assign rand_sets[61]: 1311  LLC: 2048
rand_sets[61]: 1311
Assign rand_sets[62]: 319  LLC: 2048
rand_sets[62]: 319
Assign rand_sets[63]: 1846  LLC: 2048
rand_sets[63]: 1846
 CLEAN-RRIP-POLICY-1: 2-1-1-3-2-3-0-2- CLEAN-RRIP-POLICY-2: 2-1-1-3-2-3-0-2-
 DIRTY-RRIP-POLICY-1: 1-1-0-3-1-3-0-2- DIRTY-RRIP-POLICY-2: 1-1-0-3-1-3-0-2-
 PSEL width: 10
Heartbeat CPU 0 instructions: 10000003 cycles: 4592571 heartbeat IPC: 2.17743 cumulative IPC: 2.17743 (Simulation time: 0 hr 0 min 15 sec) 
Heartbeat CPU 0 instructions: 20000000 cycles: 8984878 heartbeat IPC: 2.27671 cumulative IPC: 2.22596 (Simulation time: 0 hr 0 min 29 sec) 
Heartbeat CPU 0 instructions: 30000000 cycles: 13393929 heartbeat IPC: 2.26806 cumulative IPC: 2.23982 (Simulation time: 0 hr 0 min 43 sec) 
Heartbeat CPU 0 instructions: 40000000 cycles: 18022167 heartbeat IPC: 2.16065 cumulative IPC: 2.21949 (Simulation time: 0 hr 0 min 59 sec) 
Heartbeat CPU 0 instructions: 50000002 cycles: 22438366 heartbeat IPC: 2.26439 cumulative IPC: 2.22833 (Simulation time: 0 hr 1 min 13 sec) 
Heartbeat CPU 0 instructions: 60000000 cycles: 27093895 heartbeat IPC: 2.14798 cumulative IPC: 2.21452 (Simulation time: 0 hr 1 min 29 sec) 
Heartbeat CPU 0 instructions: 70000003 cycles: 31498632 heartbeat IPC: 2.27028 cumulative IPC: 2.22232 (Simulation time: 0 hr 1 min 43 sec) 
Heartbeat CPU 0 instructions: 80000000 cycles: 35919064 heartbeat IPC: 2.26222 cumulative IPC: 2.22723 (Simulation time: 0 hr 1 min 57 sec) 
Heartbeat CPU 0 instructions: 90000002 cycles: 40374278 heartbeat IPC: 2.24456 cumulative IPC: 2.22914 (Simulation time: 0 hr 2 min 12 sec) 
Heartbeat CPU 0 instructions: 100000000 cycles: 44845915 heartbeat IPC: 2.23632 cumulative IPC: 2.22986 (Simulation time: 0 hr 2 min 26 sec) 

Warmup complete CPU 0 instructions: 100000003 cycles: 44845916 (Simulation time: 0 hr 2 min 26 sec) 

Heartbeat CPU 0 instructions: 110000000 cycles: 71853507 heartbeat IPC: 0.370266 cumulative IPC: 0.370266 (Simulation time: 0 hr 2 min 58 sec) 
Heartbeat CPU 0 instructions: 120000000 cycles: 100413959 heartbeat IPC: 0.350135 cumulative IPC: 0.359919 (Simulation time: 0 hr 3 min 31 sec) 
Heartbeat CPU 0 instructions: 130000000 cycles: 123807667 heartbeat IPC: 0.427465 cumulative IPC: 0.379931 (Simulation time: 0 hr 4 min 0 sec) 
Heartbeat CPU 0 instructions: 140000000 cycles: 146423023 heartbeat IPC: 0.442177 cumulative IPC: 0.393789 (Simulation time: 0 hr 4 min 29 sec) 
Heartbeat CPU 0 instructions: 150000000 cycles: 170800941 heartbeat IPC: 0.410207 cumulative IPC: 0.396967 (Simulation time: 0 hr 4 min 59 sec) 
Heartbeat CPU 0 instructions: 160000000 cycles: 195751286 heartbeat IPC: 0.400796 cumulative IPC: 0.3976 (Simulation time: 0 hr 5 min 29 sec) 
Heartbeat CPU 0 instructions: 170000002 cycles: 217112864 heartbeat IPC: 0.46813 cumulative IPC: 0.406346 (Simulation time: 0 hr 5 min 56 sec) 
Heartbeat CPU 0 instructions: 180000000 cycles: 239544076 heartbeat IPC: 0.445807 cumulative IPC: 0.410892 (Simulation time: 0 hr 6 min 25 sec) 
Heartbeat CPU 0 instructions: 190000000 cycles: 258478068 heartbeat IPC: 0.528151 cumulative IPC: 0.421285 (Simulation time: 0 hr 6 min 51 sec) 
Heartbeat CPU 0 instructions: 200000000 cycles: 279411759 heartbeat IPC: 0.477699 cumulative IPC: 0.42632 (Simulation time: 0 hr 7 min 18 sec) 
Heartbeat CPU 0 instructions: 210000001 cycles: 305833151 heartbeat IPC: 0.378481 cumulative IPC: 0.421477 (Simulation time: 0 hr 7 min 50 sec) 
Heartbeat CPU 0 instructions: 220000000 cycles: 331630826 heartbeat IPC: 0.387632 cumulative IPC: 0.418432 (Simulation time: 0 hr 8 min 20 sec) 
Heartbeat CPU 0 instructions: 230000000 cycles: 353931129 heartbeat IPC: 0.448424 cumulative IPC: 0.420596 (Simulation time: 0 hr 8 min 49 sec) 
Heartbeat CPU 0 instructions: 240000000 cycles: 379755612 heartbeat IPC: 0.387229 cumulative IPC: 0.418023 (Simulation time: 0 hr 9 min 20 sec) 
Heartbeat CPU 0 instructions: 250000001 cycles: 404701678 heartbeat IPC: 0.400865 cumulative IPC: 0.416834 (Simulation time: 0 hr 9 min 50 sec) 
Heartbeat CPU 0 instructions: 260000000 cycles: 425591497 heartbeat IPC: 0.478702 cumulative IPC: 0.420228 (Simulation time: 0 hr 10 min 17 sec) 
Heartbeat CPU 0 instructions: 270000000 cycles: 447085085 heartbeat IPC: 0.465255 cumulative IPC: 0.422634 (Simulation time: 0 hr 10 min 45 sec) 
Heartbeat CPU 0 instructions: 280000000 cycles: 475003165 heartbeat IPC: 0.358191 cumulative IPC: 0.418452 (Simulation time: 0 hr 11 min 18 sec) 
Heartbeat CPU 0 instructions: 290000000 cycles: 496087966 heartbeat IPC: 0.474275 cumulative IPC: 0.42106 (Simulation time: 0 hr 11 min 45 sec) 
Heartbeat CPU 0 instructions: 300000000 cycles: 516509670 heartbeat IPC: 0.489675 cumulative IPC: 0.424031 (Simulation time: 0 hr 12 min 12 sec) 
Heartbeat CPU 0 instructions: 310000000 cycles: 535640887 heartbeat IPC: 0.522706 cumulative IPC: 0.427877 (Simulation time: 0 hr 12 min 37 sec) 
Heartbeat CPU 0 instructions: 320000000 cycles: 565143750 heartbeat IPC: 0.33895 cumulative IPC: 0.422835 (Simulation time: 0 hr 13 min 11 sec) 
Heartbeat CPU 0 instructions: 330000001 cycles: 584550405 heartbeat IPC: 0.515287 cumulative IPC: 0.426159 (Simulation time: 0 hr 13 min 36 sec) 
Heartbeat CPU 0 instructions: 340000000 cycles: 603801261 heartbeat IPC: 0.519457 cumulative IPC: 0.429372 (Simulation time: 0 hr 14 min 2 sec) 
Heartbeat CPU 0 instructions: 350000001 cycles: 629050517 heartbeat IPC: 0.396051 cumulative IPC: 0.427932 (Simulation time: 0 hr 14 min 32 sec) 
Heartbeat CPU 0 instructions: 360000000 cycles: 651354410 heartbeat IPC: 0.448352 cumulative IPC: 0.428683 (Simulation time: 0 hr 15 min 0 sec) 
Heartbeat CPU 0 instructions: 370000001 cycles: 676474078 heartbeat IPC: 0.398094 cumulative IPC: 0.427467 (Simulation time: 0 hr 15 min 30 sec) 
Heartbeat CPU 0 instructions: 380000000 cycles: 699637665 heartbeat IPC: 0.431712 cumulative IPC: 0.427617 (Simulation time: 0 hr 15 min 58 sec) 
Heartbeat CPU 0 instructions: 390000000 cycles: 718395113 heartbeat IPC: 0.533122 cumulative IPC: 0.430555 (Simulation time: 0 hr 16 min 24 sec) 
Heartbeat CPU 0 instructions: 400000000 cycles: 738174972 heartbeat IPC: 0.505565 cumulative IPC: 0.432695 (Simulation time: 0 hr 16 min 49 sec) 
Heartbeat CPU 0 instructions: 410000001 cycles: 764477230 heartbeat IPC: 0.380196 cumulative IPC: 0.430776 (Simulation time: 0 hr 17 min 20 sec) 
Heartbeat CPU 0 instructions: 420000000 cycles: 789114493 heartbeat IPC: 0.405889 cumulative IPC: 0.429952 (Simulation time: 0 hr 17 min 49 sec) 
Heartbeat CPU 0 instructions: 430000002 cycles: 810261028 heartbeat IPC: 0.472891 cumulative IPC: 0.431139 (Simulation time: 0 hr 18 min 15 sec) 
Heartbeat CPU 0 instructions: 440000000 cycles: 830398008 heartbeat IPC: 0.496599 cumulative IPC: 0.432817 (Simulation time: 0 hr 18 min 41 sec) 
Heartbeat CPU 0 instructions: 450000002 cycles: 857245882 heartbeat IPC: 0.372469 cumulative IPC: 0.430822 (Simulation time: 0 hr 19 min 12 sec) 
Heartbeat CPU 0 instructions: 460000000 cycles: 883319836 heartbeat IPC: 0.383524 cumulative IPC: 0.429351 (Simulation time: 0 hr 19 min 42 sec) 
Heartbeat CPU 0 instructions: 470000002 cycles: 909267852 heartbeat IPC: 0.385386 cumulative IPC: 0.428032 (Simulation time: 0 hr 20 min 12 sec) 
Heartbeat CPU 0 instructions: 480000000 cycles: 933546341 heartbeat IPC: 0.411887 cumulative IPC: 0.427591 (Simulation time: 0 hr 20 min 40 sec) 
Heartbeat CPU 0 instructions: 490000000 cycles: 954371963 heartbeat IPC: 0.480178 cumulative IPC: 0.428795 (Simulation time: 0 hr 21 min 7 sec) 
Heartbeat CPU 0 instructions: 500000000 cycles: 979226734 heartbeat IPC: 0.402337 cumulative IPC: 0.428091 (Simulation time: 0 hr 21 min 36 sec) 
Heartbeat CPU 0 instructions: 510000000 cycles: 1004288033 heartbeat IPC: 0.399022 cumulative IPC: 0.427332 (Simulation time: 0 hr 22 min 5 sec) 
Heartbeat CPU 0 instructions: 520000000 cycles: 1025286388 heartbeat IPC: 0.476228 cumulative IPC: 0.428379 (Simulation time: 0 hr 22 min 32 sec) 
Heartbeat CPU 0 instructions: 530000003 cycles: 1051005713 heartbeat IPC: 0.388813 cumulative IPC: 0.427368 (Simulation time: 0 hr 23 min 1 sec) 
Heartbeat CPU 0 instructions: 540000000 cycles: 1073980439 heartbeat IPC: 0.435261 cumulative IPC: 0.427544 (Simulation time: 0 hr 23 min 29 sec) 
Heartbeat CPU 0 instructions: 550000000 cycles: 1099558113 heartbeat IPC: 0.390966 cumulative IPC: 0.426657 (Simulation time: 0 hr 23 min 59 sec) 
Heartbeat CPU 0 instructions: 560000000 cycles: 1122643880 heartbeat IPC: 0.433167 cumulative IPC: 0.426796 (Simulation time: 0 hr 24 min 27 sec) 
Heartbeat CPU 0 instructions: 570000002 cycles: 1146089634 heartbeat IPC: 0.426517 cumulative IPC: 0.42679 (Simulation time: 0 hr 24 min 55 sec) 
Heartbeat CPU 0 instructions: 580000000 cycles: 1166992087 heartbeat IPC: 0.478413 cumulative IPC: 0.427752 (Simulation time: 0 hr 25 min 21 sec) 
Heartbeat CPU 0 instructions: 590000001 cycles: 1190936233 heartbeat IPC: 0.417639 cumulative IPC: 0.42754 (Simulation time: 0 hr 25 min 50 sec) 
Heartbeat CPU 0 instructions: 600000000 cycles: 1210066770 heartbeat IPC: 0.522724 cumulative IPC: 0.429103 (Simulation time: 0 hr 26 min 15 sec) 
Finished CPU 0 instructions: 500000000 cycles: 1165220875 cumulative IPC: 0.429103 (Simulation time: 0 hr 26 min 15 sec) 

CPU 0 Branch Prediction Accuracy: 99.5434% MPKI: 1.33026
Number of Branches: 145676990 Number of Mispredictions: 665128
Number of LOAD Instructions: 188863207
Number of LOAD Instructions (ROI): 188863207
Number of STORE Instructions: 7332002
Number of STORE Instructions (ROI): 7332002
Total Destination Memory Operands: 10029285
Total Destination Memory Operands (ROI): 10029285
Total Source Memory Operands: 188863207
Total Source Memory Operands (ROI): 188863207
Number of DEPENDED LOADS: 289735
Number of DEPENDED LOADS (ROI): 289735
Number of SQ_ADDED: 10029285
Number of SQ_ADDED (ROI): 10029285
Number of LQ_ADDED: 200481524
Number of LQ_ADDED (ROI): 200481524
Number of Instructions read from trace: 600000010

ChampSim completed all CPUs

Region of Interest Statistics

CPU 0 cumulative IPC: 0.429103 instructions: 500000000 cycles: 1165220875
ITLB TOTAL     ACCESS:  145828339  HIT:  145788812  MISS:      39527
ITLB LOAD      ACCESS:  145828339  HIT:  145788812  MISS:      39527
ITLB RFO       ACCESS:          0  HIT:          0  MISS:          0
ITLB PREFETCH  ACCESS:          0  HIT:          0  MISS:          0
ITLB WRITEBACK ACCESS:          0  HIT:          0  MISS:          0
ITLB PREFETCH  REQUESTED:          0  ISSUED:          0  USEFUL:          0  USELESS:          0
ITLB TOTAL MSHR MERGED:      57361
ITLB LOAD MSHR MERGED:      57361
ITLB RFO MSHR MERGED:          0
ITLB PREFETCH MSHR MERGED:          0
ITLB WRITEBACK MSHR MERGED:          0
ITLB TOTAL ACCESSES:  145885700 HITS:  145788812 MISSES:      96888
ITLB LOAD ACCESSES:  145885700 HITS:  145788812 MISSES:      96888
ITLB RFO ACCESSES:          0 HITS:          0 MISSES:          0
ITLB PREFETCH ACCESSES:          0 HITS:          0 MISSES:          0
ITLB WRITEBACK ACCESSES:          0 HITS:          0 MISSES:          0
ITLB RQ ACCESS:  499999754
ITLB RQ TO_CACHE:  145885700
ITLB RQ MERGED:  354114054
ITLB RQ FORWARD:          0
ITLB WQ ACCESS:          0
ITLB WQ TO_CACHE:          0
ITLB WQ MERGED:          0
ITLB WQ FORWARD:          0
DTLB TOTAL     ACCESS:  135201467  HIT:  134033104  MISS:    1168363
DTLB LOAD      ACCESS:  127160636  HIT:  126001382  MISS:    1159254
DTLB RFO       ACCESS:    8040831  HIT:    8031722  MISS:       9109
DTLB PREFETCH  ACCESS:          0  HIT:          0  MISS:          0
DTLB WRITEBACK ACCESS:          0  HIT:          0  MISS:          0
DTLB PREFETCH  REQUESTED:          0  ISSUED:          0  USEFUL:          0  USELESS:          0
DTLB TOTAL MSHR MERGED:     579056
DTLB LOAD MSHR MERGED:     574678
DTLB RFO MSHR MERGED:       4378
DTLB PREFETCH MSHR MERGED:          0
DTLB WRITEBACK MSHR MERGED:          0
DTLB TOTAL ACCESSES:  135780523 HITS:  134033104 MISSES:    1747419
DTLB LOAD ACCESSES:  127735314 HITS:  126001382 MISSES:    1733932
DTLB RFO ACCESSES:    8045209 HITS:    8031722 MISSES:      13487
DTLB PREFETCH ACCESSES:          0 HITS:          0 MISSES:          0
DTLB WRITEBACK ACCESSES:          0 HITS:          0 MISSES:          0
DTLB RQ ACCESS:  165764608
DTLB RQ TO_CACHE:  135780523
DTLB RQ MERGED:   29984085
DTLB RQ FORWARD:          0
DTLB WQ ACCESS:          0
DTLB WQ TO_CACHE:          0
DTLB WQ MERGED:          0
DTLB WQ FORWARD:          0
L1D TOTAL     ACCESS:  157092367  HIT:  139776684  MISS:   17315683
L1D LOAD      ACCESS:   90005327  HIT:   78869078  MISS:   11136249
L1D RFO       ACCESS:    8502159  HIT:    8415064  MISS:      87095
L1D PREFETCH  ACCESS:   58584881  HIT:   52492542  MISS:    6092339
L1D WRITEBACK ACCESS:          0  HIT:          0  MISS:          0
L1D PREFETCH  REQUESTED:   93722672  ISSUED:   92854988  USEFUL:    2010944  USELESS:    4081468
L1D TOTAL MSHR MERGED:   14975315
L1D LOAD MSHR MERGED:    7109701
L1D RFO MSHR MERGED:     122174
L1D PREFETCH MSHR MERGED:    7743440
L1D WRITEBACK MSHR MERGED:          0
L1D TOTAL ACCESSES:  172067834 HITS:  139776836 MISSES:   32290998
L1D LOAD ACCESSES:   93722676 HITS:   78869082 MISSES:   14853594
L1D RFO ACCESSES:    8622569 HITS:    8415064 MISSES:     207505
L1D PREFETCH ACCESSES:   69722589 HITS:   52492690 MISSES:   17229899
L1D WRITEBACK ACCESSES:          0 HITS:          0 MISSES:          0
L1D RQ ACCESS:  157125402
L1D RQ TO_CACHE:   93722672
L1D RQ MERGED:   63402726
L1D RQ FORWARD:          0
L1D WQ ACCESS:    8639208
L1D WQ TO_CACHE:    8622569
L1D WQ MERGED:      16639
L1D WQ FORWARD:        152
L1I TOTAL     ACCESS:  178809198  HIT:  178145540  MISS:     663658
L1I LOAD      ACCESS:  178809198  HIT:  178145540  MISS:     663658
L1I RFO       ACCESS:          0  HIT:          0  MISS:          0
L1I PREFETCH  ACCESS:          0  HIT:          0  MISS:          0
L1I WRITEBACK ACCESS:          0  HIT:          0  MISS:          0
L1I PREFETCH  REQUESTED:          0  ISSUED:          0  USEFUL:          0  USELESS:          0
L1I TOTAL MSHR MERGED:     596585
L1I LOAD MSHR MERGED:     596585
L1I RFO MSHR MERGED:          0
L1I PREFETCH MSHR MERGED:          0
L1I WRITEBACK MSHR MERGED:          0
L1I TOTAL ACCESSES:  179405783 HITS:  178145540 MISSES:    1260243
L1I LOAD ACCESSES:  179405783 HITS:  178145540 MISSES:    1260243
L1I RFO ACCESSES:          0 HITS:          0 MISSES:          0
L1I PREFETCH ACCESSES:          0 HITS:          0 MISSES:          0
L1I WRITEBACK ACCESSES:          0 HITS:          0 MISSES:          0
L1I RQ ACCESS:  499999757
L1I RQ TO_CACHE:  179405783
L1I RQ MERGED:  320593974
L1I RQ FORWARD:          0
L1I WQ ACCESS:          0
L1I WQ TO_CACHE:          0
L1I WQ MERGED:          0
L1I WQ FORWARD:          0
L2C TOTAL     ACCESS:   19277919  HIT:    2058037  MISS:   17219882
L2C LOAD      ACCESS:    8407445  HIT:     951465  MISS:    7455980
L2C RFO       ACCESS:      85308  HIT:      53741  MISS:      31567
L2C PREFETCH  ACCESS:   10500135  HIT:     770611  MISS:    9729524
L2C WRITEBACK ACCESS:     285031  HIT:     282220  MISS:       2811
L2C PREFETCH  REQUESTED:    1018051  ISSUED:    1018051  USEFUL:     275067  USELESS:    9453549
L2C TOTAL MSHR MERGED:        979
L2C LOAD MSHR MERGED:        212
L2C RFO MSHR MERGED:          1
L2C PREFETCH MSHR MERGED:        766
L2C WRITEBACK MSHR MERGED:          0
L2C TOTAL ACCESSES:   19281172 HITS:    2058231 MISSES:   17222941
L2C LOAD ACCESSES:    8407551 HITS:     951571 MISSES:    7455980
L2C RFO ACCESSES:      85331 HITS:      53764 MISSES:      31567
L2C PREFETCH ACCESSES:   10503259 HITS:     770676 MISSES:    9732583
L2C WRITEBACK ACCESSES:     285031 HITS:     282220 MISSES:       2811
L2C RQ ACCESS:    8492882
L2C RQ TO_CACHE:    8492753
L2C RQ MERGED:          0
L2C RQ FORWARD:          0
L2C WQ ACCESS:     285031
L2C WQ TO_CACHE:     285031
L2C WQ MERGED:          0
L2C WQ FORWARD:        194
LLC TOTAL     ACCESS:   17325203  HIT:    4961811  MISS:   12363392
LLC LOAD      ACCESS:    7455768  HIT:    3912857  MISS:    3542911
LLC RFO       ACCESS:      31566  HIT:      22032  MISS:       9534
LLC PREFETCH  ACCESS:    9731812  HIT:     934084  MISS:    8797728
LLC WRITEBACK ACCESS:     106057  HIT:      92838  MISS:      13219
LLC PREFETCH  REQUESTED:          0  ISSUED:          0  USEFUL:       1919  USELESS:    8795080
LLC TOTAL MSHR MERGED:          5
LLC LOAD MSHR MERGED:          0
LLC RFO MSHR MERGED:          0
LLC PREFETCH MSHR MERGED:          5
LLC WRITEBACK MSHR MERGED:          0
LLC TOTAL ACCESSES:   17325208 HITS:    4961811 MISSES:   12363397
LLC LOAD ACCESSES:    7455768 HITS:    3912857 MISSES:    3542911
LLC RFO ACCESSES:      31566 HITS:      22032 MISSES:       9534
LLC PREFETCH ACCESSES:    9731817 HITS:     934084 MISSES:    8797733
LLC WRITEBACK ACCESSES:     106057 HITS:      92838 MISSES:      13219
LLC 0 RQ ACCESS:    7487334
LLC 0 RQ TO_CACHE:    7487334
LLC 0 RQ MERGED:          0
LLC 0 RQ FORWARD:          0
LLC WQ ACCESS:     106057
LLC WQ TO_CACHE:     106057
LLC WQ MERGED:          0
LLC WQ FORWARD:          0
Major fault: 0 Minor fault: 6432
CPU 0 L1D next line prefetcher final stats
CPU 0 L2C PC-based stride prefetcher final stats
All Misses: 14593749
All Hits: 5951100
SD Algo Stats - Switches: 0 SRR-Repls: 3788539 BRR-Repls: 0

DRAM Statistics
 CHANNEL 0
 RQ ROW_BUFFER_HIT:    9348748  ROW_BUFFER_MISS:    2998305
 DBUS_CONGESTED:    5781337
 WQ ROW_BUFFER_HIT:       1049  ROW_BUFFER_MISS:      23377  FULL:          0

 AVG_CONGESTED_CYCLE: 12
LOADS RETIRED: 157382665
INSTR RETIRED: 500000000
