
*** ChampSim Multicore Out-of-Order Simulator ***

Warmup Instructions: 100000000
Simulation Instructions: 500000000
Number of CPUs: 1
LLC sets: 2048
LLC ways: 16
Clean RRIP Policies: 120121001201210 Dirty RRIP Policies: 1110021011100210 PSEL Width: 10 Track Set: 4294967295 PSEL Mask: 1 Demote Mask: 101040101010401DS Algo: 0Window size: 0
Off-chip DRAM Size: 4096 MB Channels: 1 Width: 64-bit Data Rate: 1600 MT/s

CPU 0 runs /mnt/beegfs/iconst01/spec2017/Mcf.trace.gz
NOT SORTED
TRACE STRING: /mnt/beegfs/iconst01/spec2017/Mcf.trace.gz
SORTED
TRACE STRING: /mnt/beegfs/iconst01/spec2017/Mcf.trace.gz
INITIAL
TRACE STRING: /mnt/beegfs/iconst01/spec2017/Mcf.trace.gz

champsim_seed used: 278

CPU 0 L1D next line prefetcher
CPU 0 L2C IP-based stride prefetcher
Initialize DRRIP state
Assign rand_sets[0]: 454  LLC: 2048
rand_sets[0]: 454
Assign rand_sets[1]: 1662  LLC: 2048
rand_sets[1]: 1662
Assign rand_sets[2]: 1921  LLC: 2048
rand_sets[2]: 1921
Assign rand_sets[3]: 1131  LLC: 2048
rand_sets[3]: 1131
Assign rand_sets[4]: 331  LLC: 2048
rand_sets[4]: 331
Assign rand_sets[5]: 1531  LLC: 2048
rand_sets[5]: 1531
Assign rand_sets[6]: 482  LLC: 2048
rand_sets[6]: 482
Assign rand_sets[7]: 1275  LLC: 2048
rand_sets[7]: 1275
Assign rand_sets[8]: 1876  LLC: 2048
rand_sets[8]: 1876
Assign rand_sets[9]: 2038  LLC: 2048
rand_sets[9]: 2038
Assign rand_sets[10]: 701  LLC: 2048
rand_sets[10]: 701
Assign rand_sets[11]: 479  LLC: 2048
rand_sets[11]: 479
Assign rand_sets[12]: 892  LLC: 2048
rand_sets[12]: 892
Assign rand_sets[13]: 1820  LLC: 2048
rand_sets[13]: 1820
Assign rand_sets[14]: 1505  LLC: 2048
rand_sets[14]: 1505
Assign rand_sets[15]: 1159  LLC: 2048
rand_sets[15]: 1159
Assign rand_sets[16]: 513  LLC: 2048
rand_sets[16]: 513
Assign rand_sets[17]: 703  LLC: 2048
rand_sets[17]: 703
Assign rand_sets[18]: 561  LLC: 2048
rand_sets[18]: 561
Assign rand_sets[19]: 990  LLC: 2048
rand_sets[19]: 990
Assign rand_sets[20]: 342  LLC: 2048
rand_sets[20]: 342
Assign rand_sets[21]: 882  LLC: 2048
rand_sets[21]: 882
Assign rand_sets[22]: 15  LLC: 2048
rand_sets[22]: 15
Assign rand_sets[23]: 71  LLC: 2048
rand_sets[23]: 71
Assign rand_sets[24]: 1127  LLC: 2048
rand_sets[24]: 1127
Assign rand_sets[25]: 1382  LLC: 2048
rand_sets[25]: 1382
Assign rand_sets[26]: 647  LLC: 2048
rand_sets[26]: 647
Assign rand_sets[27]: 857  LLC: 2048
rand_sets[27]: 857
Assign rand_sets[28]: 1450  LLC: 2048
rand_sets[28]: 1450
Assign rand_sets[29]: 1160  LLC: 2048
rand_sets[29]: 1160
Assign rand_sets[30]: 1852  LLC: 2048
rand_sets[30]: 1852
Assign rand_sets[31]: 1881  LLC: 2048
rand_sets[31]: 1881
Assign rand_sets[32]: 1770  LLC: 2048
rand_sets[32]: 1770
Assign rand_sets[33]: 1622  LLC: 2048
rand_sets[33]: 1622
Assign rand_sets[34]: 275  LLC: 2048
rand_sets[34]: 275
Assign rand_sets[35]: 635  LLC: 2048
rand_sets[35]: 635
Assign rand_sets[36]: 466  LLC: 2048
rand_sets[36]: 466
Assign rand_sets[37]: 1413  LLC: 2048
rand_sets[37]: 1413
Assign rand_sets[38]: 417  LLC: 2048
rand_sets[38]: 417
Assign rand_sets[39]: 472  LLC: 2048
rand_sets[39]: 472
Assign rand_sets[40]: 1340  LLC: 2048
rand_sets[40]: 1340
Assign rand_sets[41]: 852  LLC: 2048
rand_sets[41]: 852
Assign rand_sets[42]: 1365  LLC: 2048
rand_sets[42]: 1365
Assign rand_sets[43]: 47  LLC: 2048
rand_sets[43]: 47
Assign rand_sets[44]: 823  LLC: 2048
rand_sets[44]: 823
Assign rand_sets[45]: 686  LLC: 2048
rand_sets[45]: 686
Assign rand_sets[46]: 1637  LLC: 2048
rand_sets[46]: 1637
Assign rand_sets[47]: 1115  LLC: 2048
rand_sets[47]: 1115
Assign rand_sets[48]: 986  LLC: 2048
rand_sets[48]: 986
Assign rand_sets[49]: 258  LLC: 2048
rand_sets[49]: 258
Assign rand_sets[50]: 633  LLC: 2048
rand_sets[50]: 633
Assign rand_sets[51]: 920  LLC: 2048
rand_sets[51]: 920
Assign rand_sets[52]: 204  LLC: 2048
rand_sets[52]: 204
Assign rand_sets[53]: 227  LLC: 2048
rand_sets[53]: 227
Assign rand_sets[54]: 1818  LLC: 2048
rand_sets[54]: 1818
Assign rand_sets[55]: 886  LLC: 2048
rand_sets[55]: 886
Assign rand_sets[56]: 1422  LLC: 2048
rand_sets[56]: 1422
Assign rand_sets[57]: 607  LLC: 2048
rand_sets[57]: 607
Assign rand_sets[58]: 217  LLC: 2048
rand_sets[58]: 217
Assign rand_sets[59]: 1945  LLC: 2048
rand_sets[59]: 1945
Assign rand_sets[60]: 143  LLC: 2048
rand_sets[60]: 143
Assign rand_sets[61]: 1311  LLC: 2048
rand_sets[61]: 1311
Assign rand_sets[62]: 319  LLC: 2048
rand_sets[62]: 319
Assign rand_sets[63]: 1846  LLC: 2048
rand_sets[63]: 1846
 CLEAN-RRIP-POLICY-1: 0-1-2-0-1-2-1-0- CLEAN-RRIP-POLICY-2: 0-1-2-0-1-2-1-0-
 DIRTY-RRIP-POLICY-1: 1-1-1-0-0-2-1-0- DIRTY-RRIP-POLICY-2: 1-1-1-0-0-2-1-0-
 PSEL width: 10
Heartbeat CPU 0 instructions: 10000002 cycles: 6249048 heartbeat IPC: 1.60024 cumulative IPC: 1.60024 (Simulation time: 0 hr 0 min 12 sec) 
Heartbeat CPU 0 instructions: 20000000 cycles: 12470864 heartbeat IPC: 1.60725 cumulative IPC: 1.60374 (Simulation time: 0 hr 0 min 25 sec) 
Heartbeat CPU 0 instructions: 30000000 cycles: 18682991 heartbeat IPC: 1.60975 cumulative IPC: 1.60574 (Simulation time: 0 hr 0 min 37 sec) 
Heartbeat CPU 0 instructions: 40000000 cycles: 24894882 heartbeat IPC: 1.60982 cumulative IPC: 1.60676 (Simulation time: 0 hr 0 min 49 sec) 
Heartbeat CPU 0 instructions: 50000003 cycles: 31108806 heartbeat IPC: 1.60929 cumulative IPC: 1.60726 (Simulation time: 0 hr 1 min 2 sec) 
Heartbeat CPU 0 instructions: 60000000 cycles: 37306025 heartbeat IPC: 1.61363 cumulative IPC: 1.60832 (Simulation time: 0 hr 1 min 14 sec) 
Heartbeat CPU 0 instructions: 70000003 cycles: 43525969 heartbeat IPC: 1.60773 cumulative IPC: 1.60824 (Simulation time: 0 hr 1 min 26 sec) 
Heartbeat CPU 0 instructions: 80000000 cycles: 49757775 heartbeat IPC: 1.60467 cumulative IPC: 1.60779 (Simulation time: 0 hr 1 min 39 sec) 
Heartbeat CPU 0 instructions: 90000000 cycles: 55988099 heartbeat IPC: 1.60505 cumulative IPC: 1.60748 (Simulation time: 0 hr 1 min 51 sec) 
Heartbeat CPU 0 instructions: 100000000 cycles: 62208388 heartbeat IPC: 1.60764 cumulative IPC: 1.6075 (Simulation time: 0 hr 2 min 4 sec) 

Warmup complete CPU 0 instructions: 100000001 cycles: 62208389 (Simulation time: 0 hr 2 min 4 sec) 

Heartbeat CPU 0 instructions: 110000000 cycles: 87068336 heartbeat IPC: 0.402253 cumulative IPC: 0.402253 (Simulation time: 0 hr 2 min 27 sec) 
Heartbeat CPU 0 instructions: 120000000 cycles: 111952457 heartbeat IPC: 0.401863 cumulative IPC: 0.402058 (Simulation time: 0 hr 2 min 50 sec) 
Heartbeat CPU 0 instructions: 130000000 cycles: 136969950 heartbeat IPC: 0.39972 cumulative IPC: 0.401276 (Simulation time: 0 hr 3 min 14 sec) 
Heartbeat CPU 0 instructions: 140000000 cycles: 161948510 heartbeat IPC: 0.400343 cumulative IPC: 0.401042 (Simulation time: 0 hr 3 min 37 sec) 
Heartbeat CPU 0 instructions: 150000003 cycles: 186826096 heartbeat IPC: 0.401968 cumulative IPC: 0.401227 (Simulation time: 0 hr 4 min 1 sec) 
Heartbeat CPU 0 instructions: 160000000 cycles: 212080665 heartbeat IPC: 0.395968 cumulative IPC: 0.400341 (Simulation time: 0 hr 4 min 24 sec) 
Heartbeat CPU 0 instructions: 170000001 cycles: 237204712 heartbeat IPC: 0.398025 cumulative IPC: 0.400008 (Simulation time: 0 hr 4 min 48 sec) 
Heartbeat CPU 0 instructions: 180000000 cycles: 262311018 heartbeat IPC: 0.398306 cumulative IPC: 0.399795 (Simulation time: 0 hr 5 min 12 sec) 
Heartbeat CPU 0 instructions: 190000003 cycles: 287413712 heartbeat IPC: 0.398364 cumulative IPC: 0.399635 (Simulation time: 0 hr 5 min 36 sec) 
Heartbeat CPU 0 instructions: 200000000 cycles: 312576532 heartbeat IPC: 0.397412 cumulative IPC: 0.399412 (Simulation time: 0 hr 5 min 59 sec) 
Heartbeat CPU 0 instructions: 210000003 cycles: 337740933 heartbeat IPC: 0.397387 cumulative IPC: 0.399227 (Simulation time: 0 hr 6 min 23 sec) 
Heartbeat CPU 0 instructions: 220000000 cycles: 363243291 heartbeat IPC: 0.39212 cumulative IPC: 0.398625 (Simulation time: 0 hr 6 min 47 sec) 
Heartbeat CPU 0 instructions: 230000002 cycles: 388283770 heartbeat IPC: 0.399353 cumulative IPC: 0.398681 (Simulation time: 0 hr 7 min 10 sec) 
Heartbeat CPU 0 instructions: 240000000 cycles: 413733571 heartbeat IPC: 0.39293 cumulative IPC: 0.398264 (Simulation time: 0 hr 7 min 34 sec) 
Heartbeat CPU 0 instructions: 250000000 cycles: 438962755 heartbeat IPC: 0.396366 cumulative IPC: 0.398137 (Simulation time: 0 hr 7 min 57 sec) 
Heartbeat CPU 0 instructions: 260000000 cycles: 464238220 heartbeat IPC: 0.395641 cumulative IPC: 0.39798 (Simulation time: 0 hr 8 min 21 sec) 
Heartbeat CPU 0 instructions: 270000001 cycles: 489578504 heartbeat IPC: 0.394629 cumulative IPC: 0.397782 (Simulation time: 0 hr 8 min 44 sec) 
Heartbeat CPU 0 instructions: 280000000 cycles: 514870386 heartbeat IPC: 0.395384 cumulative IPC: 0.397648 (Simulation time: 0 hr 9 min 8 sec) 
Heartbeat CPU 0 instructions: 290000001 cycles: 540222363 heartbeat IPC: 0.394447 cumulative IPC: 0.397478 (Simulation time: 0 hr 9 min 31 sec) 
Heartbeat CPU 0 instructions: 300000000 cycles: 565818575 heartbeat IPC: 0.390683 cumulative IPC: 0.397133 (Simulation time: 0 hr 9 min 55 sec) 
Heartbeat CPU 0 instructions: 310000003 cycles: 591024461 heartbeat IPC: 0.396733 cumulative IPC: 0.397114 (Simulation time: 0 hr 10 min 18 sec) 
Heartbeat CPU 0 instructions: 320000000 cycles: 616638978 heartbeat IPC: 0.390404 cumulative IPC: 0.396803 (Simulation time: 0 hr 10 min 42 sec) 
Heartbeat CPU 0 instructions: 330000003 cycles: 641919432 heartbeat IPC: 0.395563 cumulative IPC: 0.396749 (Simulation time: 0 hr 11 min 6 sec) 
Heartbeat CPU 0 instructions: 340000000 cycles: 667568226 heartbeat IPC: 0.389882 cumulative IPC: 0.396458 (Simulation time: 0 hr 11 min 29 sec) 
Heartbeat CPU 0 instructions: 350000002 cycles: 693202004 heartbeat IPC: 0.39011 cumulative IPC: 0.396201 (Simulation time: 0 hr 11 min 53 sec) 
Heartbeat CPU 0 instructions: 360000000 cycles: 719044819 heartbeat IPC: 0.386955 cumulative IPC: 0.395837 (Simulation time: 0 hr 12 min 16 sec) 
Heartbeat CPU 0 instructions: 370000000 cycles: 744668085 heartbeat IPC: 0.39027 cumulative IPC: 0.395628 (Simulation time: 0 hr 12 min 40 sec) 
Heartbeat CPU 0 instructions: 380000000 cycles: 770115420 heartbeat IPC: 0.392968 cumulative IPC: 0.395532 (Simulation time: 0 hr 13 min 3 sec) 
Heartbeat CPU 0 instructions: 390000002 cycles: 795583945 heartbeat IPC: 0.392642 cumulative IPC: 0.395432 (Simulation time: 0 hr 13 min 26 sec) 
Heartbeat CPU 0 instructions: 400000000 cycles: 821293755 heartbeat IPC: 0.388957 cumulative IPC: 0.395212 (Simulation time: 0 hr 13 min 50 sec) 
Heartbeat CPU 0 instructions: 410000002 cycles: 846846983 heartbeat IPC: 0.39134 cumulative IPC: 0.395086 (Simulation time: 0 hr 14 min 13 sec) 
Heartbeat CPU 0 instructions: 420000000 cycles: 872284026 heartbeat IPC: 0.393127 cumulative IPC: 0.395025 (Simulation time: 0 hr 14 min 36 sec) 
Heartbeat CPU 0 instructions: 430000000 cycles: 898051872 heartbeat IPC: 0.388081 cumulative IPC: 0.394811 (Simulation time: 0 hr 15 min 0 sec) 
Heartbeat CPU 0 instructions: 440000000 cycles: 923432681 heartbeat IPC: 0.393998 cumulative IPC: 0.394787 (Simulation time: 0 hr 15 min 24 sec) 
Heartbeat CPU 0 instructions: 450000000 cycles: 949704001 heartbeat IPC: 0.380643 cumulative IPC: 0.394368 (Simulation time: 0 hr 15 min 48 sec) 
Heartbeat CPU 0 instructions: 460000000 cycles: 975893424 heartbeat IPC: 0.381834 cumulative IPC: 0.394009 (Simulation time: 0 hr 16 min 13 sec) 
Heartbeat CPU 0 instructions: 470000001 cycles: 1001844311 heartbeat IPC: 0.385343 cumulative IPC: 0.39377 (Simulation time: 0 hr 16 min 37 sec) 
Heartbeat CPU 0 instructions: 480000000 cycles: 1028044285 heartbeat IPC: 0.38168 cumulative IPC: 0.393442 (Simulation time: 0 hr 17 min 2 sec) 
Heartbeat CPU 0 instructions: 490000000 cycles: 1054309916 heartbeat IPC: 0.380726 cumulative IPC: 0.393105 (Simulation time: 0 hr 17 min 27 sec) 
Heartbeat CPU 0 instructions: 500000000 cycles: 1080914023 heartbeat IPC: 0.375882 cumulative IPC: 0.392655 (Simulation time: 0 hr 17 min 51 sec) 
Heartbeat CPU 0 instructions: 510000003 cycles: 1107430501 heartbeat IPC: 0.377124 cumulative IPC: 0.392261 (Simulation time: 0 hr 18 min 16 sec) 
Heartbeat CPU 0 instructions: 520000000 cycles: 1134150938 heartbeat IPC: 0.374245 cumulative IPC: 0.391812 (Simulation time: 0 hr 18 min 40 sec) 
Heartbeat CPU 0 instructions: 530000001 cycles: 1160912173 heartbeat IPC: 0.373675 cumulative IPC: 0.39137 (Simulation time: 0 hr 19 min 5 sec) 
Heartbeat CPU 0 instructions: 540000000 cycles: 1187598447 heartbeat IPC: 0.374724 cumulative IPC: 0.390976 (Simulation time: 0 hr 19 min 30 sec) 
Heartbeat CPU 0 instructions: 550000000 cycles: 1214227607 heartbeat IPC: 0.375528 cumulative IPC: 0.390618 (Simulation time: 0 hr 19 min 54 sec) 
Heartbeat CPU 0 instructions: 560000000 cycles: 1241282246 heartbeat IPC: 0.369622 cumulative IPC: 0.390137 (Simulation time: 0 hr 20 min 19 sec) 
Heartbeat CPU 0 instructions: 570000001 cycles: 1268275756 heartbeat IPC: 0.370459 cumulative IPC: 0.389696 (Simulation time: 0 hr 20 min 44 sec) 
Heartbeat CPU 0 instructions: 580000000 cycles: 1295286594 heartbeat IPC: 0.370222 cumulative IPC: 0.38927 (Simulation time: 0 hr 21 min 8 sec) 
Heartbeat CPU 0 instructions: 590000000 cycles: 1322468664 heartbeat IPC: 0.36789 cumulative IPC: 0.388809 (Simulation time: 0 hr 21 min 33 sec) 
Heartbeat CPU 0 instructions: 600000000 cycles: 1349803602 heartbeat IPC: 0.365832 cumulative IPC: 0.388321 (Simulation time: 0 hr 21 min 58 sec) 
Finished CPU 0 instructions: 500000003 cycles: 1287595226 cumulative IPC: 0.388321 (Simulation time: 0 hr 21 min 58 sec) 

CPU 0 Branch Prediction Accuracy: 91.1342% MPKI: 18.7968
Number of Branches: 106006945 Number of Mispredictions: 9398408
Number of LOAD Instructions: 207894007
Number of LOAD Instructions (ROI): 207894007
Number of STORE Instructions: 54285997
Number of STORE Instructions (ROI): 54285997
Total Destination Memory Operands: 57463404
Total Destination Memory Operands (ROI): 57463404
Total Source Memory Operands: 207894007
Total Source Memory Operands (ROI): 207894007
Number of DEPENDED LOADS: 17989437
Number of DEPENDED LOADS (ROI): 17989437
Number of SQ_ADDED: 57463404
Number of SQ_ADDED (ROI): 57463404
Number of LQ_ADDED: 209594923
Number of LQ_ADDED (ROI): 209594923
Number of Instructions read from trace: 600000039

ChampSim completed all CPUs

Region of Interest Statistics

CPU 0 cumulative IPC: 0.388321 instructions: 500000003 cycles: 1287595226
ITLB TOTAL     ACCESS:   96411786  HIT:   96411786  MISS:          0
ITLB LOAD      ACCESS:   96411786  HIT:   96411786  MISS:          0
ITLB RFO       ACCESS:          0  HIT:          0  MISS:          0
ITLB PREFETCH  ACCESS:          0  HIT:          0  MISS:          0
ITLB WRITEBACK ACCESS:          0  HIT:          0  MISS:          0
ITLB PREFETCH  REQUESTED:          0  ISSUED:          0  USEFUL:          0  USELESS:          0
ITLB TOTAL MSHR MERGED:          0
ITLB LOAD MSHR MERGED:          0
ITLB RFO MSHR MERGED:          0
ITLB PREFETCH MSHR MERGED:          0
ITLB WRITEBACK MSHR MERGED:          0
ITLB TOTAL ACCESSES:   96411786 HITS:   96411786 MISSES:          0
ITLB LOAD ACCESSES:   96411786 HITS:   96411786 MISSES:          0
ITLB RFO ACCESSES:          0 HITS:          0 MISSES:          0
ITLB PREFETCH ACCESSES:          0 HITS:          0 MISSES:          0
ITLB WRITEBACK ACCESSES:          0 HITS:          0 MISSES:          0
ITLB RQ ACCESS:  499999980
ITLB RQ TO_CACHE:   96411786
ITLB RQ MERGED:  403588194
ITLB RQ FORWARD:          0
ITLB WQ ACCESS:          0
ITLB WQ TO_CACHE:          0
ITLB WQ MERGED:          0
ITLB WQ FORWARD:          0
DTLB TOTAL     ACCESS:  155245834  HIT:  150333771  MISS:    4912063
DTLB LOAD      ACCESS:  117804863  HIT:  113414355  MISS:    4390508
DTLB RFO       ACCESS:   37440971  HIT:   36919416  MISS:     521555
DTLB PREFETCH  ACCESS:          0  HIT:          0  MISS:          0
DTLB WRITEBACK ACCESS:          0  HIT:          0  MISS:          0
DTLB PREFETCH  REQUESTED:          0  ISSUED:          0  USEFUL:          0  USELESS:          0
DTLB TOTAL MSHR MERGED:     448895
DTLB LOAD MSHR MERGED:     157063
DTLB RFO MSHR MERGED:     291832
DTLB PREFETCH MSHR MERGED:          0
DTLB WRITEBACK MSHR MERGED:          0
DTLB TOTAL ACCESSES:  155694729 HITS:  150333771 MISSES:    5360958
DTLB LOAD ACCESSES:  117961926 HITS:  113414355 MISSES:    4547571
DTLB RFO ACCESSES:   37732803 HITS:   36919416 MISSES:     813387
DTLB PREFETCH ACCESSES:          0 HITS:          0 MISSES:          0
DTLB WRITEBACK ACCESSES:          0 HITS:          0 MISSES:          0
DTLB RQ ACCESS:  206087559
DTLB RQ TO_CACHE:  155694729
DTLB RQ MERGED:   50392830
DTLB RQ FORWARD:          0
DTLB WQ ACCESS:          0
DTLB WQ TO_CACHE:          0
DTLB WQ MERGED:          0
DTLB WQ FORWARD:          0
L1D TOTAL     ACCESS:  277540550  HIT:  242717608  MISS:   34822942
L1D LOAD      ACCESS:  125578582  HIT:  108019018  MISS:   17559564
L1D RFO       ACCESS:   41158156  HIT:   38846298  MISS:    2311858
L1D PREFETCH  ACCESS:  110803812  HIT:   95852292  MISS:   14951520
L1D WRITEBACK ACCESS:          0  HIT:          0  MISS:          0
L1D PREFETCH  REQUESTED:  126364682  ISSUED:  124845554  USEFUL:    2785364  USELESS:   12166180
L1D TOTAL MSHR MERGED:    8331778
L1D LOAD MSHR MERGED:    1413784
L1D RFO MSHR MERGED:    3765870
L1D PREFETCH MSHR MERGED:    3152124
L1D WRITEBACK MSHR MERGED:          0
L1D TOTAL ACCESSES:  285959768 HITS:  242805048 MISSES:   43154720
L1D LOAD ACCESSES:  126364685 HITS:  108019021 MISSES:   18345664
L1D RFO ACCESSES:   44923515 HITS:   38846298 MISSES:    6077217
L1D PREFETCH ACCESSES:  114671568 HITS:   95939729 MISSES:   18731839
L1D WRITEBACK ACCESSES:          0 HITS:          0 MISSES:          0
L1D RQ ACCESS:  158540678
L1D RQ TO_CACHE:  126364682
L1D RQ MERGED:   32175993
L1D RQ FORWARD:          0
L1D WQ ACCESS:   47546882
L1D WQ TO_CACHE:   44923515
L1D WQ MERGED:    2623367
L1D WQ FORWARD:      87440
L1I TOTAL     ACCESS:  132822819  HIT:  132822819  MISS:          0
L1I LOAD      ACCESS:  132822819  HIT:  132822819  MISS:          0
L1I RFO       ACCESS:          0  HIT:          0  MISS:          0
L1I PREFETCH  ACCESS:          0  HIT:          0  MISS:          0
L1I WRITEBACK ACCESS:          0  HIT:          0  MISS:          0
L1I PREFETCH  REQUESTED:          0  ISSUED:          0  USEFUL:          0  USELESS:          0
L1I TOTAL MSHR MERGED:          0
L1I LOAD MSHR MERGED:          0
L1I RFO MSHR MERGED:          0
L1I PREFETCH MSHR MERGED:          0
L1I WRITEBACK MSHR MERGED:          0
L1I TOTAL ACCESSES:  132822819 HITS:  132822819 MISSES:          0
L1I LOAD ACCESSES:  132822819 HITS:  132822819 MISSES:          0
L1I RFO ACCESSES:          0 HITS:          0 MISSES:          0
L1I PREFETCH ACCESSES:          0 HITS:          0 MISSES:          0
L1I WRITEBACK ACCESSES:          0 HITS:          0 MISSES:          0
L1I RQ ACCESS:  499999980
L1I RQ TO_CACHE:  132822819
L1I RQ MERGED:  367177161
L1I RQ FORWARD:          0
L1I WQ ACCESS:          0
L1I WQ TO_CACHE:          0
L1I WQ MERGED:          0
L1I WQ FORWARD:          0
L2C TOTAL     ACCESS:   39607233  HIT:   20638428  MISS:   18968805
L2C LOAD      ACCESS:   16931813  HIT:    8572565  MISS:    8359248
L2C RFO       ACCESS:    2311296  HIT:     630814  MISS:    1680482
L2C PREFETCH  ACCESS:   17141706  HIT:    8216381  MISS:    8925325
L2C WRITEBACK ACCESS:    3222418  HIT:    3218668  MISS:       3750
L2C PREFETCH  REQUESTED:    2832219  ISSUED:    2832219  USEFUL:    1310431  USELESS:    7614614
L2C TOTAL MSHR MERGED:     489174
L2C LOAD MSHR MERGED:      69721
L2C RFO MSHR MERGED:          0
L2C PREFETCH MSHR MERGED:     419453
L2C WRITEBACK MSHR MERGED:          0
L2C TOTAL ACCESSES:   40198239 HITS:   20638595 MISSES:   19559644
L2C LOAD ACCESSES:   16931880 HITS:    8572632 MISSES:    8359248
L2C RFO ACCESSES:    2311347 HITS:     630865 MISSES:    1680482
L2C PREFETCH ACCESSES:   17732594 HITS:    8216430 MISSES:    9516164
L2C WRITEBACK ACCESSES:    3222418 HITS:    3218668 MISSES:       3750
L2C RQ ACCESS:   19243227
L2C RQ TO_CACHE:   19243109
L2C RQ MERGED:          0
L2C RQ FORWARD:          0
L2C WQ ACCESS:    3222418
L2C WQ TO_CACHE:    3222418
L2C WQ MERGED:          0
L2C WQ FORWARD:        167
LLC TOTAL     ACCESS:   21194820  HIT:   14077644  MISS:    7117176
LLC LOAD      ACCESS:    8289501  HIT:    5545579  MISS:    2743922
LLC RFO       ACCESS:    1680416  HIT:    1671617  MISS:       8799
LLC PREFETCH  ACCESS:    9049231  HIT:    4685487  MISS:    4363744
LLC WRITEBACK ACCESS:    2175672  HIT:    2174961  MISS:        711
LLC PREFETCH  REQUESTED:          0  ISSUED:          0  USEFUL:     656337  USELESS:    3712892
LLC TOTAL MSHR MERGED:      40255
LLC LOAD MSHR MERGED:      11886
LLC RFO MSHR MERGED:          0
LLC PREFETCH MSHR MERGED:      28369
LLC WRITEBACK MSHR MERGED:          0
LLC TOTAL ACCESSES:   21235197 HITS:   14077766 MISSES:    7157431
LLC LOAD ACCESSES:    8289527 HITS:    5545605 MISSES:    2743922
LLC RFO ACCESSES:    1680482 HITS:    1671683 MISSES:       8799
LLC PREFETCH ACCESSES:    9089516 HITS:    4685517 MISSES:    4403999
LLC WRITEBACK ACCESSES:    2175672 HITS:    2174961 MISSES:        711
LLC 0 RQ ACCESS:    9970009
LLC 0 RQ TO_CACHE:    9969917
LLC 0 RQ MERGED:          0
LLC 0 RQ FORWARD:          0
LLC WQ ACCESS:    2175673
LLC WQ TO_CACHE:    2175673
LLC WQ MERGED:          0
LLC WQ FORWARD:        122
Major fault: 0 Minor fault: 56391
CPU 0 L1D next line prefetcher final stats
CPU 0 L2C PC-based stride prefetcher final stats
All Misses: 8126394
All Hits: 16445274
SD Algo Stats - Switches: 0 SRR-Repls: 2807473 BRR-Repls: 0

DRAM Statistics
 CHANNEL 0
 RQ ROW_BUFFER_HIT:    3983887  ROW_BUFFER_MISS:    3121062
 DBUS_CONGESTED:    3324119
 WQ ROW_BUFFER_HIT:       1122  ROW_BUFFER_MISS:      24002  FULL:          0

 AVG_CONGESTED_CYCLE: 12
LOADS RETIRED: 173631671
INSTR RETIRED: 500000000
