
*** ChampSim Multicore Out-of-Order Simulator ***

Warmup Instructions: 100000000
Simulation Instructions: 500000000
Number of CPUs: 1
LLC sets: 2048
LLC ways: 16
Clean RRIP Policies: 2213200222132002 Dirty RRIP Policies: 1203100212031002 PSEL Width: 10 Track Set: 4294967295 PSEL Mask: 1 Demote Mask: 1040100010401000DS Algo: 0Window size: 0
Off-chip DRAM Size: 4096 MB Channels: 1 Width: 64-bit Data Rate: 1600 MT/s

CPU 0 runs /mnt/beegfs/iconst01/spec2017/Xz.trace.gz
NOT SORTED
TRACE STRING: /mnt/beegfs/iconst01/spec2017/Xz.trace.gz
SORTED
TRACE STRING: /mnt/beegfs/iconst01/spec2017/Xz.trace.gz
INITIAL
TRACE STRING: /mnt/beegfs/iconst01/spec2017/Xz.trace.gz

champsim_seed used: 210

CPU 0 L1D next line prefetcher
CPU 0 L2C IP-based stride prefetcher
Initialize DRRIP state
Assign rand_sets[0]: 454  LLC: 2048
rand_sets[0]: 454
Assign rand_sets[1]: 1662  LLC: 2048
rand_sets[1]: 1662
Assign rand_sets[2]: 1921  LLC: 2048
rand_sets[2]: 1921
Assign rand_sets[3]: 1131  LLC: 2048
rand_sets[3]: 1131
Assign rand_sets[4]: 331  LLC: 2048
rand_sets[4]: 331
Assign rand_sets[5]: 1531  LLC: 2048
rand_sets[5]: 1531
Assign rand_sets[6]: 482  LLC: 2048
rand_sets[6]: 482
Assign rand_sets[7]: 1275  LLC: 2048
rand_sets[7]: 1275
Assign rand_sets[8]: 1876  LLC: 2048
rand_sets[8]: 1876
Assign rand_sets[9]: 2038  LLC: 2048
rand_sets[9]: 2038
Assign rand_sets[10]: 701  LLC: 2048
rand_sets[10]: 701
Assign rand_sets[11]: 479  LLC: 2048
rand_sets[11]: 479
Assign rand_sets[12]: 892  LLC: 2048
rand_sets[12]: 892
Assign rand_sets[13]: 1820  LLC: 2048
rand_sets[13]: 1820
Assign rand_sets[14]: 1505  LLC: 2048
rand_sets[14]: 1505
Assign rand_sets[15]: 1159  LLC: 2048
rand_sets[15]: 1159
Assign rand_sets[16]: 513  LLC: 2048
rand_sets[16]: 513
Assign rand_sets[17]: 703  LLC: 2048
rand_sets[17]: 703
Assign rand_sets[18]: 561  LLC: 2048
rand_sets[18]: 561
Assign rand_sets[19]: 990  LLC: 2048
rand_sets[19]: 990
Assign rand_sets[20]: 342  LLC: 2048
rand_sets[20]: 342
Assign rand_sets[21]: 882  LLC: 2048
rand_sets[21]: 882
Assign rand_sets[22]: 15  LLC: 2048
rand_sets[22]: 15
Assign rand_sets[23]: 71  LLC: 2048
rand_sets[23]: 71
Assign rand_sets[24]: 1127  LLC: 2048
rand_sets[24]: 1127
Assign rand_sets[25]: 1382  LLC: 2048
rand_sets[25]: 1382
Assign rand_sets[26]: 647  LLC: 2048
rand_sets[26]: 647
Assign rand_sets[27]: 857  LLC: 2048
rand_sets[27]: 857
Assign rand_sets[28]: 1450  LLC: 2048
rand_sets[28]: 1450
Assign rand_sets[29]: 1160  LLC: 2048
rand_sets[29]: 1160
Assign rand_sets[30]: 1852  LLC: 2048
rand_sets[30]: 1852
Assign rand_sets[31]: 1881  LLC: 2048
rand_sets[31]: 1881
Assign rand_sets[32]: 1770  LLC: 2048
rand_sets[32]: 1770
Assign rand_sets[33]: 1622  LLC: 2048
rand_sets[33]: 1622
Assign rand_sets[34]: 275  LLC: 2048
rand_sets[34]: 275
Assign rand_sets[35]: 635  LLC: 2048
rand_sets[35]: 635
Assign rand_sets[36]: 466  LLC: 2048
rand_sets[36]: 466
Assign rand_sets[37]: 1413  LLC: 2048
rand_sets[37]: 1413
Assign rand_sets[38]: 417  LLC: 2048
rand_sets[38]: 417
Assign rand_sets[39]: 472  LLC: 2048
rand_sets[39]: 472
Assign rand_sets[40]: 1340  LLC: 2048
rand_sets[40]: 1340
Assign rand_sets[41]: 852  LLC: 2048
rand_sets[41]: 852
Assign rand_sets[42]: 1365  LLC: 2048
rand_sets[42]: 1365
Assign rand_sets[43]: 47  LLC: 2048
rand_sets[43]: 47
Assign rand_sets[44]: 823  LLC: 2048
rand_sets[44]: 823
Assign rand_sets[45]: 686  LLC: 2048
rand_sets[45]: 686
Assign rand_sets[46]: 1637  LLC: 2048
rand_sets[46]: 1637
Assign rand_sets[47]: 1115  LLC: 2048
rand_sets[47]: 1115
Assign rand_sets[48]: 986  LLC: 2048
rand_sets[48]: 986
Assign rand_sets[49]: 258  LLC: 2048
rand_sets[49]: 258
Assign rand_sets[50]: 633  LLC: 2048
rand_sets[50]: 633
Assign rand_sets[51]: 920  LLC: 2048
rand_sets[51]: 920
Assign rand_sets[52]: 204  LLC: 2048
rand_sets[52]: 204
Assign rand_sets[53]: 227  LLC: 2048
rand_sets[53]: 227
Assign rand_sets[54]: 1818  LLC: 2048
rand_sets[54]: 1818
Assign rand_sets[55]: 886  LLC: 2048
rand_sets[55]: 886
Assign rand_sets[56]: 1422  LLC: 2048
rand_sets[56]: 1422
Assign rand_sets[57]: 607  LLC: 2048
rand_sets[57]: 607
Assign rand_sets[58]: 217  LLC: 2048
rand_sets[58]: 217
Assign rand_sets[59]: 1945  LLC: 2048
rand_sets[59]: 1945
Assign rand_sets[60]: 143  LLC: 2048
rand_sets[60]: 143
Assign rand_sets[61]: 1311  LLC: 2048
rand_sets[61]: 1311
Assign rand_sets[62]: 319  LLC: 2048
rand_sets[62]: 319
Assign rand_sets[63]: 1846  LLC: 2048
rand_sets[63]: 1846
 CLEAN-RRIP-POLICY-1: 2-2-1-3-2-0-0-2- CLEAN-RRIP-POLICY-2: 2-2-1-3-2-0-0-2-
 DIRTY-RRIP-POLICY-1: 1-2-0-3-1-0-0-2- DIRTY-RRIP-POLICY-2: 1-2-0-3-1-0-0-2-
 PSEL width: 10
Heartbeat CPU 0 instructions: 10000000 cycles: 4305270 heartbeat IPC: 2.32273 cumulative IPC: 2.32273 (Simulation time: 0 hr 0 min 12 sec) 
Heartbeat CPU 0 instructions: 20000000 cycles: 8617099 heartbeat IPC: 2.3192 cumulative IPC: 2.32097 (Simulation time: 0 hr 0 min 24 sec) 
Heartbeat CPU 0 instructions: 30000003 cycles: 13160973 heartbeat IPC: 2.20077 cumulative IPC: 2.27947 (Simulation time: 0 hr 0 min 37 sec) 
Heartbeat CPU 0 instructions: 40000000 cycles: 17515456 heartbeat IPC: 2.29648 cumulative IPC: 2.2837 (Simulation time: 0 hr 0 min 49 sec) 
Heartbeat CPU 0 instructions: 50000001 cycles: 21878233 heartbeat IPC: 2.29212 cumulative IPC: 2.28538 (Simulation time: 0 hr 1 min 1 sec) 
Heartbeat CPU 0 instructions: 60000000 cycles: 26178393 heartbeat IPC: 2.32549 cumulative IPC: 2.29197 (Simulation time: 0 hr 1 min 13 sec) 
Heartbeat CPU 0 instructions: 70000001 cycles: 30244260 heartbeat IPC: 2.4595 cumulative IPC: 2.31449 (Simulation time: 0 hr 1 min 25 sec) 
Heartbeat CPU 0 instructions: 80000000 cycles: 34523004 heartbeat IPC: 2.33713 cumulative IPC: 2.3173 (Simulation time: 0 hr 1 min 37 sec) 
Heartbeat CPU 0 instructions: 90000001 cycles: 38739594 heartbeat IPC: 2.37158 cumulative IPC: 2.3232 (Simulation time: 0 hr 1 min 49 sec) 
Heartbeat CPU 0 instructions: 100000000 cycles: 42979943 heartbeat IPC: 2.3583 cumulative IPC: 2.32667 (Simulation time: 0 hr 2 min 0 sec) 

Warmup complete CPU 0 instructions: 100000001 cycles: 42979944 (Simulation time: 0 hr 2 min 0 sec) 

Heartbeat CPU 0 instructions: 110000000 cycles: 53086752 heartbeat IPC: 0.989432 cumulative IPC: 0.989432 (Simulation time: 0 hr 2 min 18 sec) 
Heartbeat CPU 0 instructions: 120000000 cycles: 63682925 heartbeat IPC: 0.943737 cumulative IPC: 0.966044 (Simulation time: 0 hr 2 min 36 sec) 
Heartbeat CPU 0 instructions: 130000001 cycles: 74248736 heartbeat IPC: 0.946449 cumulative IPC: 0.959423 (Simulation time: 0 hr 2 min 54 sec) 
Heartbeat CPU 0 instructions: 140000000 cycles: 83922646 heartbeat IPC: 1.03371 cumulative IPC: 0.976975 (Simulation time: 0 hr 3 min 12 sec) 
Heartbeat CPU 0 instructions: 150000001 cycles: 94206328 heartbeat IPC: 0.972414 cumulative IPC: 0.976059 (Simulation time: 0 hr 3 min 30 sec) 
Heartbeat CPU 0 instructions: 160000000 cycles: 104236215 heartbeat IPC: 0.99702 cumulative IPC: 0.979492 (Simulation time: 0 hr 3 min 48 sec) 
Heartbeat CPU 0 instructions: 170000000 cycles: 113881017 heartbeat IPC: 1.03683 cumulative IPC: 0.987291 (Simulation time: 0 hr 4 min 5 sec) 
Heartbeat CPU 0 instructions: 180000000 cycles: 124389507 heartbeat IPC: 0.951612 cumulative IPC: 0.982686 (Simulation time: 0 hr 4 min 23 sec) 
Heartbeat CPU 0 instructions: 190000001 cycles: 134618277 heartbeat IPC: 0.977635 cumulative IPC: 0.982122 (Simulation time: 0 hr 4 min 41 sec) 
Heartbeat CPU 0 instructions: 200000000 cycles: 145148725 heartbeat IPC: 0.949627 cumulative IPC: 0.978773 (Simulation time: 0 hr 4 min 59 sec) 
Heartbeat CPU 0 instructions: 210000002 cycles: 157553535 heartbeat IPC: 0.806139 cumulative IPC: 0.960082 (Simulation time: 0 hr 5 min 18 sec) 
Heartbeat CPU 0 instructions: 220000000 cycles: 170030978 heartbeat IPC: 0.801446 cumulative IPC: 0.944502 (Simulation time: 0 hr 5 min 38 sec) 
Heartbeat CPU 0 instructions: 230000000 cycles: 182148529 heartbeat IPC: 0.825249 cumulative IPC: 0.934119 (Simulation time: 0 hr 5 min 57 sec) 
Heartbeat CPU 0 instructions: 240000000 cycles: 194213400 heartbeat IPC: 0.828853 cumulative IPC: 0.925721 (Simulation time: 0 hr 6 min 16 sec) 
Heartbeat CPU 0 instructions: 250000000 cycles: 206131080 heartbeat IPC: 0.83909 cumulative IPC: 0.919393 (Simulation time: 0 hr 6 min 35 sec) 
Heartbeat CPU 0 instructions: 260000000 cycles: 217633781 heartbeat IPC: 0.869361 cumulative IPC: 0.916098 (Simulation time: 0 hr 6 min 54 sec) 
Heartbeat CPU 0 instructions: 270000003 cycles: 229445998 heartbeat IPC: 0.846581 cumulative IPC: 0.911694 (Simulation time: 0 hr 7 min 13 sec) 
Heartbeat CPU 0 instructions: 280000000 cycles: 240937726 heartbeat IPC: 0.870191 cumulative IPC: 0.909285 (Simulation time: 0 hr 7 min 32 sec) 
Heartbeat CPU 0 instructions: 290000002 cycles: 252395250 heartbeat IPC: 0.872789 cumulative IPC: 0.907288 (Simulation time: 0 hr 7 min 50 sec) 
Heartbeat CPU 0 instructions: 300000000 cycles: 264779470 heartbeat IPC: 0.807479 cumulative IPC: 0.901715 (Simulation time: 0 hr 8 min 10 sec) 
Heartbeat CPU 0 instructions: 310000000 cycles: 276851760 heartbeat IPC: 0.828343 cumulative IPC: 0.897928 (Simulation time: 0 hr 8 min 29 sec) 
Heartbeat CPU 0 instructions: 320000000 cycles: 289427009 heartbeat IPC: 0.795213 cumulative IPC: 0.892687 (Simulation time: 0 hr 8 min 48 sec) 
Heartbeat CPU 0 instructions: 330000003 cycles: 301294360 heartbeat IPC: 0.842648 cumulative IPC: 0.890388 (Simulation time: 0 hr 9 min 7 sec) 
Heartbeat CPU 0 instructions: 340000000 cycles: 313331427 heartbeat IPC: 0.830767 cumulative IPC: 0.887733 (Simulation time: 0 hr 9 min 26 sec) 
Heartbeat CPU 0 instructions: 350000001 cycles: 324282972 heartbeat IPC: 0.913113 cumulative IPC: 0.888721 (Simulation time: 0 hr 9 min 44 sec) 
Heartbeat CPU 0 instructions: 360000000 cycles: 335998844 heartbeat IPC: 0.853543 cumulative IPC: 0.887315 (Simulation time: 0 hr 10 min 3 sec) 
Heartbeat CPU 0 instructions: 370000001 cycles: 347391946 heartbeat IPC: 0.877724 cumulative IPC: 0.886956 (Simulation time: 0 hr 10 min 22 sec) 
Heartbeat CPU 0 instructions: 380000000 cycles: 358366610 heartbeat IPC: 0.91119 cumulative IPC: 0.887799 (Simulation time: 0 hr 10 min 40 sec) 
Heartbeat CPU 0 instructions: 390000003 cycles: 368955110 heartbeat IPC: 0.944421 cumulative IPC: 0.889638 (Simulation time: 0 hr 10 min 59 sec) 
Heartbeat CPU 0 instructions: 400000000 cycles: 379149924 heartbeat IPC: 0.980891 cumulative IPC: 0.892406 (Simulation time: 0 hr 11 min 17 sec) 
Heartbeat CPU 0 instructions: 410000000 cycles: 389643527 heartbeat IPC: 0.952962 cumulative IPC: 0.894239 (Simulation time: 0 hr 11 min 35 sec) 
Heartbeat CPU 0 instructions: 420000000 cycles: 399020756 heartbeat IPC: 1.06641 cumulative IPC: 0.898773 (Simulation time: 0 hr 11 min 53 sec) 
Heartbeat CPU 0 instructions: 430000002 cycles: 408107581 heartbeat IPC: 1.10049 cumulative IPC: 0.903794 (Simulation time: 0 hr 12 min 11 sec) 
Heartbeat CPU 0 instructions: 440000000 cycles: 418329139 heartbeat IPC: 0.978324 cumulative IPC: 0.905823 (Simulation time: 0 hr 12 min 29 sec) 
Heartbeat CPU 0 instructions: 450000002 cycles: 429364385 heartbeat IPC: 0.906187 cumulative IPC: 0.905834 (Simulation time: 0 hr 12 min 47 sec) 
Heartbeat CPU 0 instructions: 460000000 cycles: 440866387 heartbeat IPC: 0.869414 cumulative IPC: 0.904781 (Simulation time: 0 hr 13 min 6 sec) 
Heartbeat CPU 0 instructions: 470000003 cycles: 451042656 heartbeat IPC: 0.982679 cumulative IPC: 0.906723 (Simulation time: 0 hr 13 min 23 sec) 
Heartbeat CPU 0 instructions: 480000000 cycles: 461549482 heartbeat IPC: 0.951762 cumulative IPC: 0.907854 (Simulation time: 0 hr 13 min 41 sec) 
Heartbeat CPU 0 instructions: 490000000 cycles: 471483831 heartbeat IPC: 1.00661 cumulative IPC: 0.910143 (Simulation time: 0 hr 13 min 59 sec) 
Heartbeat CPU 0 instructions: 500000000 cycles: 483223487 heartbeat IPC: 0.851814 cumulative IPC: 0.908588 (Simulation time: 0 hr 14 min 17 sec) 
Heartbeat CPU 0 instructions: 510000002 cycles: 495592702 heartbeat IPC: 0.808459 cumulative IPC: 0.905852 (Simulation time: 0 hr 14 min 36 sec) 
Heartbeat CPU 0 instructions: 520000000 cycles: 507434569 heartbeat IPC: 0.844461 cumulative IPC: 0.904286 (Simulation time: 0 hr 14 min 55 sec) 
Heartbeat CPU 0 instructions: 530000001 cycles: 519234299 heartbeat IPC: 0.847477 cumulative IPC: 0.902879 (Simulation time: 0 hr 15 min 14 sec) 
Heartbeat CPU 0 instructions: 540000000 cycles: 530786915 heartbeat IPC: 0.865605 cumulative IPC: 0.901996 (Simulation time: 0 hr 15 min 32 sec) 
Heartbeat CPU 0 instructions: 550000001 cycles: 542124635 heartbeat IPC: 0.882012 cumulative IPC: 0.901542 (Simulation time: 0 hr 15 min 50 sec) 
Heartbeat CPU 0 instructions: 560000000 cycles: 553636838 heartbeat IPC: 0.868643 cumulative IPC: 0.900801 (Simulation time: 0 hr 16 min 9 sec) 
Heartbeat CPU 0 instructions: 570000000 cycles: 564995444 heartbeat IPC: 0.88039 cumulative IPC: 0.900356 (Simulation time: 0 hr 16 min 27 sec) 
Heartbeat CPU 0 instructions: 580000000 cycles: 575730348 heartbeat IPC: 0.931541 cumulative IPC: 0.900985 (Simulation time: 0 hr 16 min 44 sec) 
Heartbeat CPU 0 instructions: 590000003 cycles: 587066821 heartbeat IPC: 0.882109 cumulative IPC: 0.900591 (Simulation time: 0 hr 17 min 2 sec) 
Heartbeat CPU 0 instructions: 600000000 cycles: 597612857 heartbeat IPC: 0.948223 cumulative IPC: 0.901497 (Simulation time: 0 hr 17 min 20 sec) 
Finished CPU 0 instructions: 500000001 cycles: 554632921 cumulative IPC: 0.901497 (Simulation time: 0 hr 17 min 20 sec) 

CPU 0 Branch Prediction Accuracy: 93.0095% MPKI: 10.0046
Number of Branches: 71558147 Number of Mispredictions: 5002285
Number of LOAD Instructions: 145708893
Number of LOAD Instructions (ROI): 145708893
Number of STORE Instructions: 40463820
Number of STORE Instructions (ROI): 40463820
Total Destination Memory Operands: 45240498
Total Destination Memory Operands (ROI): 45240498
Total Source Memory Operands: 145708893
Total Source Memory Operands (ROI): 145708893
Number of DEPENDED LOADS: 10670060
Number of DEPENDED LOADS (ROI): 10670060
Number of SQ_ADDED: 45240498
Number of SQ_ADDED (ROI): 45240498
Number of LQ_ADDED: 193320189
Number of LQ_ADDED (ROI): 193320189
Number of Instructions read from trace: 600000002

ChampSim completed all CPUs

Region of Interest Statistics

CPU 0 cumulative IPC: 0.901497 instructions: 500000001 cycles: 554632921
ITLB TOTAL     ACCESS:   77992566  HIT:   77992565  MISS:          1
ITLB LOAD      ACCESS:   77992566  HIT:   77992565  MISS:          1
ITLB RFO       ACCESS:          0  HIT:          0  MISS:          0
ITLB PREFETCH  ACCESS:          0  HIT:          0  MISS:          0
ITLB WRITEBACK ACCESS:          0  HIT:          0  MISS:          0
ITLB PREFETCH  REQUESTED:          0  ISSUED:          0  USEFUL:          0  USELESS:          0
ITLB TOTAL MSHR MERGED:          0
ITLB LOAD MSHR MERGED:          0
ITLB RFO MSHR MERGED:          0
ITLB PREFETCH MSHR MERGED:          0
ITLB WRITEBACK MSHR MERGED:          0
ITLB TOTAL ACCESSES:   77992566 HITS:   77992565 MISSES:          1
ITLB LOAD ACCESSES:   77992566 HITS:   77992565 MISSES:          1
ITLB RFO ACCESSES:          0 HITS:          0 MISSES:          0
ITLB PREFETCH ACCESSES:          0 HITS:          0 MISSES:          0
ITLB WRITEBACK ACCESSES:          0 HITS:          0 MISSES:          0
ITLB RQ ACCESS:  499999995
ITLB RQ TO_CACHE:   77992566
ITLB RQ MERGED:  422007429
ITLB RQ FORWARD:          0
ITLB WQ ACCESS:          0
ITLB WQ TO_CACHE:          0
ITLB WQ MERGED:          0
ITLB WQ FORWARD:          0
DTLB TOTAL     ACCESS:   98669638  HIT:   97788302  MISS:     881336
DTLB LOAD      ACCESS:   70889749  HIT:   70028216  MISS:     861533
DTLB RFO       ACCESS:   27779889  HIT:   27760086  MISS:      19803
DTLB PREFETCH  ACCESS:          0  HIT:          0  MISS:          0
DTLB WRITEBACK ACCESS:          0  HIT:          0  MISS:          0
DTLB PREFETCH  REQUESTED:          0  ISSUED:          0  USEFUL:          0  USELESS:          0
DTLB TOTAL MSHR MERGED:      87410
DTLB LOAD MSHR MERGED:      65670
DTLB RFO MSHR MERGED:      21740
DTLB PREFETCH MSHR MERGED:          0
DTLB WRITEBACK MSHR MERGED:          0
DTLB TOTAL ACCESSES:   98757048 HITS:   97788302 MISSES:     968746
DTLB LOAD ACCESSES:   70955419 HITS:   70028216 MISSES:     927203
DTLB RFO ACCESSES:   27801629 HITS:   27760086 MISSES:      41543
DTLB PREFETCH ACCESSES:          0 HITS:          0 MISSES:          0
DTLB WRITEBACK ACCESSES:          0 HITS:          0 MISSES:          0
DTLB RQ ACCESS:  150274993
DTLB RQ TO_CACHE:   98757048
DTLB RQ MERGED:   51517945
DTLB RQ FORWARD:          0
DTLB WQ ACCESS:          0
DTLB WQ TO_CACHE:          0
DTLB WQ MERGED:          0
DTLB WQ FORWARD:          0
L1D TOTAL     ACCESS:  173333376  HIT:  169164750  MISS:    4168626
L1D LOAD      ACCESS:   75283130  HIT:   73401811  MISS:    1881319
L1D RFO       ACCESS:   36778617  HIT:   36572024  MISS:     206593
L1D PREFETCH  ACCESS:   61271629  HIT:   59190915  MISS:    2080714
L1D WRITEBACK ACCESS:          0  HIT:          0  MISS:          0
L1D PREFETCH  REQUESTED:   75386388  ISSUED:   74822207  USEFUL:     415160  USELESS:    1665543
L1D TOTAL MSHR MERGED:     372501
L1D LOAD MSHR MERGED:     112006
L1D RFO MSHR MERGED:     132839
L1D PREFETCH MSHR MERGED:     127656
L1D WRITEBACK MSHR MERGED:          0
L1D TOTAL ACCESSES:  173857447 HITS:  169316320 MISSES:    4541127
L1D LOAD ACCESSES:   75389334 HITS:   73404757 MISSES:    1984577
L1D RFO ACCESSES:   36910073 HITS:   36572024 MISSES:     338049
L1D PREFETCH ACCESSES:   61558040 HITS:   59339539 MISSES:    2218501
L1D WRITEBACK ACCESSES:          0 HITS:          0 MISSES:          0
L1D RQ ACCESS:  112612590
L1D RQ TO_CACHE:   75386388
L1D RQ MERGED:   37223256
L1D RQ FORWARD:          0
L1D WQ ACCESS:   37662403
L1D WQ TO_CACHE:   36910073
L1D WQ MERGED:     752330
L1D WQ FORWARD:     151570
L1I TOTAL     ACCESS:  100700492  HIT:  100700467  MISS:         25
L1I LOAD      ACCESS:  100700492  HIT:  100700467  MISS:         25
L1I RFO       ACCESS:          0  HIT:          0  MISS:          0
L1I PREFETCH  ACCESS:          0  HIT:          0  MISS:          0
L1I WRITEBACK ACCESS:          0  HIT:          0  MISS:          0
L1I PREFETCH  REQUESTED:          0  ISSUED:          0  USEFUL:          0  USELESS:          0
L1I TOTAL MSHR MERGED:         10
L1I LOAD MSHR MERGED:         10
L1I RFO MSHR MERGED:          0
L1I PREFETCH MSHR MERGED:          0
L1I WRITEBACK MSHR MERGED:          0
L1I TOTAL ACCESSES:  100700502 HITS:  100700467 MISSES:         35
L1I LOAD ACCESSES:  100700502 HITS:  100700467 MISSES:         35
L1I RFO ACCESSES:          0 HITS:          0 MISSES:          0
L1I PREFETCH ACCESSES:          0 HITS:          0 MISSES:          0
L1I WRITEBACK ACCESSES:          0 HITS:          0 MISSES:          0
L1I RQ ACCESS:  499999995
L1I RQ TO_CACHE:  100700502
L1I RQ MERGED:  399299493
L1I RQ FORWARD:          0
L1I WQ ACCESS:          0
L1I WQ TO_CACHE:          0
L1I WQ MERGED:          0
L1I WQ FORWARD:          0
L2C TOTAL     ACCESS:    5852585  HIT:    4009393  MISS:    1843192
L2C LOAD      ACCESS:    1872472  HIT:    1061512  MISS:     810960
L2C RFO       ACCESS:     205203  HIT:     100565  MISS:     104638
L2C PREFETCH  ACCESS:    2169276  HIT:    1246102  MISS:     923174
L2C WRITEBACK ACCESS:    1605634  HIT:    1601214  MISS:       4420
L2C PREFETCH  REQUESTED:      91712  ISSUED:      91712  USEFUL:      86455  USELESS:     836742
L2C TOTAL MSHR MERGED:       1015
L2C LOAD MSHR MERGED:        254
L2C RFO MSHR MERGED:          0
L2C PREFETCH MSHR MERGED:        761
L2C WRITEBACK MSHR MERGED:          0
L2C TOTAL ACCESSES:    5853925 HITS:    4009561 MISSES:    1844364
L2C LOAD ACCESSES:    1872596 HITS:    1061636 MISSES:     810960
L2C RFO ACCESSES:     205210 HITS:     100572 MISSES:     104638
L2C PREFETCH ACCESSES:    2170485 HITS:    1246139 MISSES:     924346
L2C WRITEBACK ACCESSES:    1605634 HITS:    1601214 MISSES:       4420
L2C RQ ACCESS:    2077806
L2C RQ TO_CACHE:    2077675
L2C RQ MERGED:          0
L2C RQ FORWARD:          0
L2C WQ ACCESS:    1605634
L2C WQ TO_CACHE:    1605634
L2C WQ MERGED:          0
L2C WQ FORWARD:        168
LLC TOTAL     ACCESS:    2673572  HIT:    2232198  MISS:     441374
LLC LOAD      ACCESS:     810697  HIT:     649650  MISS:     161047
LLC RFO       ACCESS:     104638  HIT:      60819  MISS:      43819
LLC PREFETCH  ACCESS:     923564  HIT:     694866  MISS:     228698
LLC WRITEBACK ACCESS:     834673  HIT:     826863  MISS:       7810
LLC PREFETCH  REQUESTED:          0  ISSUED:          0  USEFUL:       7179  USELESS:     221823
LLC TOTAL MSHR MERGED:          7
LLC LOAD MSHR MERGED:          1
LLC RFO MSHR MERGED:          0
LLC PREFETCH MSHR MERGED:          6
LLC WRITEBACK MSHR MERGED:          0
LLC TOTAL ACCESSES:    2673590 HITS:    2232209 MISSES:     441381
LLC LOAD ACCESSES:     810706 HITS:     649659 MISSES:     161047
LLC RFO ACCESSES:     104638 HITS:      60819 MISSES:      43819
LLC PREFETCH ACCESSES:     923573 HITS:     694868 MISSES:     228705
LLC WRITEBACK ACCESSES:     834673 HITS:     826863 MISSES:       7810
LLC 0 RQ ACCESS:     915344
LLC 0 RQ TO_CACHE:     915335
LLC 0 RQ MERGED:          0
LLC 0 RQ FORWARD:          0
LLC WQ ACCESS:     834673
LLC WQ TO_CACHE:     834673
LLC WQ MERGED:          0
LLC WQ FORWARD:         11
Major fault: 0 Minor fault: 11278
CPU 0 L1D next line prefetcher final stats
CPU 0 L2C PC-based stride prefetcher final stats
All Misses: 546363
All Hits: 2508227
SD Algo Stats - Switches: 0 SRR-Repls: 193330 BRR-Repls: 0

DRAM Statistics
 CHANNEL 0
 RQ ROW_BUFFER_HIT:      28522  ROW_BUFFER_MISS:     404809
 DBUS_CONGESTED:     330859
 WQ ROW_BUFFER_HIT:      12329  ROW_BUFFER_MISS:     190424  FULL:          0

 AVG_CONGESTED_CYCLE: 13
LOADS RETIRED: 121769268
INSTR RETIRED: 500000000
