
*** ChampSim Multicore Out-of-Order Simulator ***

Warmup Instructions: 100000000
Simulation Instructions: 500000000
Number of CPUs: 1
LLC sets: 2048
LLC ways: 16
Clean RRIP Policies: 2121102321211023 Dirty RRIP Policies: 2111200321112003 PSEL Width: 10 Track Set: 4294967295 PSEL Mask: 1 Demote Mask: 3330443333304433DS Algo: 0Window size: 0
Off-chip DRAM Size: 4096 MB Channels: 1 Width: 64-bit Data Rate: 1600 MT/s

CPU 0 runs /mnt/beegfs/iconst01/spec2017/Gcc.trace.gz
NOT SORTED
TRACE STRING: /mnt/beegfs/iconst01/spec2017/Gcc.trace.gz
SORTED
TRACE STRING: /mnt/beegfs/iconst01/spec2017/Gcc.trace.gz
INITIAL
TRACE STRING: /mnt/beegfs/iconst01/spec2017/Gcc.trace.gz

champsim_seed used: 269

CPU 0 L1D next line prefetcher
CPU 0 L2C IP-based stride prefetcher
Initialize DRRIP state
Assign rand_sets[0]: 454  LLC: 2048
rand_sets[0]: 454
Assign rand_sets[1]: 1662  LLC: 2048
rand_sets[1]: 1662
Assign rand_sets[2]: 1921  LLC: 2048
rand_sets[2]: 1921
Assign rand_sets[3]: 1131  LLC: 2048
rand_sets[3]: 1131
Assign rand_sets[4]: 331  LLC: 2048
rand_sets[4]: 331
Assign rand_sets[5]: 1531  LLC: 2048
rand_sets[5]: 1531
Assign rand_sets[6]: 482  LLC: 2048
rand_sets[6]: 482
Assign rand_sets[7]: 1275  LLC: 2048
rand_sets[7]: 1275
Assign rand_sets[8]: 1876  LLC: 2048
rand_sets[8]: 1876
Assign rand_sets[9]: 2038  LLC: 2048
rand_sets[9]: 2038
Assign rand_sets[10]: 701  LLC: 2048
rand_sets[10]: 701
Assign rand_sets[11]: 479  LLC: 2048
rand_sets[11]: 479
Assign rand_sets[12]: 892  LLC: 2048
rand_sets[12]: 892
Assign rand_sets[13]: 1820  LLC: 2048
rand_sets[13]: 1820
Assign rand_sets[14]: 1505  LLC: 2048
rand_sets[14]: 1505
Assign rand_sets[15]: 1159  LLC: 2048
rand_sets[15]: 1159
Assign rand_sets[16]: 513  LLC: 2048
rand_sets[16]: 513
Assign rand_sets[17]: 703  LLC: 2048
rand_sets[17]: 703
Assign rand_sets[18]: 561  LLC: 2048
rand_sets[18]: 561
Assign rand_sets[19]: 990  LLC: 2048
rand_sets[19]: 990
Assign rand_sets[20]: 342  LLC: 2048
rand_sets[20]: 342
Assign rand_sets[21]: 882  LLC: 2048
rand_sets[21]: 882
Assign rand_sets[22]: 15  LLC: 2048
rand_sets[22]: 15
Assign rand_sets[23]: 71  LLC: 2048
rand_sets[23]: 71
Assign rand_sets[24]: 1127  LLC: 2048
rand_sets[24]: 1127
Assign rand_sets[25]: 1382  LLC: 2048
rand_sets[25]: 1382
Assign rand_sets[26]: 647  LLC: 2048
rand_sets[26]: 647
Assign rand_sets[27]: 857  LLC: 2048
rand_sets[27]: 857
Assign rand_sets[28]: 1450  LLC: 2048
rand_sets[28]: 1450
Assign rand_sets[29]: 1160  LLC: 2048
rand_sets[29]: 1160
Assign rand_sets[30]: 1852  LLC: 2048
rand_sets[30]: 1852
Assign rand_sets[31]: 1881  LLC: 2048
rand_sets[31]: 1881
Assign rand_sets[32]: 1770  LLC: 2048
rand_sets[32]: 1770
Assign rand_sets[33]: 1622  LLC: 2048
rand_sets[33]: 1622
Assign rand_sets[34]: 275  LLC: 2048
rand_sets[34]: 275
Assign rand_sets[35]: 635  LLC: 2048
rand_sets[35]: 635
Assign rand_sets[36]: 466  LLC: 2048
rand_sets[36]: 466
Assign rand_sets[37]: 1413  LLC: 2048
rand_sets[37]: 1413
Assign rand_sets[38]: 417  LLC: 2048
rand_sets[38]: 417
Assign rand_sets[39]: 472  LLC: 2048
rand_sets[39]: 472
Assign rand_sets[40]: 1340  LLC: 2048
rand_sets[40]: 1340
Assign rand_sets[41]: 852  LLC: 2048
rand_sets[41]: 852
Assign rand_sets[42]: 1365  LLC: 2048
rand_sets[42]: 1365
Assign rand_sets[43]: 47  LLC: 2048
rand_sets[43]: 47
Assign rand_sets[44]: 823  LLC: 2048
rand_sets[44]: 823
Assign rand_sets[45]: 686  LLC: 2048
rand_sets[45]: 686
Assign rand_sets[46]: 1637  LLC: 2048
rand_sets[46]: 1637
Assign rand_sets[47]: 1115  LLC: 2048
rand_sets[47]: 1115
Assign rand_sets[48]: 986  LLC: 2048
rand_sets[48]: 986
Assign rand_sets[49]: 258  LLC: 2048
rand_sets[49]: 258
Assign rand_sets[50]: 633  LLC: 2048
rand_sets[50]: 633
Assign rand_sets[51]: 920  LLC: 2048
rand_sets[51]: 920
Assign rand_sets[52]: 204  LLC: 2048
rand_sets[52]: 204
Assign rand_sets[53]: 227  LLC: 2048
rand_sets[53]: 227
Assign rand_sets[54]: 1818  LLC: 2048
rand_sets[54]: 1818
Assign rand_sets[55]: 886  LLC: 2048
rand_sets[55]: 886
Assign rand_sets[56]: 1422  LLC: 2048
rand_sets[56]: 1422
Assign rand_sets[57]: 607  LLC: 2048
rand_sets[57]: 607
Assign rand_sets[58]: 217  LLC: 2048
rand_sets[58]: 217
Assign rand_sets[59]: 1945  LLC: 2048
rand_sets[59]: 1945
Assign rand_sets[60]: 143  LLC: 2048
rand_sets[60]: 143
Assign rand_sets[61]: 1311  LLC: 2048
rand_sets[61]: 1311
Assign rand_sets[62]: 319  LLC: 2048
rand_sets[62]: 319
Assign rand_sets[63]: 1846  LLC: 2048
rand_sets[63]: 1846
 CLEAN-RRIP-POLICY-1: 2-1-2-1-1-0-2-3- CLEAN-RRIP-POLICY-2: 2-1-2-1-1-0-2-3-
 DIRTY-RRIP-POLICY-1: 2-1-1-1-2-0-0-3- DIRTY-RRIP-POLICY-2: 2-1-1-1-2-0-0-3-
 PSEL width: 10
Heartbeat CPU 0 instructions: 10000001 cycles: 7320815 heartbeat IPC: 1.36597 cumulative IPC: 1.36597 (Simulation time: 0 hr 0 min 15 sec) 
Heartbeat CPU 0 instructions: 20000000 cycles: 14325324 heartbeat IPC: 1.42765 cumulative IPC: 1.39613 (Simulation time: 0 hr 0 min 30 sec) 
Heartbeat CPU 0 instructions: 30000001 cycles: 21041703 heartbeat IPC: 1.4889 cumulative IPC: 1.42574 (Simulation time: 0 hr 0 min 47 sec) 
Heartbeat CPU 0 instructions: 40000000 cycles: 27503540 heartbeat IPC: 1.54755 cumulative IPC: 1.45436 (Simulation time: 0 hr 1 min 4 sec) 
Heartbeat CPU 0 instructions: 50000001 cycles: 33606346 heartbeat IPC: 1.63859 cumulative IPC: 1.48781 (Simulation time: 0 hr 1 min 20 sec) 
Heartbeat CPU 0 instructions: 60000000 cycles: 40088546 heartbeat IPC: 1.54269 cumulative IPC: 1.49669 (Simulation time: 0 hr 1 min 36 sec) 
Heartbeat CPU 0 instructions: 70000000 cycles: 47131424 heartbeat IPC: 1.41987 cumulative IPC: 1.48521 (Simulation time: 0 hr 1 min 51 sec) 
Heartbeat CPU 0 instructions: 80000000 cycles: 54226458 heartbeat IPC: 1.40944 cumulative IPC: 1.47529 (Simulation time: 0 hr 2 min 6 sec) 
Heartbeat CPU 0 instructions: 90000003 cycles: 61236409 heartbeat IPC: 1.42654 cumulative IPC: 1.46971 (Simulation time: 0 hr 2 min 22 sec) 
Heartbeat CPU 0 instructions: 100000000 cycles: 68409063 heartbeat IPC: 1.39418 cumulative IPC: 1.46179 (Simulation time: 0 hr 2 min 37 sec) 

Warmup complete CPU 0 instructions: 100000004 cycles: 68409064 (Simulation time: 0 hr 2 min 37 sec) 

Heartbeat CPU 0 instructions: 110000003 cycles: 96852494 heartbeat IPC: 0.351575 cumulative IPC: 0.351575 (Simulation time: 0 hr 3 min 7 sec) 
Heartbeat CPU 0 instructions: 120000000 cycles: 124570542 heartbeat IPC: 0.360776 cumulative IPC: 0.356116 (Simulation time: 0 hr 3 min 37 sec) 
Heartbeat CPU 0 instructions: 130000000 cycles: 149844500 heartbeat IPC: 0.395664 cumulative IPC: 0.36839 (Simulation time: 0 hr 4 min 7 sec) 
Heartbeat CPU 0 instructions: 140000000 cycles: 180883048 heartbeat IPC: 0.32218 cumulative IPC: 0.355638 (Simulation time: 0 hr 4 min 37 sec) 
Heartbeat CPU 0 instructions: 150000000 cycles: 211696795 heartbeat IPC: 0.32453 cumulative IPC: 0.348948 (Simulation time: 0 hr 5 min 8 sec) 
Heartbeat CPU 0 instructions: 160000000 cycles: 239446719 heartbeat IPC: 0.360361 cumulative IPC: 0.3508 (Simulation time: 0 hr 5 min 37 sec) 
Heartbeat CPU 0 instructions: 170000001 cycles: 267890918 heartbeat IPC: 0.351566 cumulative IPC: 0.350909 (Simulation time: 0 hr 6 min 8 sec) 
Heartbeat CPU 0 instructions: 180000000 cycles: 296791079 heartbeat IPC: 0.346019 cumulative IPC: 0.35029 (Simulation time: 0 hr 6 min 39 sec) 
Heartbeat CPU 0 instructions: 190000002 cycles: 325395850 heartbeat IPC: 0.349592 cumulative IPC: 0.350213 (Simulation time: 0 hr 7 min 9 sec) 
Heartbeat CPU 0 instructions: 200000000 cycles: 354271006 heartbeat IPC: 0.346318 cumulative IPC: 0.349819 (Simulation time: 0 hr 7 min 40 sec) 
Heartbeat CPU 0 instructions: 210000002 cycles: 382686696 heartbeat IPC: 0.351918 cumulative IPC: 0.350009 (Simulation time: 0 hr 8 min 11 sec) 
Heartbeat CPU 0 instructions: 220000000 cycles: 413180690 heartbeat IPC: 0.327933 cumulative IPC: 0.348056 (Simulation time: 0 hr 8 min 40 sec) 
Heartbeat CPU 0 instructions: 230000000 cycles: 441369132 heartbeat IPC: 0.354755 cumulative IPC: 0.348563 (Simulation time: 0 hr 9 min 10 sec) 
Heartbeat CPU 0 instructions: 240000000 cycles: 467867513 heartbeat IPC: 0.377382 cumulative IPC: 0.350474 (Simulation time: 0 hr 9 min 38 sec) 
Heartbeat CPU 0 instructions: 250000000 cycles: 498223450 heartbeat IPC: 0.329425 cumulative IPC: 0.348988 (Simulation time: 0 hr 10 min 10 sec) 
Heartbeat CPU 0 instructions: 260000000 cycles: 525567643 heartbeat IPC: 0.365708 cumulative IPC: 0.349988 (Simulation time: 0 hr 10 min 40 sec) 
Heartbeat CPU 0 instructions: 270000003 cycles: 554329871 heartbeat IPC: 0.347678 cumulative IPC: 0.349851 (Simulation time: 0 hr 11 min 11 sec) 
Heartbeat CPU 0 instructions: 280000000 cycles: 582893855 heartbeat IPC: 0.350091 cumulative IPC: 0.349865 (Simulation time: 0 hr 11 min 42 sec) 
Heartbeat CPU 0 instructions: 290000000 cycles: 612155874 heartbeat IPC: 0.34174 cumulative IPC: 0.349427 (Simulation time: 0 hr 12 min 13 sec) 
Heartbeat CPU 0 instructions: 300000000 cycles: 643116101 heartbeat IPC: 0.322995 cumulative IPC: 0.348003 (Simulation time: 0 hr 12 min 43 sec) 
Heartbeat CPU 0 instructions: 310000001 cycles: 673245660 heartbeat IPC: 0.3319 cumulative IPC: 0.347201 (Simulation time: 0 hr 13 min 14 sec) 
Heartbeat CPU 0 instructions: 320000000 cycles: 702354745 heartbeat IPC: 0.343535 cumulative IPC: 0.347033 (Simulation time: 0 hr 13 min 43 sec) 
Heartbeat CPU 0 instructions: 330000000 cycles: 731634353 heartbeat IPC: 0.341535 cumulative IPC: 0.34679 (Simulation time: 0 hr 14 min 13 sec) 
Heartbeat CPU 0 instructions: 340000000 cycles: 761665868 heartbeat IPC: 0.332984 cumulative IPC: 0.346192 (Simulation time: 0 hr 14 min 44 sec) 
Heartbeat CPU 0 instructions: 350000003 cycles: 789179576 heartbeat IPC: 0.363455 cumulative IPC: 0.346851 (Simulation time: 0 hr 15 min 13 sec) 
Heartbeat CPU 0 instructions: 360000000 cycles: 819724986 heartbeat IPC: 0.327381 cumulative IPC: 0.346059 (Simulation time: 0 hr 15 min 43 sec) 
Heartbeat CPU 0 instructions: 370000000 cycles: 850384994 heartbeat IPC: 0.326158 cumulative IPC: 0.345279 (Simulation time: 0 hr 16 min 13 sec) 
Heartbeat CPU 0 instructions: 380000000 cycles: 881425777 heartbeat IPC: 0.322157 cumulative IPC: 0.344396 (Simulation time: 0 hr 16 min 43 sec) 
Heartbeat CPU 0 instructions: 390000001 cycles: 911614983 heartbeat IPC: 0.331244 cumulative IPC: 0.343925 (Simulation time: 0 hr 17 min 12 sec) 
Heartbeat CPU 0 instructions: 400000000 cycles: 942702793 heartbeat IPC: 0.321669 cumulative IPC: 0.343134 (Simulation time: 0 hr 17 min 42 sec) 
Heartbeat CPU 0 instructions: 410000001 cycles: 972625866 heartbeat IPC: 0.33419 cumulative IPC: 0.342838 (Simulation time: 0 hr 18 min 12 sec) 
Heartbeat CPU 0 instructions: 420000000 cycles: 1002559833 heartbeat IPC: 0.334069 cumulative IPC: 0.342557 (Simulation time: 0 hr 18 min 41 sec) 
Heartbeat CPU 0 instructions: 430000002 cycles: 1032907328 heartbeat IPC: 0.329517 cumulative IPC: 0.342147 (Simulation time: 0 hr 19 min 10 sec) 
Heartbeat CPU 0 instructions: 440000000 cycles: 1064411163 heartbeat IPC: 0.317422 cumulative IPC: 0.341365 (Simulation time: 0 hr 19 min 39 sec) 
Heartbeat CPU 0 instructions: 450000002 cycles: 1095788848 heartbeat IPC: 0.318698 cumulative IPC: 0.340672 (Simulation time: 0 hr 20 min 9 sec) 
Heartbeat CPU 0 instructions: 460000000 cycles: 1126065730 heartbeat IPC: 0.330285 cumulative IPC: 0.340375 (Simulation time: 0 hr 20 min 38 sec) 
Heartbeat CPU 0 instructions: 470000000 cycles: 1155980344 heartbeat IPC: 0.334285 cumulative IPC: 0.340208 (Simulation time: 0 hr 21 min 6 sec) 
Heartbeat CPU 0 instructions: 480000000 cycles: 1186145980 heartbeat IPC: 0.331503 cumulative IPC: 0.339973 (Simulation time: 0 hr 21 min 35 sec) 
Heartbeat CPU 0 instructions: 490000000 cycles: 1216052839 heartbeat IPC: 0.334371 cumulative IPC: 0.339827 (Simulation time: 0 hr 22 min 3 sec) 
Heartbeat CPU 0 instructions: 500000000 cycles: 1246335540 heartbeat IPC: 0.330222 cumulative IPC: 0.33958 (Simulation time: 0 hr 22 min 32 sec) 
Heartbeat CPU 0 instructions: 510000000 cycles: 1282053873 heartbeat IPC: 0.279968 cumulative IPC: 0.337825 (Simulation time: 0 hr 23 min 4 sec) 
Heartbeat CPU 0 instructions: 520000000 cycles: 1310721650 heartbeat IPC: 0.348824 cumulative IPC: 0.338079 (Simulation time: 0 hr 23 min 33 sec) 
Heartbeat CPU 0 instructions: 530000001 cycles: 1341973228 heartbeat IPC: 0.319984 cumulative IPC: 0.337635 (Simulation time: 0 hr 24 min 3 sec) 
Heartbeat CPU 0 instructions: 540000000 cycles: 1371521851 heartbeat IPC: 0.338425 cumulative IPC: 0.337653 (Simulation time: 0 hr 24 min 32 sec) 
Heartbeat CPU 0 instructions: 550000001 cycles: 1401348632 heartbeat IPC: 0.335269 cumulative IPC: 0.3376 (Simulation time: 0 hr 25 min 2 sec) 
Heartbeat CPU 0 instructions: 560000000 cycles: 1427363662 heartbeat IPC: 0.384393 cumulative IPC: 0.338495 (Simulation time: 0 hr 25 min 31 sec) 
Heartbeat CPU 0 instructions: 570000000 cycles: 1458342113 heartbeat IPC: 0.322805 cumulative IPC: 0.338146 (Simulation time: 0 hr 26 min 0 sec) 
Heartbeat CPU 0 instructions: 580000000 cycles: 1487486581 heartbeat IPC: 0.343118 cumulative IPC: 0.338248 (Simulation time: 0 hr 26 min 30 sec) 
Heartbeat CPU 0 instructions: 590000001 cycles: 1513154083 heartbeat IPC: 0.389598 cumulative IPC: 0.33916 (Simulation time: 0 hr 26 min 57 sec) 
Heartbeat CPU 0 instructions: 600000000 cycles: 1540905590 heartbeat IPC: 0.360341 cumulative IPC: 0.339559 (Simulation time: 0 hr 27 min 26 sec) 
Finished CPU 0 instructions: 500000000 cycles: 1472496548 cumulative IPC: 0.339559 (Simulation time: 0 hr 27 min 26 sec) 

CPU 0 Branch Prediction Accuracy: 86.4311% MPKI: 26.2662
Number of Branches: 96788573 Number of Mispredictions: 13133102
Number of LOAD Instructions: 164682285
Number of LOAD Instructions (ROI): 164682285
Number of STORE Instructions: 78194750
Number of STORE Instructions (ROI): 78194750
Total Destination Memory Operands: 83268534
Total Destination Memory Operands (ROI): 83268534
Total Source Memory Operands: 164712438
Total Source Memory Operands (ROI): 164712438
Number of DEPENDED LOADS: 7066649
Number of DEPENDED LOADS (ROI): 7066649
Number of SQ_ADDED: 83268522
Number of SQ_ADDED (ROI): 83268522
Number of LQ_ADDED: 236355083
Number of LQ_ADDED (ROI): 236355083
Number of Instructions read from trace: 600000066

ChampSim completed all CPUs

Region of Interest Statistics

CPU 0 cumulative IPC: 0.339559 instructions: 500000000 cycles: 1472496548
ITLB TOTAL     ACCESS:  100505889  HIT:  100301443  MISS:     204446
ITLB LOAD      ACCESS:  100505889  HIT:  100301443  MISS:     204446
ITLB RFO       ACCESS:          0  HIT:          0  MISS:          0
ITLB PREFETCH  ACCESS:          0  HIT:          0  MISS:          0
ITLB WRITEBACK ACCESS:          0  HIT:          0  MISS:          0
ITLB PREFETCH  REQUESTED:          0  ISSUED:          0  USEFUL:          0  USELESS:          0
ITLB TOTAL MSHR MERGED:     172424
ITLB LOAD MSHR MERGED:     172424
ITLB RFO MSHR MERGED:          0
ITLB PREFETCH MSHR MERGED:          0
ITLB WRITEBACK MSHR MERGED:          0
ITLB TOTAL ACCESSES:  100678313 HITS:  100301443 MISSES:     376870
ITLB LOAD ACCESSES:  100678313 HITS:  100301443 MISSES:     376870
ITLB RFO ACCESSES:          0 HITS:          0 MISSES:          0
ITLB PREFETCH ACCESSES:          0 HITS:          0 MISSES:          0
ITLB WRITEBACK ACCESSES:          0 HITS:          0 MISSES:          0
ITLB RQ ACCESS:  500000057
ITLB RQ TO_CACHE:  100678313
ITLB RQ MERGED:  399321744
ITLB RQ FORWARD:          0
ITLB WQ ACCESS:          0
ITLB WQ TO_CACHE:          0
ITLB WQ MERGED:          0
ITLB WQ FORWARD:          0
DTLB TOTAL     ACCESS:  165342681  HIT:  164708333  MISS:     634348
DTLB LOAD      ACCESS:  106295011  HIT:  105724982  MISS:     570029
DTLB RFO       ACCESS:   59047670  HIT:   58983351  MISS:      64319
DTLB PREFETCH  ACCESS:          0  HIT:          0  MISS:          0
DTLB WRITEBACK ACCESS:          0  HIT:          0  MISS:          0
DTLB PREFETCH  REQUESTED:          0  ISSUED:          0  USEFUL:          0  USELESS:          0
DTLB TOTAL MSHR MERGED:      99480
DTLB LOAD MSHR MERGED:      59215
DTLB RFO MSHR MERGED:      40265
DTLB PREFETCH MSHR MERGED:          0
DTLB WRITEBACK MSHR MERGED:          0
DTLB TOTAL ACCESSES:  165442161 HITS:  164708333 MISSES:     733828
DTLB LOAD ACCESSES:  106354226 HITS:  105724982 MISSES:     629244
DTLB RFO ACCESSES:   59087935 HITS:   58983351 MISSES:     104584
DTLB PREFETCH ACCESSES:          0 HITS:          0 MISSES:          0
DTLB WRITEBACK ACCESSES:          0 HITS:          0 MISSES:          0
DTLB RQ ACCESS:  200304260
DTLB RQ TO_CACHE:  165442161
DTLB RQ MERGED:   34862099
DTLB RQ FORWARD:          0
DTLB WQ ACCESS:          0
DTLB WQ TO_CACHE:          0
DTLB WQ MERGED:          0
DTLB WQ FORWARD:          0
L1D TOTAL     ACCESS:  281842381  HIT:  273932973  MISS:    7909408
L1D LOAD      ACCESS:  110431573  HIT:  107157019  MISS:    3274554
L1D RFO       ACCESS:   67087883  HIT:   66195729  MISS:     892154
L1D PREFETCH  ACCESS:  104322925  HIT:  100580225  MISS:    3742700
L1D WRITEBACK ACCESS:          0  HIT:          0  MISS:          0
L1D PREFETCH  REQUESTED:  110822449  ISSUED:  109122924  USEFUL:    1663527  USELESS:    2079137
L1D TOTAL MSHR MERGED:    2879381
L1D LOAD MSHR MERGED:     485332
L1D RFO MSHR MERGED:    1899327
L1D PREFETCH MSHR MERGED:     494722
L1D WRITEBACK MSHR MERGED:          0
L1D TOTAL ACCESSES:  284749329 HITS:  273960540 MISSES:   10788789
L1D LOAD ACCESSES:  110824038 HITS:  107158608 MISSES:    3665430
L1D RFO ACCESSES:   68973754 HITS:   66195729 MISSES:    2778025
L1D PREFETCH ACCESSES:  104951537 HITS:  100606203 MISSES:    4345334
L1D WRITEBACK ACCESSES:          0 HITS:          0 MISSES:          0
L1D RQ ACCESS:  130751657
L1D RQ TO_CACHE:  110822452
L1D RQ MERGED:   19927616
L1D RQ FORWARD:          0
L1D WQ ACCESS:   69552603
L1D WQ TO_CACHE:   68973755
L1D WQ MERGED:     578848
L1D WQ FORWARD:      27567
L1I TOTAL     ACCESS:  126549684  HIT:  122311160  MISS:    4238524
L1I LOAD      ACCESS:  126549684  HIT:  122311160  MISS:    4238524
L1I RFO       ACCESS:          0  HIT:          0  MISS:          0
L1I PREFETCH  ACCESS:          0  HIT:          0  MISS:          0
L1I WRITEBACK ACCESS:          0  HIT:          0  MISS:          0
L1I PREFETCH  REQUESTED:          0  ISSUED:          0  USEFUL:          0  USELESS:          0
L1I TOTAL MSHR MERGED:    1838894
L1I LOAD MSHR MERGED:    1838894
L1I RFO MSHR MERGED:          0
L1I PREFETCH MSHR MERGED:          0
L1I WRITEBACK MSHR MERGED:          0
L1I TOTAL ACCESSES:  128388581 HITS:  122311160 MISSES:    6077421
L1I LOAD ACCESSES:  128388581 HITS:  122311160 MISSES:    6077421
L1I RFO ACCESSES:          0 HITS:          0 MISSES:          0
L1I PREFETCH ACCESSES:          0 HITS:          0 MISSES:          0
L1I WRITEBACK ACCESSES:          0 HITS:          0 MISSES:          0
L1I RQ ACCESS:  500000057
L1I RQ TO_CACHE:  128388581
L1I RQ MERGED:  371611476
L1I RQ FORWARD:          0
L1I WQ ACCESS:          0
L1I WQ TO_CACHE:          0
L1I WQ MERGED:          0
L1I WQ FORWARD:          0
L2C TOTAL     ACCESS:   14903656  HIT:   11157173  MISS:    3746483
L2C LOAD      ACCESS:    7418420  HIT:    5098171  MISS:    2320249
L2C RFO       ACCESS:     878602  HIT:     409905  MISS:     468697
L2C PREFETCH  ACCESS:    4567373  HIT:    3627093  MISS:     940280
L2C WRITEBACK ACCESS:    2039261  HIT:    2022004  MISS:      17257
L2C PREFETCH  REQUESTED:     842626  ISSUED:     842626  USEFUL:     202950  USELESS:     737035
L2C TOTAL MSHR MERGED:       8535
L2C LOAD MSHR MERGED:       1246
L2C RFO MSHR MERGED:          1
L2C PREFETCH MSHR MERGED:       7288
L2C WRITEBACK MSHR MERGED:          0
L2C TOTAL ACCESSES:   14913142 HITS:   11157618 MISSES:    3755524
L2C LOAD ACCESSES:    7418622 HITS:    5098373 MISSES:    2320249
L2C RFO ACCESSES:     878698 HITS:     410001 MISSES:     468697
L2C PREFETCH ACCESSES:    4576561 HITS:    3627240 MISSES:     949321
L2C WRITEBACK ACCESSES:    2039261 HITS:    2022004 MISSES:      17257
L2C RQ ACCESS:    8297323
L2C RQ TO_CACHE:    8297025
L2C RQ MERGED:          0
L2C RQ FORWARD:          0
L2C WQ ACCESS:    2039261
L2C WQ TO_CACHE:    2039261
L2C WQ MERGED:          0
L2C WQ FORWARD:        445
LLC TOTAL     ACCESS:    4609851  HIT:    3301214  MISS:    1308637
LLC LOAD      ACCESS:    2318990  HIT:    1459961  MISS:     859029
LLC RFO       ACCESS:     468686  HIT:     335761  MISS:     132925
LLC PREFETCH  ACCESS:     941886  HIT:     696937  MISS:     244949
LLC WRITEBACK ACCESS:     880289  HIT:     808555  MISS:      71734
LLC PREFETCH  REQUESTED:          0  ISSUED:          0  USEFUL:      39761  USELESS:     200606
LLC TOTAL MSHR MERGED:        128
LLC LOAD MSHR MERGED:         46
LLC RFO MSHR MERGED:          0
LLC PREFETCH MSHR MERGED:         82
LLC WRITEBACK MSHR MERGED:          0
LLC TOTAL ACCESSES:    4610017 HITS:    3301252 MISSES:    1308765
LLC LOAD ACCESSES:    2319003 HITS:    1459974 MISSES:     859029
LLC RFO ACCESSES:     468696 HITS:     335771 MISSES:     132925
LLC PREFETCH ACCESSES:     942029 HITS:     696952 MISSES:     245077
LLC WRITEBACK ACCESSES:     880289 HITS:     808555 MISSES:      71734
LLC 0 RQ ACCESS:    2787699
LLC 0 RQ TO_CACHE:    2787676
LLC 0 RQ MERGED:          0
LLC 0 RQ FORWARD:          0
LLC WQ ACCESS:     880289
LLC WQ TO_CACHE:     880289
LLC WQ MERGED:          0
LLC WQ FORWARD:         38
Major fault: 0 Minor fault: 12862
CPU 0 L1D next line prefetcher final stats
CPU 0 L2C PC-based stride prefetcher final stats
All Misses: 1510277
All Hits: 3916578
SD Algo Stats - Switches: 0 SRR-Repls: 984070 BRR-Repls: 0

DRAM Statistics
 CHANNEL 0
 RQ ROW_BUFFER_HIT:     378604  ROW_BUFFER_MISS:     855065
 DBUS_CONGESTED:     594871
 WQ ROW_BUFFER_HIT:      29397  ROW_BUFFER_MISS:     298888  FULL:          0

 AVG_CONGESTED_CYCLE: 13
LOADS RETIRED: 136549171
INSTR RETIRED: 500000000
