
*** ChampSim Multicore Out-of-Order Simulator ***

Warmup Instructions: 100000000
Simulation Instructions: 500000000
Number of CPUs: 1
LLC sets: 2048
LLC ways: 16
Clean RRIP Policies: 1013010110130101 Dirty RRIP Policies: 1013010110130101 PSEL Width: 10 Track Set: 4294967295 PSEL Mask: 1 Demote Mask: 4010114440101144DS Algo: 0Window size: 0
Off-chip DRAM Size: 4096 MB Channels: 1 Width: 64-bit Data Rate: 1600 MT/s

CPU 0 runs /mnt/beegfs/iconst01/spec2017/Gcc.trace.gz
NOT SORTED
TRACE STRING: /mnt/beegfs/iconst01/spec2017/Gcc.trace.gz
SORTED
TRACE STRING: /mnt/beegfs/iconst01/spec2017/Gcc.trace.gz
INITIAL
TRACE STRING: /mnt/beegfs/iconst01/spec2017/Gcc.trace.gz

champsim_seed used: 269

CPU 0 L1D next line prefetcher
CPU 0 L2C IP-based stride prefetcher
Initialize DRRIP state
Assign rand_sets[0]: 454  LLC: 2048
rand_sets[0]: 454
Assign rand_sets[1]: 1662  LLC: 2048
rand_sets[1]: 1662
Assign rand_sets[2]: 1921  LLC: 2048
rand_sets[2]: 1921
Assign rand_sets[3]: 1131  LLC: 2048
rand_sets[3]: 1131
Assign rand_sets[4]: 331  LLC: 2048
rand_sets[4]: 331
Assign rand_sets[5]: 1531  LLC: 2048
rand_sets[5]: 1531
Assign rand_sets[6]: 482  LLC: 2048
rand_sets[6]: 482
Assign rand_sets[7]: 1275  LLC: 2048
rand_sets[7]: 1275
Assign rand_sets[8]: 1876  LLC: 2048
rand_sets[8]: 1876
Assign rand_sets[9]: 2038  LLC: 2048
rand_sets[9]: 2038
Assign rand_sets[10]: 701  LLC: 2048
rand_sets[10]: 701
Assign rand_sets[11]: 479  LLC: 2048
rand_sets[11]: 479
Assign rand_sets[12]: 892  LLC: 2048
rand_sets[12]: 892
Assign rand_sets[13]: 1820  LLC: 2048
rand_sets[13]: 1820
Assign rand_sets[14]: 1505  LLC: 2048
rand_sets[14]: 1505
Assign rand_sets[15]: 1159  LLC: 2048
rand_sets[15]: 1159
Assign rand_sets[16]: 513  LLC: 2048
rand_sets[16]: 513
Assign rand_sets[17]: 703  LLC: 2048
rand_sets[17]: 703
Assign rand_sets[18]: 561  LLC: 2048
rand_sets[18]: 561
Assign rand_sets[19]: 990  LLC: 2048
rand_sets[19]: 990
Assign rand_sets[20]: 342  LLC: 2048
rand_sets[20]: 342
Assign rand_sets[21]: 882  LLC: 2048
rand_sets[21]: 882
Assign rand_sets[22]: 15  LLC: 2048
rand_sets[22]: 15
Assign rand_sets[23]: 71  LLC: 2048
rand_sets[23]: 71
Assign rand_sets[24]: 1127  LLC: 2048
rand_sets[24]: 1127
Assign rand_sets[25]: 1382  LLC: 2048
rand_sets[25]: 1382
Assign rand_sets[26]: 647  LLC: 2048
rand_sets[26]: 647
Assign rand_sets[27]: 857  LLC: 2048
rand_sets[27]: 857
Assign rand_sets[28]: 1450  LLC: 2048
rand_sets[28]: 1450
Assign rand_sets[29]: 1160  LLC: 2048
rand_sets[29]: 1160
Assign rand_sets[30]: 1852  LLC: 2048
rand_sets[30]: 1852
Assign rand_sets[31]: 1881  LLC: 2048
rand_sets[31]: 1881
Assign rand_sets[32]: 1770  LLC: 2048
rand_sets[32]: 1770
Assign rand_sets[33]: 1622  LLC: 2048
rand_sets[33]: 1622
Assign rand_sets[34]: 275  LLC: 2048
rand_sets[34]: 275
Assign rand_sets[35]: 635  LLC: 2048
rand_sets[35]: 635
Assign rand_sets[36]: 466  LLC: 2048
rand_sets[36]: 466
Assign rand_sets[37]: 1413  LLC: 2048
rand_sets[37]: 1413
Assign rand_sets[38]: 417  LLC: 2048
rand_sets[38]: 417
Assign rand_sets[39]: 472  LLC: 2048
rand_sets[39]: 472
Assign rand_sets[40]: 1340  LLC: 2048
rand_sets[40]: 1340
Assign rand_sets[41]: 852  LLC: 2048
rand_sets[41]: 852
Assign rand_sets[42]: 1365  LLC: 2048
rand_sets[42]: 1365
Assign rand_sets[43]: 47  LLC: 2048
rand_sets[43]: 47
Assign rand_sets[44]: 823  LLC: 2048
rand_sets[44]: 823
Assign rand_sets[45]: 686  LLC: 2048
rand_sets[45]: 686
Assign rand_sets[46]: 1637  LLC: 2048
rand_sets[46]: 1637
Assign rand_sets[47]: 1115  LLC: 2048
rand_sets[47]: 1115
Assign rand_sets[48]: 986  LLC: 2048
rand_sets[48]: 986
Assign rand_sets[49]: 258  LLC: 2048
rand_sets[49]: 258
Assign rand_sets[50]: 633  LLC: 2048
rand_sets[50]: 633
Assign rand_sets[51]: 920  LLC: 2048
rand_sets[51]: 920
Assign rand_sets[52]: 204  LLC: 2048
rand_sets[52]: 204
Assign rand_sets[53]: 227  LLC: 2048
rand_sets[53]: 227
Assign rand_sets[54]: 1818  LLC: 2048
rand_sets[54]: 1818
Assign rand_sets[55]: 886  LLC: 2048
rand_sets[55]: 886
Assign rand_sets[56]: 1422  LLC: 2048
rand_sets[56]: 1422
Assign rand_sets[57]: 607  LLC: 2048
rand_sets[57]: 607
Assign rand_sets[58]: 217  LLC: 2048
rand_sets[58]: 217
Assign rand_sets[59]: 1945  LLC: 2048
rand_sets[59]: 1945
Assign rand_sets[60]: 143  LLC: 2048
rand_sets[60]: 143
Assign rand_sets[61]: 1311  LLC: 2048
rand_sets[61]: 1311
Assign rand_sets[62]: 319  LLC: 2048
rand_sets[62]: 319
Assign rand_sets[63]: 1846  LLC: 2048
rand_sets[63]: 1846
 CLEAN-RRIP-POLICY-1: 1-0-1-3-0-1-0-1- CLEAN-RRIP-POLICY-2: 1-0-1-3-0-1-0-1-
 DIRTY-RRIP-POLICY-1: 1-0-1-3-0-1-0-1- DIRTY-RRIP-POLICY-2: 1-0-1-3-0-1-0-1-
 PSEL width: 10
Heartbeat CPU 0 instructions: 10000001 cycles: 7315981 heartbeat IPC: 1.36687 cumulative IPC: 1.36687 (Simulation time: 0 hr 0 min 17 sec) 
Heartbeat CPU 0 instructions: 20000000 cycles: 14307465 heartbeat IPC: 1.43031 cumulative IPC: 1.39787 (Simulation time: 0 hr 0 min 35 sec) 
Heartbeat CPU 0 instructions: 30000001 cycles: 21020249 heartbeat IPC: 1.4897 cumulative IPC: 1.4272 (Simulation time: 0 hr 0 min 53 sec) 
Heartbeat CPU 0 instructions: 40000000 cycles: 27481005 heartbeat IPC: 1.54781 cumulative IPC: 1.45555 (Simulation time: 0 hr 1 min 12 sec) 
Heartbeat CPU 0 instructions: 50000001 cycles: 33582591 heartbeat IPC: 1.63892 cumulative IPC: 1.48887 (Simulation time: 0 hr 1 min 30 sec) 
Heartbeat CPU 0 instructions: 60000000 cycles: 40063690 heartbeat IPC: 1.54295 cumulative IPC: 1.49762 (Simulation time: 0 hr 1 min 49 sec) 
Heartbeat CPU 0 instructions: 70000000 cycles: 47100946 heartbeat IPC: 1.42101 cumulative IPC: 1.48617 (Simulation time: 0 hr 2 min 7 sec) 
Heartbeat CPU 0 instructions: 80000000 cycles: 54190245 heartbeat IPC: 1.41058 cumulative IPC: 1.47628 (Simulation time: 0 hr 2 min 24 sec) 
Heartbeat CPU 0 instructions: 90000003 cycles: 61194364 heartbeat IPC: 1.42773 cumulative IPC: 1.47072 (Simulation time: 0 hr 2 min 41 sec) 
Heartbeat CPU 0 instructions: 100000000 cycles: 68361296 heartbeat IPC: 1.3953 cumulative IPC: 1.46282 (Simulation time: 0 hr 2 min 58 sec) 

Warmup complete CPU 0 instructions: 100000004 cycles: 68361297 (Simulation time: 0 hr 2 min 58 sec) 

Heartbeat CPU 0 instructions: 110000003 cycles: 95935186 heartbeat IPC: 0.362662 cumulative IPC: 0.362662 (Simulation time: 0 hr 3 min 32 sec) 
Heartbeat CPU 0 instructions: 120000000 cycles: 123363013 heartbeat IPC: 0.364593 cumulative IPC: 0.363625 (Simulation time: 0 hr 4 min 7 sec) 
Heartbeat CPU 0 instructions: 130000000 cycles: 148316500 heartbeat IPC: 0.400746 cumulative IPC: 0.37521 (Simulation time: 0 hr 4 min 41 sec) 
Heartbeat CPU 0 instructions: 140000000 cycles: 177634629 heartbeat IPC: 0.341086 cumulative IPC: 0.366055 (Simulation time: 0 hr 5 min 14 sec) 
Heartbeat CPU 0 instructions: 150000000 cycles: 207417469 heartbeat IPC: 0.335764 cumulative IPC: 0.359567 (Simulation time: 0 hr 5 min 48 sec) 
Heartbeat CPU 0 instructions: 160000000 cycles: 234793072 heartbeat IPC: 0.365289 cumulative IPC: 0.360508 (Simulation time: 0 hr 6 min 21 sec) 
Heartbeat CPU 0 instructions: 170000001 cycles: 262750963 heartbeat IPC: 0.357681 cumulative IPC: 0.360101 (Simulation time: 0 hr 6 min 56 sec) 
Heartbeat CPU 0 instructions: 180000000 cycles: 291117994 heartbeat IPC: 0.352522 cumulative IPC: 0.359136 (Simulation time: 0 hr 7 min 31 sec) 
Heartbeat CPU 0 instructions: 190000002 cycles: 319022780 heartbeat IPC: 0.358362 cumulative IPC: 0.35905 (Simulation time: 0 hr 8 min 5 sec) 
Heartbeat CPU 0 instructions: 200000000 cycles: 347301562 heartbeat IPC: 0.353622 cumulative IPC: 0.3585 (Simulation time: 0 hr 8 min 40 sec) 
Heartbeat CPU 0 instructions: 210000002 cycles: 375057161 heartbeat IPC: 0.360288 cumulative IPC: 0.358662 (Simulation time: 0 hr 9 min 14 sec) 
Heartbeat CPU 0 instructions: 220000000 cycles: 404063129 heartbeat IPC: 0.344757 cumulative IPC: 0.35746 (Simulation time: 0 hr 9 min 47 sec) 
Heartbeat CPU 0 instructions: 230000000 cycles: 431535863 heartbeat IPC: 0.363997 cumulative IPC: 0.357955 (Simulation time: 0 hr 10 min 20 sec) 
Heartbeat CPU 0 instructions: 240000000 cycles: 457442428 heartbeat IPC: 0.386003 cumulative IPC: 0.359822 (Simulation time: 0 hr 10 min 52 sec) 
Heartbeat CPU 0 instructions: 250000000 cycles: 487497013 heartbeat IPC: 0.332728 cumulative IPC: 0.357879 (Simulation time: 0 hr 11 min 28 sec) 
Heartbeat CPU 0 instructions: 260000000 cycles: 514557255 heartbeat IPC: 0.369546 cumulative IPC: 0.358587 (Simulation time: 0 hr 12 min 1 sec) 
Heartbeat CPU 0 instructions: 270000003 cycles: 542873038 heartbeat IPC: 0.35316 cumulative IPC: 0.358263 (Simulation time: 0 hr 12 min 36 sec) 
Heartbeat CPU 0 instructions: 280000000 cycles: 570930679 heartbeat IPC: 0.356409 cumulative IPC: 0.358159 (Simulation time: 0 hr 13 min 11 sec) 
Heartbeat CPU 0 instructions: 290000000 cycles: 599716113 heartbeat IPC: 0.347398 cumulative IPC: 0.357576 (Simulation time: 0 hr 13 min 47 sec) 
Heartbeat CPU 0 instructions: 300000000 cycles: 629421135 heartbeat IPC: 0.336643 cumulative IPC: 0.356468 (Simulation time: 0 hr 14 min 20 sec) 
Heartbeat CPU 0 instructions: 310000001 cycles: 658714312 heartbeat IPC: 0.341376 cumulative IPC: 0.355719 (Simulation time: 0 hr 14 min 54 sec) 
Heartbeat CPU 0 instructions: 320000000 cycles: 686799978 heartbeat IPC: 0.356053 cumulative IPC: 0.355735 (Simulation time: 0 hr 15 min 27 sec) 
Heartbeat CPU 0 instructions: 330000000 cycles: 715348412 heartbeat IPC: 0.350282 cumulative IPC: 0.355494 (Simulation time: 0 hr 16 min 1 sec) 
Heartbeat CPU 0 instructions: 340000000 cycles: 744544632 heartbeat IPC: 0.34251 cumulative IPC: 0.354933 (Simulation time: 0 hr 16 min 35 sec) 
Heartbeat CPU 0 instructions: 350000003 cycles: 771502161 heartbeat IPC: 0.370954 cumulative IPC: 0.355548 (Simulation time: 0 hr 17 min 8 sec) 
Heartbeat CPU 0 instructions: 360000000 cycles: 799529971 heartbeat IPC: 0.356788 cumulative IPC: 0.355595 (Simulation time: 0 hr 17 min 41 sec) 
Heartbeat CPU 0 instructions: 370000000 cycles: 827692892 heartbeat IPC: 0.355077 cumulative IPC: 0.355576 (Simulation time: 0 hr 18 min 13 sec) 
Heartbeat CPU 0 instructions: 380000000 cycles: 856182151 heartbeat IPC: 0.351009 cumulative IPC: 0.355411 (Simulation time: 0 hr 18 min 45 sec) 
Heartbeat CPU 0 instructions: 390000001 cycles: 883784109 heartbeat IPC: 0.362293 cumulative IPC: 0.355644 (Simulation time: 0 hr 19 min 18 sec) 
Heartbeat CPU 0 instructions: 400000000 cycles: 912403789 heartbeat IPC: 0.34941 cumulative IPC: 0.355432 (Simulation time: 0 hr 19 min 50 sec) 
Heartbeat CPU 0 instructions: 410000001 cycles: 939707171 heartbeat IPC: 0.366255 cumulative IPC: 0.355771 (Simulation time: 0 hr 20 min 22 sec) 
Heartbeat CPU 0 instructions: 420000000 cycles: 967025718 heartbeat IPC: 0.366052 cumulative IPC: 0.356084 (Simulation time: 0 hr 20 min 55 sec) 
Heartbeat CPU 0 instructions: 430000002 cycles: 994694726 heartbeat IPC: 0.361415 cumulative IPC: 0.356243 (Simulation time: 0 hr 21 min 27 sec) 
Heartbeat CPU 0 instructions: 440000000 cycles: 1024148927 heartbeat IPC: 0.33951 cumulative IPC: 0.355728 (Simulation time: 0 hr 22 min 0 sec) 
Heartbeat CPU 0 instructions: 450000002 cycles: 1053360524 heartbeat IPC: 0.34233 cumulative IPC: 0.35533 (Simulation time: 0 hr 22 min 32 sec) 
Heartbeat CPU 0 instructions: 460000000 cycles: 1081040389 heartbeat IPC: 0.361273 cumulative IPC: 0.355493 (Simulation time: 0 hr 23 min 5 sec) 
Heartbeat CPU 0 instructions: 470000000 cycles: 1108673926 heartbeat IPC: 0.361879 cumulative IPC: 0.355662 (Simulation time: 0 hr 23 min 37 sec) 
Heartbeat CPU 0 instructions: 480000000 cycles: 1136555663 heartbeat IPC: 0.358658 cumulative IPC: 0.35574 (Simulation time: 0 hr 24 min 9 sec) 
Heartbeat CPU 0 instructions: 490000000 cycles: 1164148562 heartbeat IPC: 0.362412 cumulative IPC: 0.355908 (Simulation time: 0 hr 24 min 42 sec) 
Heartbeat CPU 0 instructions: 500000000 cycles: 1192415953 heartbeat IPC: 0.353765 cumulative IPC: 0.355855 (Simulation time: 0 hr 25 min 14 sec) 
Heartbeat CPU 0 instructions: 510000000 cycles: 1227609511 heartbeat IPC: 0.284143 cumulative IPC: 0.353677 (Simulation time: 0 hr 25 min 51 sec) 
Heartbeat CPU 0 instructions: 520000000 cycles: 1255586998 heartbeat IPC: 0.35743 cumulative IPC: 0.353766 (Simulation time: 0 hr 26 min 25 sec) 
Heartbeat CPU 0 instructions: 530000001 cycles: 1284770494 heartbeat IPC: 0.342659 cumulative IPC: 0.353499 (Simulation time: 0 hr 26 min 59 sec) 
Heartbeat CPU 0 instructions: 540000000 cycles: 1312741908 heartbeat IPC: 0.357508 cumulative IPC: 0.35359 (Simulation time: 0 hr 27 min 32 sec) 
Heartbeat CPU 0 instructions: 550000001 cycles: 1341901261 heartbeat IPC: 0.342943 cumulative IPC: 0.353346 (Simulation time: 0 hr 28 min 8 sec) 
Heartbeat CPU 0 instructions: 560000000 cycles: 1367235966 heartbeat IPC: 0.394715 cumulative IPC: 0.354153 (Simulation time: 0 hr 28 min 41 sec) 
Heartbeat CPU 0 instructions: 570000000 cycles: 1396569224 heartbeat IPC: 0.34091 cumulative IPC: 0.35386 (Simulation time: 0 hr 29 min 15 sec) 
Heartbeat CPU 0 instructions: 580000000 cycles: 1424434832 heartbeat IPC: 0.358865 cumulative IPC: 0.353963 (Simulation time: 0 hr 29 min 49 sec) 
Heartbeat CPU 0 instructions: 590000001 cycles: 1449182607 heartbeat IPC: 0.404077 cumulative IPC: 0.354861 (Simulation time: 0 hr 30 min 21 sec) 
Heartbeat CPU 0 instructions: 600000000 cycles: 1475284314 heartbeat IPC: 0.383117 cumulative IPC: 0.355385 (Simulation time: 0 hr 30 min 53 sec) 
Finished CPU 0 instructions: 500000000 cycles: 1406923039 cumulative IPC: 0.355385 (Simulation time: 0 hr 30 min 53 sec) 

CPU 0 Branch Prediction Accuracy: 86.4311% MPKI: 26.2662
Number of Branches: 96788573 Number of Mispredictions: 13133102
Number of LOAD Instructions: 164682285
Number of LOAD Instructions (ROI): 164682285
Number of STORE Instructions: 78194750
Number of STORE Instructions (ROI): 78194750
Total Destination Memory Operands: 83268534
Total Destination Memory Operands (ROI): 83268534
Total Source Memory Operands: 164712438
Total Source Memory Operands (ROI): 164712438
Number of DEPENDED LOADS: 7061763
Number of DEPENDED LOADS (ROI): 7061763
Number of SQ_ADDED: 83268522
Number of SQ_ADDED (ROI): 83268522
Number of LQ_ADDED: 236680478
Number of LQ_ADDED (ROI): 236680478
Number of Instructions read from trace: 600000066

ChampSim completed all CPUs

Region of Interest Statistics

CPU 0 cumulative IPC: 0.355385 instructions: 500000000 cycles: 1406923039
ITLB TOTAL     ACCESS:  100509128  HIT:  100304682  MISS:     204446
ITLB LOAD      ACCESS:  100509128  HIT:  100304682  MISS:     204446
ITLB RFO       ACCESS:          0  HIT:          0  MISS:          0
ITLB PREFETCH  ACCESS:          0  HIT:          0  MISS:          0
ITLB WRITEBACK ACCESS:          0  HIT:          0  MISS:          0
ITLB PREFETCH  REQUESTED:          0  ISSUED:          0  USEFUL:          0  USELESS:          0
ITLB TOTAL MSHR MERGED:     172424
ITLB LOAD MSHR MERGED:     172424
ITLB RFO MSHR MERGED:          0
ITLB PREFETCH MSHR MERGED:          0
ITLB WRITEBACK MSHR MERGED:          0
ITLB TOTAL ACCESSES:  100681552 HITS:  100304682 MISSES:     376870
ITLB LOAD ACCESSES:  100681552 HITS:  100304682 MISSES:     376870
ITLB RFO ACCESSES:          0 HITS:          0 MISSES:          0
ITLB PREFETCH ACCESSES:          0 HITS:          0 MISSES:          0
ITLB WRITEBACK ACCESSES:          0 HITS:          0 MISSES:          0
ITLB RQ ACCESS:  500000057
ITLB RQ TO_CACHE:  100681552
ITLB RQ MERGED:  399318505
ITLB RQ FORWARD:          0
ITLB WQ ACCESS:          0
ITLB WQ TO_CACHE:          0
ITLB WQ MERGED:          0
ITLB WQ FORWARD:          0
DTLB TOTAL     ACCESS:  165333884  HIT:  164699537  MISS:     634347
DTLB LOAD      ACCESS:  106290228  HIT:  105720243  MISS:     569985
DTLB RFO       ACCESS:   59043656  HIT:   58979294  MISS:      64362
DTLB PREFETCH  ACCESS:          0  HIT:          0  MISS:          0
DTLB WRITEBACK ACCESS:          0  HIT:          0  MISS:          0
DTLB PREFETCH  REQUESTED:          0  ISSUED:          0  USEFUL:          0  USELESS:          0
DTLB TOTAL MSHR MERGED:     100011
DTLB LOAD MSHR MERGED:      59473
DTLB RFO MSHR MERGED:      40538
DTLB PREFETCH MSHR MERGED:          0
DTLB WRITEBACK MSHR MERGED:          0
DTLB TOTAL ACCESSES:  165433895 HITS:  164699537 MISSES:     734358
DTLB LOAD ACCESSES:  106349701 HITS:  105720243 MISSES:     629458
DTLB RFO ACCESSES:   59084194 HITS:   58979294 MISSES:     104900
DTLB PREFETCH ACCESSES:          0 HITS:          0 MISSES:          0
DTLB WRITEBACK ACCESSES:          0 HITS:          0 MISSES:          0
DTLB RQ ACCESS:  200309142
DTLB RQ TO_CACHE:  165433895
DTLB RQ MERGED:   34875247
DTLB RQ FORWARD:          0
DTLB WQ ACCESS:          0
DTLB WQ TO_CACHE:          0
DTLB WQ MERGED:          0
DTLB WQ FORWARD:          0
L1D TOTAL     ACCESS:  281811893  HIT:  273902596  MISS:    7909297
L1D LOAD      ACCESS:  110413594  HIT:  107135161  MISS:    3278433
L1D RFO       ACCESS:   67107364  HIT:   66216370  MISS:     890994
L1D PREFETCH  ACCESS:  104290935  HIT:  100551065  MISS:    3739870
L1D WRITEBACK ACCESS:          0  HIT:          0  MISS:          0
L1D PREFETCH  REQUESTED:  110814656  ISSUED:  109115388  USEFUL:    1660657  USELESS:    2079177
L1D TOTAL MSHR MERGED:    2887285
L1D LOAD MSHR MERGED:     498932
L1D RFO MSHR MERGED:    1878928
L1D PREFETCH MSHR MERGED:     509425
L1D WRITEBACK MSHR MERGED:          0
L1D TOTAL ACCESSES:  284726671 HITS:  273930089 MISSES:   10796582
L1D LOAD ACCESSES:  110816142 HITS:  107136647 MISSES:    3679495
L1D RFO ACCESSES:   68974102 HITS:   66216370 MISSES:    2757732
L1D PREFETCH ACCESSES:  104936427 HITS:  100577072 MISSES:    4359355
L1D WRITEBACK ACCESSES:          0 HITS:          0 MISSES:          0
L1D RQ ACCESS:  130756539
L1D RQ TO_CACHE:  110814659
L1D RQ MERGED:   19940394
L1D RQ FORWARD:          0
L1D WQ ACCESS:   69552603
L1D WQ TO_CACHE:   68974103
L1D WQ MERGED:     578500
L1D WQ FORWARD:      27493
L1I TOTAL     ACCESS:  126556926  HIT:  122318373  MISS:    4238553
L1I LOAD      ACCESS:  126556926  HIT:  122318373  MISS:    4238553
L1I RFO       ACCESS:          0  HIT:          0  MISS:          0
L1I PREFETCH  ACCESS:          0  HIT:          0  MISS:          0
L1I WRITEBACK ACCESS:          0  HIT:          0  MISS:          0
L1I PREFETCH  REQUESTED:          0  ISSUED:          0  USEFUL:          0  USELESS:          0
L1I TOTAL MSHR MERGED:    1834391
L1I LOAD MSHR MERGED:    1834391
L1I RFO MSHR MERGED:          0
L1I PREFETCH MSHR MERGED:          0
L1I WRITEBACK MSHR MERGED:          0
L1I TOTAL ACCESSES:  128391320 HITS:  122318373 MISSES:    6072947
L1I LOAD ACCESSES:  128391320 HITS:  122318373 MISSES:    6072947
L1I RFO ACCESSES:          0 HITS:          0 MISSES:          0
L1I PREFETCH ACCESSES:          0 HITS:          0 MISSES:          0
L1I WRITEBACK ACCESSES:          0 HITS:          0 MISSES:          0
L1I RQ ACCESS:  500000057
L1I RQ TO_CACHE:  128391320
L1I RQ MERGED:  371608737
L1I RQ FORWARD:          0
L1I WQ ACCESS:          0
L1I WQ TO_CACHE:          0
L1I WQ MERGED:          0
L1I WQ FORWARD:          0
L2C TOTAL     ACCESS:   14904796  HIT:   11158407  MISS:    3746389
L2C LOAD      ACCESS:    7418910  HIT:    5098816  MISS:    2320094
L2C RFO       ACCESS:     878706  HIT:     409918  MISS:     468788
L2C PREFETCH  ACCESS:    4567949  HIT:    3627697  MISS:     940252
L2C WRITEBACK ACCESS:    2039231  HIT:    2021976  MISS:      17255
L2C PREFETCH  REQUESTED:     842681  ISSUED:     842681  USEFUL:     203274  USELESS:     736684
L2C TOTAL MSHR MERGED:       7362
L2C LOAD MSHR MERGED:        866
L2C RFO MSHR MERGED:          0
L2C PREFETCH MSHR MERGED:       6496
L2C WRITEBACK MSHR MERGED:          0
L2C TOTAL ACCESSES:   14913065 HITS:   11158852 MISSES:    3754213
L2C LOAD ACCESSES:    7419116 HITS:    5099022 MISSES:    2320094
L2C RFO ACCESSES:     878804 HITS:     410016 MISSES:     468788
L2C PREFETCH ACCESSES:    4575914 HITS:    3627838 MISSES:     948076
L2C WRITEBACK ACCESSES:    2039231 HITS:    2021976 MISSES:      17255
L2C RQ ACCESS:    8297923
L2C RQ TO_CACHE:    8297619
L2C RQ MERGED:          0
L2C RQ FORWARD:          0
L2C WQ ACCESS:    2039231
L2C WQ TO_CACHE:    2039231
L2C WQ MERGED:          0
L2C WQ FORWARD:        445
LLC TOTAL     ACCESS:    4609699  HIT:    3979986  MISS:     629713
LLC LOAD      ACCESS:    2319214  HIT:    2103283  MISS:     215931
LLC RFO       ACCESS:     468777  HIT:     388282  MISS:      80495
LLC PREFETCH  ACCESS:     941446  HIT:     643778  MISS:     297668
LLC WRITEBACK ACCESS:     880262  HIT:     844643  MISS:      35619
LLC PREFETCH  REQUESTED:          0  ISSUED:          0  USEFUL:      16770  USELESS:     281814
LLC TOTAL MSHR MERGED:        115
LLC LOAD MSHR MERGED:         39
LLC RFO MSHR MERGED:          0
LLC PREFETCH MSHR MERGED:         76
LLC WRITEBACK MSHR MERGED:          0
LLC TOTAL ACCESSES:    4609849 HITS:    3980021 MISSES:     629828
LLC LOAD ACCESSES:    2319228 HITS:    2103297 MISSES:     215931
LLC RFO ACCESSES:     468788 HITS:     388293 MISSES:      80495
LLC PREFETCH ACCESSES:     941571 HITS:     643788 MISSES:     297783
LLC WRITEBACK ACCESSES:     880262 HITS:     844643 MISSES:      35619
LLC 0 RQ ACCESS:    2788016
LLC 0 RQ TO_CACHE:    2787991
LLC 0 RQ MERGED:          0
LLC 0 RQ FORWARD:          0
LLC WQ ACCESS:     880262
LLC WQ TO_CACHE:     880262
LLC WQ MERGED:          0
LLC WQ FORWARD:         35
Major fault: 0 Minor fault: 12862
CPU 0 L1D next line prefetcher final stats
CPU 0 L2C PC-based stride prefetcher final stats
All Misses: 741903
All Hits: 4684802
SD Algo Stats - Switches: 0 SRR-Repls: 252735 BRR-Repls: 0

DRAM Statistics
 CHANNEL 0
 RQ ROW_BUFFER_HIT:     116166  ROW_BUFFER_MISS:     476760
 DBUS_CONGESTED:     386063
 WQ ROW_BUFFER_HIT:      18955  ROW_BUFFER_MISS:     200369  FULL:          0

 AVG_CONGESTED_CYCLE: 13
LOADS RETIRED: 136549171
INSTR RETIRED: 500000000
