
*** ChampSim Multicore Out-of-Order Simulator ***

Warmup Instructions: 100000000
Simulation Instructions: 500000000
Number of CPUs: 1
LLC sets: 2048
LLC ways: 16
Clean RRIP Policies: 2213230122132301 Dirty RRIP Policies: 2203130122031301 PSEL Width: 10 Track Set: 4294967295 PSEL Mask: 1 Demote Mask: 3044100030441000DS Algo: 0Window size: 0
Off-chip DRAM Size: 4096 MB Channels: 1 Width: 64-bit Data Rate: 1600 MT/s

CPU 0 runs /mnt/beegfs/iconst01/spec2017/Lbm.trace.gz
NOT SORTED
TRACE STRING: /mnt/beegfs/iconst01/spec2017/Lbm.trace.gz
SORTED
TRACE STRING: /mnt/beegfs/iconst01/spec2017/Lbm.trace.gz
INITIAL
TRACE STRING: /mnt/beegfs/iconst01/spec2017/Lbm.trace.gz

champsim_seed used: 283

CPU 0 L1D next line prefetcher
CPU 0 L2C IP-based stride prefetcher
Initialize DRRIP state
Assign rand_sets[0]: 454  LLC: 2048
rand_sets[0]: 454
Assign rand_sets[1]: 1662  LLC: 2048
rand_sets[1]: 1662
Assign rand_sets[2]: 1921  LLC: 2048
rand_sets[2]: 1921
Assign rand_sets[3]: 1131  LLC: 2048
rand_sets[3]: 1131
Assign rand_sets[4]: 331  LLC: 2048
rand_sets[4]: 331
Assign rand_sets[5]: 1531  LLC: 2048
rand_sets[5]: 1531
Assign rand_sets[6]: 482  LLC: 2048
rand_sets[6]: 482
Assign rand_sets[7]: 1275  LLC: 2048
rand_sets[7]: 1275
Assign rand_sets[8]: 1876  LLC: 2048
rand_sets[8]: 1876
Assign rand_sets[9]: 2038  LLC: 2048
rand_sets[9]: 2038
Assign rand_sets[10]: 701  LLC: 2048
rand_sets[10]: 701
Assign rand_sets[11]: 479  LLC: 2048
rand_sets[11]: 479
Assign rand_sets[12]: 892  LLC: 2048
rand_sets[12]: 892
Assign rand_sets[13]: 1820  LLC: 2048
rand_sets[13]: 1820
Assign rand_sets[14]: 1505  LLC: 2048
rand_sets[14]: 1505
Assign rand_sets[15]: 1159  LLC: 2048
rand_sets[15]: 1159
Assign rand_sets[16]: 513  LLC: 2048
rand_sets[16]: 513
Assign rand_sets[17]: 703  LLC: 2048
rand_sets[17]: 703
Assign rand_sets[18]: 561  LLC: 2048
rand_sets[18]: 561
Assign rand_sets[19]: 990  LLC: 2048
rand_sets[19]: 990
Assign rand_sets[20]: 342  LLC: 2048
rand_sets[20]: 342
Assign rand_sets[21]: 882  LLC: 2048
rand_sets[21]: 882
Assign rand_sets[22]: 15  LLC: 2048
rand_sets[22]: 15
Assign rand_sets[23]: 71  LLC: 2048
rand_sets[23]: 71
Assign rand_sets[24]: 1127  LLC: 2048
rand_sets[24]: 1127
Assign rand_sets[25]: 1382  LLC: 2048
rand_sets[25]: 1382
Assign rand_sets[26]: 647  LLC: 2048
rand_sets[26]: 647
Assign rand_sets[27]: 857  LLC: 2048
rand_sets[27]: 857
Assign rand_sets[28]: 1450  LLC: 2048
rand_sets[28]: 1450
Assign rand_sets[29]: 1160  LLC: 2048
rand_sets[29]: 1160
Assign rand_sets[30]: 1852  LLC: 2048
rand_sets[30]: 1852
Assign rand_sets[31]: 1881  LLC: 2048
rand_sets[31]: 1881
Assign rand_sets[32]: 1770  LLC: 2048
rand_sets[32]: 1770
Assign rand_sets[33]: 1622  LLC: 2048
rand_sets[33]: 1622
Assign rand_sets[34]: 275  LLC: 2048
rand_sets[34]: 275
Assign rand_sets[35]: 635  LLC: 2048
rand_sets[35]: 635
Assign rand_sets[36]: 466  LLC: 2048
rand_sets[36]: 466
Assign rand_sets[37]: 1413  LLC: 2048
rand_sets[37]: 1413
Assign rand_sets[38]: 417  LLC: 2048
rand_sets[38]: 417
Assign rand_sets[39]: 472  LLC: 2048
rand_sets[39]: 472
Assign rand_sets[40]: 1340  LLC: 2048
rand_sets[40]: 1340
Assign rand_sets[41]: 852  LLC: 2048
rand_sets[41]: 852
Assign rand_sets[42]: 1365  LLC: 2048
rand_sets[42]: 1365
Assign rand_sets[43]: 47  LLC: 2048
rand_sets[43]: 47
Assign rand_sets[44]: 823  LLC: 2048
rand_sets[44]: 823
Assign rand_sets[45]: 686  LLC: 2048
rand_sets[45]: 686
Assign rand_sets[46]: 1637  LLC: 2048
rand_sets[46]: 1637
Assign rand_sets[47]: 1115  LLC: 2048
rand_sets[47]: 1115
Assign rand_sets[48]: 986  LLC: 2048
rand_sets[48]: 986
Assign rand_sets[49]: 258  LLC: 2048
rand_sets[49]: 258
Assign rand_sets[50]: 633  LLC: 2048
rand_sets[50]: 633
Assign rand_sets[51]: 920  LLC: 2048
rand_sets[51]: 920
Assign rand_sets[52]: 204  LLC: 2048
rand_sets[52]: 204
Assign rand_sets[53]: 227  LLC: 2048
rand_sets[53]: 227
Assign rand_sets[54]: 1818  LLC: 2048
rand_sets[54]: 1818
Assign rand_sets[55]: 886  LLC: 2048
rand_sets[55]: 886
Assign rand_sets[56]: 1422  LLC: 2048
rand_sets[56]: 1422
Assign rand_sets[57]: 607  LLC: 2048
rand_sets[57]: 607
Assign rand_sets[58]: 217  LLC: 2048
rand_sets[58]: 217
Assign rand_sets[59]: 1945  LLC: 2048
rand_sets[59]: 1945
Assign rand_sets[60]: 143  LLC: 2048
rand_sets[60]: 143
Assign rand_sets[61]: 1311  LLC: 2048
rand_sets[61]: 1311
Assign rand_sets[62]: 319  LLC: 2048
rand_sets[62]: 319
Assign rand_sets[63]: 1846  LLC: 2048
rand_sets[63]: 1846
 CLEAN-RRIP-POLICY-1: 2-2-1-3-2-3-0-1- CLEAN-RRIP-POLICY-2: 2-2-1-3-2-3-0-1-
 DIRTY-RRIP-POLICY-1: 2-2-0-3-1-3-0-1- DIRTY-RRIP-POLICY-2: 2-2-0-3-1-3-0-1-
 PSEL width: 10
Heartbeat CPU 0 instructions: 10000000 cycles: 4321578 heartbeat IPC: 2.31397 cumulative IPC: 2.31397 (Simulation time: 0 hr 0 min 18 sec) 
Heartbeat CPU 0 instructions: 20000000 cycles: 8643609 heartbeat IPC: 2.31373 cumulative IPC: 2.31385 (Simulation time: 0 hr 0 min 36 sec) 
Heartbeat CPU 0 instructions: 30000000 cycles: 12965368 heartbeat IPC: 2.31387 cumulative IPC: 2.31386 (Simulation time: 0 hr 0 min 54 sec) 
Heartbeat CPU 0 instructions: 40000000 cycles: 17291155 heartbeat IPC: 2.31172 cumulative IPC: 2.31332 (Simulation time: 0 hr 1 min 12 sec) 
Heartbeat CPU 0 instructions: 50000000 cycles: 21613078 heartbeat IPC: 2.31378 cumulative IPC: 2.31341 (Simulation time: 0 hr 1 min 31 sec) 
Heartbeat CPU 0 instructions: 60000000 cycles: 25934885 heartbeat IPC: 2.31385 cumulative IPC: 2.31349 (Simulation time: 0 hr 1 min 49 sec) 
Heartbeat CPU 0 instructions: 70000000 cycles: 30256386 heartbeat IPC: 2.31401 cumulative IPC: 2.31356 (Simulation time: 0 hr 2 min 7 sec) 
Heartbeat CPU 0 instructions: 80000000 cycles: 34582620 heartbeat IPC: 2.31148 cumulative IPC: 2.3133 (Simulation time: 0 hr 2 min 26 sec) 
Heartbeat CPU 0 instructions: 90000003 cycles: 38904690 heartbeat IPC: 2.31371 cumulative IPC: 2.31335 (Simulation time: 0 hr 2 min 44 sec) 
Heartbeat CPU 0 instructions: 100000000 cycles: 43226152 heartbeat IPC: 2.31403 cumulative IPC: 2.31341 (Simulation time: 0 hr 3 min 3 sec) 

Warmup complete CPU 0 instructions: 100000001 cycles: 43226153 (Simulation time: 0 hr 3 min 3 sec) 

Heartbeat CPU 0 instructions: 110000000 cycles: 57578418 heartbeat IPC: 0.696754 cumulative IPC: 0.696754 (Simulation time: 0 hr 3 min 29 sec) 
Heartbeat CPU 0 instructions: 120000000 cycles: 71529402 heartbeat IPC: 0.716795 cumulative IPC: 0.706633 (Simulation time: 0 hr 3 min 56 sec) 
Heartbeat CPU 0 instructions: 130000000 cycles: 85602184 heartbeat IPC: 0.710592 cumulative IPC: 0.707947 (Simulation time: 0 hr 4 min 22 sec) 
Heartbeat CPU 0 instructions: 140000000 cycles: 99710855 heartbeat IPC: 0.708784 cumulative IPC: 0.708156 (Simulation time: 0 hr 4 min 49 sec) 
Heartbeat CPU 0 instructions: 150000003 cycles: 113445149 heartbeat IPC: 0.728105 cumulative IPC: 0.712058 (Simulation time: 0 hr 5 min 15 sec) 
Heartbeat CPU 0 instructions: 160000000 cycles: 127244858 heartbeat IPC: 0.724653 cumulative IPC: 0.714127 (Simulation time: 0 hr 5 min 41 sec) 
Heartbeat CPU 0 instructions: 170000002 cycles: 141558240 heartbeat IPC: 0.698647 cumulative IPC: 0.711873 (Simulation time: 0 hr 6 min 7 sec) 
Heartbeat CPU 0 instructions: 180000000 cycles: 155548551 heartbeat IPC: 0.71478 cumulative IPC: 0.712236 (Simulation time: 0 hr 6 min 34 sec) 
Heartbeat CPU 0 instructions: 190000003 cycles: 172216206 heartbeat IPC: 0.599965 cumulative IPC: 0.697728 (Simulation time: 0 hr 7 min 3 sec) 
Heartbeat CPU 0 instructions: 200000000 cycles: 192595757 heartbeat IPC: 0.490688 cumulative IPC: 0.66948 (Simulation time: 0 hr 7 min 36 sec) 
Heartbeat CPU 0 instructions: 210000001 cycles: 206748453 heartbeat IPC: 0.706579 cumulative IPC: 0.672691 (Simulation time: 0 hr 8 min 2 sec) 
Heartbeat CPU 0 instructions: 220000000 cycles: 220498527 heartbeat IPC: 0.727269 cumulative IPC: 0.676924 (Simulation time: 0 hr 8 min 29 sec) 
Heartbeat CPU 0 instructions: 230000001 cycles: 234536007 heartbeat IPC: 0.712379 cumulative IPC: 0.679526 (Simulation time: 0 hr 8 min 55 sec) 
Heartbeat CPU 0 instructions: 240000000 cycles: 248695912 heartbeat IPC: 0.706219 cumulative IPC: 0.681365 (Simulation time: 0 hr 9 min 22 sec) 
Heartbeat CPU 0 instructions: 250000000 cycles: 263094726 heartbeat IPC: 0.694502 cumulative IPC: 0.682226 (Simulation time: 0 hr 9 min 48 sec) 
Heartbeat CPU 0 instructions: 260000000 cycles: 277830323 heartbeat IPC: 0.678629 cumulative IPC: 0.682 (Simulation time: 0 hr 10 min 16 sec) 
Heartbeat CPU 0 instructions: 270000002 cycles: 292585598 heartbeat IPC: 0.677724 cumulative IPC: 0.681747 (Simulation time: 0 hr 10 min 43 sec) 
Heartbeat CPU 0 instructions: 280000000 cycles: 307425288 heartbeat IPC: 0.673868 cumulative IPC: 0.681304 (Simulation time: 0 hr 11 min 10 sec) 
Heartbeat CPU 0 instructions: 290000003 cycles: 323095083 heartbeat IPC: 0.638171 cumulative IPC: 0.678889 (Simulation time: 0 hr 11 min 38 sec) 
Heartbeat CPU 0 instructions: 300000000 cycles: 338146599 heartbeat IPC: 0.664385 cumulative IPC: 0.678149 (Simulation time: 0 hr 12 min 5 sec) 
Heartbeat CPU 0 instructions: 310000000 cycles: 353986461 heartbeat IPC: 0.631319 cumulative IPC: 0.675762 (Simulation time: 0 hr 12 min 33 sec) 
Heartbeat CPU 0 instructions: 320000000 cycles: 369580566 heartbeat IPC: 0.641268 cumulative IPC: 0.674114 (Simulation time: 0 hr 13 min 0 sec) 
Heartbeat CPU 0 instructions: 330000002 cycles: 384438345 heartbeat IPC: 0.673048 cumulative IPC: 0.674067 (Simulation time: 0 hr 13 min 27 sec) 
Heartbeat CPU 0 instructions: 340000000 cycles: 400323455 heartbeat IPC: 0.62952 cumulative IPC: 0.672086 (Simulation time: 0 hr 13 min 55 sec) 
Heartbeat CPU 0 instructions: 350000001 cycles: 414721847 heartbeat IPC: 0.694522 cumulative IPC: 0.672955 (Simulation time: 0 hr 14 min 21 sec) 
Heartbeat CPU 0 instructions: 360000000 cycles: 430085584 heartbeat IPC: 0.650883 cumulative IPC: 0.672079 (Simulation time: 0 hr 14 min 48 sec) 
Heartbeat CPU 0 instructions: 370000000 cycles: 444717549 heartbeat IPC: 0.683435 cumulative IPC: 0.672493 (Simulation time: 0 hr 15 min 14 sec) 
Heartbeat CPU 0 instructions: 380000000 cycles: 459774265 heartbeat IPC: 0.664155 cumulative IPC: 0.672191 (Simulation time: 0 hr 15 min 41 sec) 
Heartbeat CPU 0 instructions: 390000000 cycles: 474088837 heartbeat IPC: 0.698589 cumulative IPC: 0.673068 (Simulation time: 0 hr 16 min 7 sec) 
Heartbeat CPU 0 instructions: 400000000 cycles: 488348703 heartbeat IPC: 0.701269 cumulative IPC: 0.673972 (Simulation time: 0 hr 16 min 33 sec) 
Heartbeat CPU 0 instructions: 410000000 cycles: 502173878 heartbeat IPC: 0.723318 cumulative IPC: 0.675458 (Simulation time: 0 hr 16 min 58 sec) 
Heartbeat CPU 0 instructions: 420000000 cycles: 516300915 heartbeat IPC: 0.707862 cumulative IPC: 0.676426 (Simulation time: 0 hr 17 min 24 sec) 
Heartbeat CPU 0 instructions: 430000002 cycles: 529937179 heartbeat IPC: 0.733339 cumulative IPC: 0.67802 (Simulation time: 0 hr 17 min 49 sec) 
Heartbeat CPU 0 instructions: 440000000 cycles: 543656426 heartbeat IPC: 0.728903 cumulative IPC: 0.679415 (Simulation time: 0 hr 18 min 14 sec) 
Heartbeat CPU 0 instructions: 450000000 cycles: 557511199 heartbeat IPC: 0.721773 cumulative IPC: 0.680556 (Simulation time: 0 hr 18 min 39 sec) 
Heartbeat CPU 0 instructions: 460000000 cycles: 572133537 heartbeat IPC: 0.683885 cumulative IPC: 0.680648 (Simulation time: 0 hr 19 min 5 sec) 
Heartbeat CPU 0 instructions: 470000000 cycles: 586091266 heartbeat IPC: 0.716449 cumulative IPC: 0.681569 (Simulation time: 0 hr 19 min 30 sec) 
Heartbeat CPU 0 instructions: 480000000 cycles: 600061705 heartbeat IPC: 0.715797 cumulative IPC: 0.682428 (Simulation time: 0 hr 19 min 55 sec) 
Heartbeat CPU 0 instructions: 490000001 cycles: 614442478 heartbeat IPC: 0.695373 cumulative IPC: 0.682754 (Simulation time: 0 hr 20 min 21 sec) 
Heartbeat CPU 0 instructions: 500000000 cycles: 628678968 heartbeat IPC: 0.70242 cumulative IPC: 0.683232 (Simulation time: 0 hr 20 min 46 sec) 
Heartbeat CPU 0 instructions: 510000002 cycles: 642495234 heartbeat IPC: 0.723785 cumulative IPC: 0.684167 (Simulation time: 0 hr 21 min 11 sec) 
Heartbeat CPU 0 instructions: 520000000 cycles: 656265113 heartbeat IPC: 0.726223 cumulative IPC: 0.685111 (Simulation time: 0 hr 21 min 36 sec) 
Heartbeat CPU 0 instructions: 530000001 cycles: 670102701 heartbeat IPC: 0.722669 cumulative IPC: 0.685941 (Simulation time: 0 hr 22 min 1 sec) 
Heartbeat CPU 0 instructions: 540000000 cycles: 684350367 heartbeat IPC: 0.701869 cumulative IPC: 0.686294 (Simulation time: 0 hr 22 min 27 sec) 
Heartbeat CPU 0 instructions: 550000003 cycles: 698105260 heartbeat IPC: 0.727014 cumulative IPC: 0.68715 (Simulation time: 0 hr 22 min 52 sec) 
Heartbeat CPU 0 instructions: 560000000 cycles: 712632386 heartbeat IPC: 0.688367 cumulative IPC: 0.687176 (Simulation time: 0 hr 23 min 18 sec) 
Heartbeat CPU 0 instructions: 570000001 cycles: 726663946 heartbeat IPC: 0.712679 cumulative IPC: 0.6877 (Simulation time: 0 hr 23 min 43 sec) 
Heartbeat CPU 0 instructions: 580000000 cycles: 740302730 heartbeat IPC: 0.733203 cumulative IPC: 0.68859 (Simulation time: 0 hr 24 min 8 sec) 
Heartbeat CPU 0 instructions: 590000003 cycles: 753642296 heartbeat IPC: 0.74965 cumulative IPC: 0.689737 (Simulation time: 0 hr 24 min 33 sec) 
Heartbeat CPU 0 instructions: 600000000 cycles: 767484283 heartbeat IPC: 0.722439 cumulative IPC: 0.690362 (Simulation time: 0 hr 24 min 58 sec) 
Finished CPU 0 instructions: 500000000 cycles: 724258138 cumulative IPC: 0.690362 (Simulation time: 0 hr 24 min 58 sec) 

CPU 0 Branch Prediction Accuracy: 99.5915% MPKI: 0.037126
Number of Branches: 4544106 Number of Mispredictions: 18563
Number of LOAD Instructions: 149787067
Number of LOAD Instructions (ROI): 149787067
Number of STORE Instructions: 77239062
Number of STORE Instructions (ROI): 77239062
Total Destination Memory Operands: 77239062
Total Destination Memory Operands (ROI): 77239062
Total Source Memory Operands: 149787067
Total Source Memory Operands (ROI): 149787067
Number of DEPENDED LOADS: 19246981
Number of DEPENDED LOADS (ROI): 19246981
Number of SQ_ADDED: 77239036
Number of SQ_ADDED (ROI): 77239036
Number of LQ_ADDED: 149787020
Number of LQ_ADDED (ROI): 149787020
Number of Instructions read from trace: 600000256

ChampSim completed all CPUs

Region of Interest Statistics

CPU 0 cumulative IPC: 0.690362 instructions: 500000000 cycles: 724258138
ITLB TOTAL     ACCESS:   86451192  HIT:   86451191  MISS:          1
ITLB LOAD      ACCESS:   86451192  HIT:   86451191  MISS:          1
ITLB RFO       ACCESS:          0  HIT:          0  MISS:          0
ITLB PREFETCH  ACCESS:          0  HIT:          0  MISS:          0
ITLB WRITEBACK ACCESS:          0  HIT:          0  MISS:          0
ITLB PREFETCH  REQUESTED:          0  ISSUED:          0  USEFUL:          0  USELESS:          0
ITLB TOTAL MSHR MERGED:          1
ITLB LOAD MSHR MERGED:          1
ITLB RFO MSHR MERGED:          0
ITLB PREFETCH MSHR MERGED:          0
ITLB WRITEBACK MSHR MERGED:          0
ITLB TOTAL ACCESSES:   86451193 HITS:   86451191 MISSES:          2
ITLB LOAD ACCESSES:   86451193 HITS:   86451191 MISSES:          2
ITLB RFO ACCESSES:          0 HITS:          0 MISSES:          0
ITLB PREFETCH ACCESSES:          0 HITS:          0 MISSES:          0
ITLB WRITEBACK ACCESSES:          0 HITS:          0 MISSES:          0
ITLB RQ ACCESS:  500000002
ITLB RQ TO_CACHE:   86451193
ITLB RQ MERGED:  413548809
ITLB RQ FORWARD:          0
ITLB WQ ACCESS:          0
ITLB WQ TO_CACHE:          0
ITLB WQ MERGED:          0
ITLB WQ FORWARD:          0
DTLB TOTAL     ACCESS:   98109560  HIT:   97924299  MISS:     185261
DTLB LOAD      ACCESS:   55041541  HIT:   54995230  MISS:      46311
DTLB RFO       ACCESS:   43068019  HIT:   42929069  MISS:     138950
DTLB PREFETCH  ACCESS:          0  HIT:          0  MISS:          0
DTLB WRITEBACK ACCESS:          0  HIT:          0  MISS:          0
DTLB PREFETCH  REQUESTED:          0  ISSUED:          0  USEFUL:          0  USELESS:          0
DTLB TOTAL MSHR MERGED:      83565
DTLB LOAD MSHR MERGED:      83560
DTLB RFO MSHR MERGED:          5
DTLB PREFETCH MSHR MERGED:          0
DTLB WRITEBACK MSHR MERGED:          0
DTLB TOTAL ACCESSES:   98193125 HITS:   97924299 MISSES:     268826
DTLB LOAD ACCESSES:   55125101 HITS:   54995230 MISSES:     129871
DTLB RFO ACCESSES:   43068024 HITS:   42929069 MISSES:     138955
DTLB PREFETCH ACCESSES:          0 HITS:          0 MISSES:          0
DTLB WRITEBACK ACCESSES:          0 HITS:          0 MISSES:          0
DTLB RQ ACCESS:  173635546
DTLB RQ TO_CACHE:   98193125
DTLB RQ MERGED:   75442421
DTLB RQ FORWARD:          0
DTLB WQ ACCESS:          0
DTLB WQ TO_CACHE:          0
DTLB WQ MERGED:          0
DTLB WQ FORWARD:          0
L1D TOTAL     ACCESS:  164603770  HIT:  145031201  MISS:   19572569
L1D LOAD      ACCESS:   60566096  HIT:   58714329  MISS:    1851767
L1D RFO       ACCESS:   64513815  HIT:   47911671  MISS:   16602144
L1D PREFETCH  ACCESS:   39523859  HIT:   38405201  MISS:    1118658
L1D WRITEBACK ACCESS:          0  HIT:          0  MISS:          0
L1D PREFETCH  REQUESTED:   61762827  ISSUED:   61470148  USEFUL:    1116736  USELESS:       1922
L1D TOTAL MSHR MERGED:    3540743
L1D LOAD MSHR MERGED:    1268433
L1D RFO MSHR MERGED:      11806
L1D PREFETCH MSHR MERGED:    2260504
L1D WRITEBACK MSHR MERGED:          0
L1D TOTAL ACCESSES:  168704194 HITS:  145590883 MISSES:   23113311
L1D LOAD ACCESSES:   62015245 HITS:   58966747 MISSES:    3048498
L1D RFO ACCESSES:   64525588 HITS:   47911671 MISSES:   16613917
L1D PREFETCH ACCESSES:   42163361 HITS:   38712465 MISSES:    3450896
L1D WRITEBACK ACCESSES:          0 HITS:          0 MISSES:          0
L1D RQ ACCESS:  109094231
L1D RQ TO_CACHE:   61762827
L1D RQ MERGED:   47078986
L1D RQ FORWARD:          0
L1D WQ ACCESS:   64541313
L1D WQ TO_CACHE:   64525589
L1D WQ MERGED:      15724
L1D WQ FORWARD:     559682
L1I TOTAL     ACCESS:  107760695  HIT:  107760687  MISS:          8
L1I LOAD      ACCESS:  107760695  HIT:  107760687  MISS:          8
L1I RFO       ACCESS:          0  HIT:          0  MISS:          0
L1I PREFETCH  ACCESS:          0  HIT:          0  MISS:          0
L1I WRITEBACK ACCESS:          0  HIT:          0  MISS:          0
L1I PREFETCH  REQUESTED:          0  ISSUED:          0  USEFUL:          0  USELESS:          0
L1I TOTAL MSHR MERGED:          3
L1I LOAD MSHR MERGED:          3
L1I RFO MSHR MERGED:          0
L1I PREFETCH MSHR MERGED:          0
L1I WRITEBACK MSHR MERGED:          0
L1I TOTAL ACCESSES:  107760698 HITS:  107760687 MISSES:         11
L1I LOAD ACCESSES:  107760698 HITS:  107760687 MISSES:         11
L1I RFO ACCESSES:          0 HITS:          0 MISSES:          0
L1I PREFETCH ACCESSES:          0 HITS:          0 MISSES:          0
L1I WRITEBACK ACCESSES:          0 HITS:          0 MISSES:          0
L1I RQ ACCESS:  500000007
L1I RQ TO_CACHE:  107760698
L1I RQ MERGED:  392239309
L1I RQ FORWARD:          0
L1I WQ ACCESS:          0
L1I WQ TO_CACHE:          0
L1I WQ MERGED:          0
L1I WQ FORWARD:          0
L2C TOTAL     ACCESS:   36813340  HIT:   24855782  MISS:   11957558
L2C LOAD      ACCESS:    1780073  HIT:     257340  MISS:    1522733
L2C RFO       ACCESS:   16602110  HIT:    7610758  MISS:    8991352
L2C PREFETCH  ACCESS:    1828967  HIT:     386718  MISS:    1442249
L2C WRITEBACK ACCESS:   16602190  HIT:   16600966  MISS:       1224
L2C PREFETCH  REQUESTED:     814727  ISSUED:     814727  USEFUL:     255033  USELESS:    1187497
L2C TOTAL MSHR MERGED:       2684
L2C LOAD MSHR MERGED:        604
L2C RFO MSHR MERGED:          0
L2C PREFETCH MSHR MERGED:       2080
L2C WRITEBACK MSHR MERGED:          0
L2C TOTAL ACCESSES:   36989402 HITS:   24855784 MISSES:   12133618
L2C LOAD ACCESSES:    1780073 HITS:     257340 MISSES:    1522733
L2C RFO ACCESSES:   16602111 HITS:    7610760 MISSES:    8991351
L2C PREFETCH ACCESSES:    2005028 HITS:     386718 MISSES:    1618310
L2C WRITEBACK ACCESSES:   16602190 HITS:   16600966 MISSES:       1224
L2C RQ ACCESS:   18382184
L2C RQ TO_CACHE:   18382182
L2C RQ MERGED:          0
L2C RQ FORWARD:          0
L2C WQ ACCESS:   16602191
L2C WQ TO_CACHE:   16602191
L2C WQ MERGED:          0
L2C WQ FORWARD:          2
LLC TOTAL     ACCESS:   21118933  HIT:    2000550  MISS:   19118383
LLC LOAD      ACCESS:    1522129  HIT:      63046  MISS:    1459083
LLC RFO       ACCESS:    8991341  HIT:     827591  MISS:    8163750
LLC PREFETCH  ACCESS:    1613291  HIT:     107450  MISS:    1505841
LLC WRITEBACK ACCESS:    8992172  HIT:    1002463  MISS:    7989709
LLC PREFETCH  REQUESTED:          0  ISSUED:          0  USEFUL:      62502  USELESS:    1443209
LLC TOTAL MSHR MERGED:       2568
LLC LOAD MSHR MERGED:        199
LLC RFO MSHR MERGED:          0
LLC PREFETCH MSHR MERGED:       2369
LLC WRITEBACK MSHR MERGED:          0
LLC TOTAL ACCESSES:   21121511 HITS:    2000561 MISSES:   19120950
LLC LOAD ACCESSES:    1522129 HITS:      63046 MISSES:    1459083
LLC RFO ACCESSES:    8991351 HITS:     827602 MISSES:    8163749
LLC PREFETCH ACCESSES:    1615859 HITS:     107450 MISSES:    1508409
LLC WRITEBACK ACCESSES:    8992172 HITS:    1002463 MISSES:    7989709
LLC 0 RQ ACCESS:   10513480
LLC 0 RQ TO_CACHE:   10513469
LLC 0 RQ MERGED:          0
LLC 0 RQ FORWARD:          0
LLC WQ ACCESS:    8992172
LLC WQ TO_CACHE:    8992172
LLC WQ MERGED:          0
LLC WQ FORWARD:         11
Major fault: 0 Minor fault: 102360
CPU 0 L1D next line prefetcher final stats
CPU 0 L2C PC-based stride prefetcher final stats
All Misses: 22790923
All Hits: 2303521
SD Algo Stats - Switches: 0 SRR-Repls: 1637668 BRR-Repls: 0

DRAM Statistics
 CHANNEL 0
 RQ ROW_BUFFER_HIT:    3724880  ROW_BUFFER_MISS:    7402080
 DBUS_CONGESTED:   13213215
 WQ ROW_BUFFER_HIT:    1276547  ROW_BUFFER_MISS:    6916981  FULL:          0

 AVG_CONGESTED_CYCLE: 13
LOADS RETIRED: 124982196
INSTR RETIRED: 500000000
