
*** ChampSim Multicore Out-of-Order Simulator ***

Warmup Instructions: 100000000
Simulation Instructions: 500000000
Number of CPUs: 1
LLC sets: 2048
LLC ways: 16
Clean RRIP Policies: 323101303231013 Dirty RRIP Policies: 2303201323032013 PSEL Width: 10 Track Set: 4294967295 PSEL Mask: 1 Demote Mask: 2313143323131433DS Algo: 0Window size: 0
Off-chip DRAM Size: 4096 MB Channels: 1 Width: 64-bit Data Rate: 1600 MT/s

CPU 0 runs /mnt/beegfs/iconst01/spec2017/Gcc.trace.gz
NOT SORTED
TRACE STRING: /mnt/beegfs/iconst01/spec2017/Gcc.trace.gz
SORTED
TRACE STRING: /mnt/beegfs/iconst01/spec2017/Gcc.trace.gz
INITIAL
TRACE STRING: /mnt/beegfs/iconst01/spec2017/Gcc.trace.gz

champsim_seed used: 269

CPU 0 L1D next line prefetcher
CPU 0 L2C IP-based stride prefetcher
Initialize DRRIP state
Assign rand_sets[0]: 454  LLC: 2048
rand_sets[0]: 454
Assign rand_sets[1]: 1662  LLC: 2048
rand_sets[1]: 1662
Assign rand_sets[2]: 1921  LLC: 2048
rand_sets[2]: 1921
Assign rand_sets[3]: 1131  LLC: 2048
rand_sets[3]: 1131
Assign rand_sets[4]: 331  LLC: 2048
rand_sets[4]: 331
Assign rand_sets[5]: 1531  LLC: 2048
rand_sets[5]: 1531
Assign rand_sets[6]: 482  LLC: 2048
rand_sets[6]: 482
Assign rand_sets[7]: 1275  LLC: 2048
rand_sets[7]: 1275
Assign rand_sets[8]: 1876  LLC: 2048
rand_sets[8]: 1876
Assign rand_sets[9]: 2038  LLC: 2048
rand_sets[9]: 2038
Assign rand_sets[10]: 701  LLC: 2048
rand_sets[10]: 701
Assign rand_sets[11]: 479  LLC: 2048
rand_sets[11]: 479
Assign rand_sets[12]: 892  LLC: 2048
rand_sets[12]: 892
Assign rand_sets[13]: 1820  LLC: 2048
rand_sets[13]: 1820
Assign rand_sets[14]: 1505  LLC: 2048
rand_sets[14]: 1505
Assign rand_sets[15]: 1159  LLC: 2048
rand_sets[15]: 1159
Assign rand_sets[16]: 513  LLC: 2048
rand_sets[16]: 513
Assign rand_sets[17]: 703  LLC: 2048
rand_sets[17]: 703
Assign rand_sets[18]: 561  LLC: 2048
rand_sets[18]: 561
Assign rand_sets[19]: 990  LLC: 2048
rand_sets[19]: 990
Assign rand_sets[20]: 342  LLC: 2048
rand_sets[20]: 342
Assign rand_sets[21]: 882  LLC: 2048
rand_sets[21]: 882
Assign rand_sets[22]: 15  LLC: 2048
rand_sets[22]: 15
Assign rand_sets[23]: 71  LLC: 2048
rand_sets[23]: 71
Assign rand_sets[24]: 1127  LLC: 2048
rand_sets[24]: 1127
Assign rand_sets[25]: 1382  LLC: 2048
rand_sets[25]: 1382
Assign rand_sets[26]: 647  LLC: 2048
rand_sets[26]: 647
Assign rand_sets[27]: 857  LLC: 2048
rand_sets[27]: 857
Assign rand_sets[28]: 1450  LLC: 2048
rand_sets[28]: 1450
Assign rand_sets[29]: 1160  LLC: 2048
rand_sets[29]: 1160
Assign rand_sets[30]: 1852  LLC: 2048
rand_sets[30]: 1852
Assign rand_sets[31]: 1881  LLC: 2048
rand_sets[31]: 1881
Assign rand_sets[32]: 1770  LLC: 2048
rand_sets[32]: 1770
Assign rand_sets[33]: 1622  LLC: 2048
rand_sets[33]: 1622
Assign rand_sets[34]: 275  LLC: 2048
rand_sets[34]: 275
Assign rand_sets[35]: 635  LLC: 2048
rand_sets[35]: 635
Assign rand_sets[36]: 466  LLC: 2048
rand_sets[36]: 466
Assign rand_sets[37]: 1413  LLC: 2048
rand_sets[37]: 1413
Assign rand_sets[38]: 417  LLC: 2048
rand_sets[38]: 417
Assign rand_sets[39]: 472  LLC: 2048
rand_sets[39]: 472
Assign rand_sets[40]: 1340  LLC: 2048
rand_sets[40]: 1340
Assign rand_sets[41]: 852  LLC: 2048
rand_sets[41]: 852
Assign rand_sets[42]: 1365  LLC: 2048
rand_sets[42]: 1365
Assign rand_sets[43]: 47  LLC: 2048
rand_sets[43]: 47
Assign rand_sets[44]: 823  LLC: 2048
rand_sets[44]: 823
Assign rand_sets[45]: 686  LLC: 2048
rand_sets[45]: 686
Assign rand_sets[46]: 1637  LLC: 2048
rand_sets[46]: 1637
Assign rand_sets[47]: 1115  LLC: 2048
rand_sets[47]: 1115
Assign rand_sets[48]: 986  LLC: 2048
rand_sets[48]: 986
Assign rand_sets[49]: 258  LLC: 2048
rand_sets[49]: 258
Assign rand_sets[50]: 633  LLC: 2048
rand_sets[50]: 633
Assign rand_sets[51]: 920  LLC: 2048
rand_sets[51]: 920
Assign rand_sets[52]: 204  LLC: 2048
rand_sets[52]: 204
Assign rand_sets[53]: 227  LLC: 2048
rand_sets[53]: 227
Assign rand_sets[54]: 1818  LLC: 2048
rand_sets[54]: 1818
Assign rand_sets[55]: 886  LLC: 2048
rand_sets[55]: 886
Assign rand_sets[56]: 1422  LLC: 2048
rand_sets[56]: 1422
Assign rand_sets[57]: 607  LLC: 2048
rand_sets[57]: 607
Assign rand_sets[58]: 217  LLC: 2048
rand_sets[58]: 217
Assign rand_sets[59]: 1945  LLC: 2048
rand_sets[59]: 1945
Assign rand_sets[60]: 143  LLC: 2048
rand_sets[60]: 143
Assign rand_sets[61]: 1311  LLC: 2048
rand_sets[61]: 1311
Assign rand_sets[62]: 319  LLC: 2048
rand_sets[62]: 319
Assign rand_sets[63]: 1846  LLC: 2048
rand_sets[63]: 1846
 CLEAN-RRIP-POLICY-1: 0-3-2-3-1-0-1-3- CLEAN-RRIP-POLICY-2: 0-3-2-3-1-0-1-3-
 DIRTY-RRIP-POLICY-1: 2-3-0-3-2-0-1-3- DIRTY-RRIP-POLICY-2: 2-3-0-3-2-0-1-3-
 PSEL width: 10
Heartbeat CPU 0 instructions: 10000001 cycles: 7321625 heartbeat IPC: 1.36582 cumulative IPC: 1.36582 (Simulation time: 0 hr 0 min 15 sec) 
Heartbeat CPU 0 instructions: 20000000 cycles: 14328006 heartbeat IPC: 1.42727 cumulative IPC: 1.39587 (Simulation time: 0 hr 0 min 30 sec) 
Heartbeat CPU 0 instructions: 30000001 cycles: 21045401 heartbeat IPC: 1.48867 cumulative IPC: 1.42549 (Simulation time: 0 hr 0 min 46 sec) 
Heartbeat CPU 0 instructions: 40000000 cycles: 27507828 heartbeat IPC: 1.54741 cumulative IPC: 1.45413 (Simulation time: 0 hr 1 min 2 sec) 
Heartbeat CPU 0 instructions: 50000001 cycles: 33610827 heartbeat IPC: 1.63854 cumulative IPC: 1.48762 (Simulation time: 0 hr 1 min 18 sec) 
Heartbeat CPU 0 instructions: 60000000 cycles: 40093219 heartbeat IPC: 1.54264 cumulative IPC: 1.49651 (Simulation time: 0 hr 1 min 34 sec) 
Heartbeat CPU 0 instructions: 70000000 cycles: 47136707 heartbeat IPC: 1.41975 cumulative IPC: 1.48504 (Simulation time: 0 hr 1 min 49 sec) 
Heartbeat CPU 0 instructions: 80000000 cycles: 54232499 heartbeat IPC: 1.40929 cumulative IPC: 1.47513 (Simulation time: 0 hr 2 min 4 sec) 
Heartbeat CPU 0 instructions: 90000003 cycles: 61243118 heartbeat IPC: 1.42641 cumulative IPC: 1.46955 (Simulation time: 0 hr 2 min 19 sec) 
Heartbeat CPU 0 instructions: 100000000 cycles: 68416579 heartbeat IPC: 1.39403 cumulative IPC: 1.46163 (Simulation time: 0 hr 2 min 34 sec) 

Warmup complete CPU 0 instructions: 100000004 cycles: 68416580 (Simulation time: 0 hr 2 min 34 sec) 

Heartbeat CPU 0 instructions: 110000003 cycles: 97029496 heartbeat IPC: 0.349493 cumulative IPC: 0.349492 (Simulation time: 0 hr 3 min 3 sec) 
Heartbeat CPU 0 instructions: 120000000 cycles: 124802820 heartbeat IPC: 0.360058 cumulative IPC: 0.354696 (Simulation time: 0 hr 3 min 32 sec) 
Heartbeat CPU 0 instructions: 130000000 cycles: 150063764 heartbeat IPC: 0.395868 cumulative IPC: 0.367435 (Simulation time: 0 hr 4 min 1 sec) 
Heartbeat CPU 0 instructions: 140000000 cycles: 181326897 heartbeat IPC: 0.319866 cumulative IPC: 0.354263 (Simulation time: 0 hr 4 min 30 sec) 
Heartbeat CPU 0 instructions: 150000000 cycles: 212407177 heartbeat IPC: 0.321747 cumulative IPC: 0.347245 (Simulation time: 0 hr 4 min 59 sec) 
Heartbeat CPU 0 instructions: 160000000 cycles: 240237198 heartbeat IPC: 0.359324 cumulative IPC: 0.349201 (Simulation time: 0 hr 5 min 27 sec) 
Heartbeat CPU 0 instructions: 170000001 cycles: 268780988 heartbeat IPC: 0.350339 cumulative IPC: 0.349363 (Simulation time: 0 hr 5 min 57 sec) 
Heartbeat CPU 0 instructions: 180000000 cycles: 297814814 heartbeat IPC: 0.344426 cumulative IPC: 0.348738 (Simulation time: 0 hr 6 min 27 sec) 
Heartbeat CPU 0 instructions: 190000002 cycles: 326436838 heartbeat IPC: 0.349381 cumulative IPC: 0.34881 (Simulation time: 0 hr 6 min 56 sec) 
Heartbeat CPU 0 instructions: 200000000 cycles: 355414056 heartbeat IPC: 0.345099 cumulative IPC: 0.348435 (Simulation time: 0 hr 7 min 26 sec) 
Heartbeat CPU 0 instructions: 210000002 cycles: 383854091 heartbeat IPC: 0.351617 cumulative IPC: 0.348722 (Simulation time: 0 hr 7 min 55 sec) 
Heartbeat CPU 0 instructions: 220000000 cycles: 414550967 heartbeat IPC: 0.325766 cumulative IPC: 0.346686 (Simulation time: 0 hr 8 min 23 sec) 
Heartbeat CPU 0 instructions: 230000000 cycles: 442903260 heartbeat IPC: 0.352705 cumulative IPC: 0.347142 (Simulation time: 0 hr 8 min 52 sec) 
Heartbeat CPU 0 instructions: 240000000 cycles: 469448503 heartbeat IPC: 0.376715 cumulative IPC: 0.349099 (Simulation time: 0 hr 9 min 19 sec) 
Heartbeat CPU 0 instructions: 250000000 cycles: 499971418 heartbeat IPC: 0.327623 cumulative IPC: 0.34758 (Simulation time: 0 hr 9 min 49 sec) 
Heartbeat CPU 0 instructions: 260000000 cycles: 527291005 heartbeat IPC: 0.366038 cumulative IPC: 0.348679 (Simulation time: 0 hr 10 min 18 sec) 
Heartbeat CPU 0 instructions: 270000003 cycles: 556121987 heartbeat IPC: 0.346849 cumulative IPC: 0.348571 (Simulation time: 0 hr 10 min 48 sec) 
Heartbeat CPU 0 instructions: 280000000 cycles: 584823088 heartbeat IPC: 0.348419 cumulative IPC: 0.348563 (Simulation time: 0 hr 11 min 18 sec) 
Heartbeat CPU 0 instructions: 290000000 cycles: 614121660 heartbeat IPC: 0.341314 cumulative IPC: 0.348173 (Simulation time: 0 hr 11 min 48 sec) 
Heartbeat CPU 0 instructions: 300000000 cycles: 645325496 heartbeat IPC: 0.320473 cumulative IPC: 0.346675 (Simulation time: 0 hr 12 min 17 sec) 
Heartbeat CPU 0 instructions: 310000001 cycles: 675650738 heartbeat IPC: 0.329758 cumulative IPC: 0.34583 (Simulation time: 0 hr 12 min 46 sec) 
Heartbeat CPU 0 instructions: 320000000 cycles: 704945102 heartbeat IPC: 0.341363 cumulative IPC: 0.345625 (Simulation time: 0 hr 13 min 14 sec) 
Heartbeat CPU 0 instructions: 330000000 cycles: 734330695 heartbeat IPC: 0.340303 cumulative IPC: 0.34539 (Simulation time: 0 hr 13 min 43 sec) 
Heartbeat CPU 0 instructions: 340000000 cycles: 764499295 heartbeat IPC: 0.33147 cumulative IPC: 0.344787 (Simulation time: 0 hr 14 min 12 sec) 
Heartbeat CPU 0 instructions: 350000003 cycles: 792017407 heartbeat IPC: 0.363397 cumulative IPC: 0.345494 (Simulation time: 0 hr 14 min 40 sec) 
Heartbeat CPU 0 instructions: 360000000 cycles: 822707730 heartbeat IPC: 0.325835 cumulative IPC: 0.344694 (Simulation time: 0 hr 15 min 9 sec) 
Heartbeat CPU 0 instructions: 370000000 cycles: 853529577 heartbeat IPC: 0.324445 cumulative IPC: 0.3439 (Simulation time: 0 hr 15 min 37 sec) 
Heartbeat CPU 0 instructions: 380000000 cycles: 884798347 heartbeat IPC: 0.319808 cumulative IPC: 0.342977 (Simulation time: 0 hr 16 min 6 sec) 
Heartbeat CPU 0 instructions: 390000001 cycles: 915142974 heartbeat IPC: 0.329548 cumulative IPC: 0.342496 (Simulation time: 0 hr 16 min 34 sec) 
Heartbeat CPU 0 instructions: 400000000 cycles: 946332365 heartbeat IPC: 0.320622 cumulative IPC: 0.341718 (Simulation time: 0 hr 17 min 3 sec) 
Heartbeat CPU 0 instructions: 410000001 cycles: 976381743 heartbeat IPC: 0.332786 cumulative IPC: 0.341423 (Simulation time: 0 hr 17 min 31 sec) 
Heartbeat CPU 0 instructions: 420000000 cycles: 1006499732 heartbeat IPC: 0.332027 cumulative IPC: 0.341121 (Simulation time: 0 hr 17 min 59 sec) 
Heartbeat CPU 0 instructions: 430000002 cycles: 1036996033 heartbeat IPC: 0.327909 cumulative IPC: 0.340705 (Simulation time: 0 hr 18 min 28 sec) 
Heartbeat CPU 0 instructions: 440000000 cycles: 1068679926 heartbeat IPC: 0.315618 cumulative IPC: 0.33991 (Simulation time: 0 hr 18 min 56 sec) 
Heartbeat CPU 0 instructions: 450000002 cycles: 1100205938 heartbeat IPC: 0.317198 cumulative IPC: 0.339217 (Simulation time: 0 hr 19 min 24 sec) 
Heartbeat CPU 0 instructions: 460000000 cycles: 1130602061 heartbeat IPC: 0.328989 cumulative IPC: 0.338924 (Simulation time: 0 hr 19 min 53 sec) 
Heartbeat CPU 0 instructions: 470000000 cycles: 1160609493 heartbeat IPC: 0.333251 cumulative IPC: 0.338768 (Simulation time: 0 hr 20 min 21 sec) 
Heartbeat CPU 0 instructions: 480000000 cycles: 1190840667 heartbeat IPC: 0.330784 cumulative IPC: 0.338553 (Simulation time: 0 hr 20 min 49 sec) 
Heartbeat CPU 0 instructions: 490000000 cycles: 1220820627 heartbeat IPC: 0.333556 cumulative IPC: 0.338423 (Simulation time: 0 hr 21 min 17 sec) 
Heartbeat CPU 0 instructions: 500000000 cycles: 1251277936 heartbeat IPC: 0.328328 cumulative IPC: 0.338163 (Simulation time: 0 hr 21 min 45 sec) 
Heartbeat CPU 0 instructions: 510000000 cycles: 1286686426 heartbeat IPC: 0.282418 cumulative IPC: 0.336543 (Simulation time: 0 hr 22 min 16 sec) 
Heartbeat CPU 0 instructions: 520000000 cycles: 1314881483 heartbeat IPC: 0.354672 cumulative IPC: 0.336953 (Simulation time: 0 hr 22 min 44 sec) 
Heartbeat CPU 0 instructions: 530000001 cycles: 1345461051 heartbeat IPC: 0.327016 cumulative IPC: 0.336715 (Simulation time: 0 hr 23 min 13 sec) 
Heartbeat CPU 0 instructions: 540000000 cycles: 1374512194 heartbeat IPC: 0.34422 cumulative IPC: 0.336882 (Simulation time: 0 hr 23 min 41 sec) 
Heartbeat CPU 0 instructions: 550000001 cycles: 1403961022 heartbeat IPC: 0.339572 cumulative IPC: 0.336941 (Simulation time: 0 hr 24 min 11 sec) 
Heartbeat CPU 0 instructions: 560000000 cycles: 1429606492 heartbeat IPC: 0.389932 cumulative IPC: 0.33794 (Simulation time: 0 hr 24 min 39 sec) 
Heartbeat CPU 0 instructions: 570000000 cycles: 1460031690 heartbeat IPC: 0.328675 cumulative IPC: 0.337737 (Simulation time: 0 hr 25 min 8 sec) 
Heartbeat CPU 0 instructions: 580000000 cycles: 1488888510 heartbeat IPC: 0.346539 cumulative IPC: 0.337916 (Simulation time: 0 hr 25 min 37 sec) 
Heartbeat CPU 0 instructions: 590000001 cycles: 1514132948 heartbeat IPC: 0.396127 cumulative IPC: 0.338932 (Simulation time: 0 hr 26 min 4 sec) 
Heartbeat CPU 0 instructions: 600000000 cycles: 1541297553 heartbeat IPC: 0.368126 cumulative IPC: 0.339471 (Simulation time: 0 hr 26 min 32 sec) 
Finished CPU 0 instructions: 500000000 cycles: 1472880995 cumulative IPC: 0.339471 (Simulation time: 0 hr 26 min 32 sec) 

CPU 0 Branch Prediction Accuracy: 86.4311% MPKI: 26.2662
Number of Branches: 96788573 Number of Mispredictions: 13133102
Number of LOAD Instructions: 164682285
Number of LOAD Instructions (ROI): 164682285
Number of STORE Instructions: 78194750
Number of STORE Instructions (ROI): 78194750
Total Destination Memory Operands: 83268534
Total Destination Memory Operands (ROI): 83268534
Total Source Memory Operands: 164712438
Total Source Memory Operands (ROI): 164712438
Number of DEPENDED LOADS: 7052893
Number of DEPENDED LOADS (ROI): 7052893
Number of SQ_ADDED: 83268522
Number of SQ_ADDED (ROI): 83268522
Number of LQ_ADDED: 236682324
Number of LQ_ADDED (ROI): 236682324
Number of Instructions read from trace: 600000066

ChampSim completed all CPUs

Region of Interest Statistics

CPU 0 cumulative IPC: 0.339471 instructions: 500000000 cycles: 1472880995
ITLB TOTAL     ACCESS:  100534384  HIT:  100329938  MISS:     204446
ITLB LOAD      ACCESS:  100534384  HIT:  100329938  MISS:     204446
ITLB RFO       ACCESS:          0  HIT:          0  MISS:          0
ITLB PREFETCH  ACCESS:          0  HIT:          0  MISS:          0
ITLB WRITEBACK ACCESS:          0  HIT:          0  MISS:          0
ITLB PREFETCH  REQUESTED:          0  ISSUED:          0  USEFUL:          0  USELESS:          0
ITLB TOTAL MSHR MERGED:     172423
ITLB LOAD MSHR MERGED:     172423
ITLB RFO MSHR MERGED:          0
ITLB PREFETCH MSHR MERGED:          0
ITLB WRITEBACK MSHR MERGED:          0
ITLB TOTAL ACCESSES:  100706807 HITS:  100329938 MISSES:     376869
ITLB LOAD ACCESSES:  100706807 HITS:  100329938 MISSES:     376869
ITLB RFO ACCESSES:          0 HITS:          0 MISSES:          0
ITLB PREFETCH ACCESSES:          0 HITS:          0 MISSES:          0
ITLB WRITEBACK ACCESSES:          0 HITS:          0 MISSES:          0
ITLB RQ ACCESS:  500000057
ITLB RQ TO_CACHE:  100706807
ITLB RQ MERGED:  399293250
ITLB RQ FORWARD:          0
ITLB WQ ACCESS:          0
ITLB WQ TO_CACHE:          0
ITLB WQ MERGED:          0
ITLB WQ FORWARD:          0
DTLB TOTAL     ACCESS:  165356273  HIT:  164721920  MISS:     634353
DTLB LOAD      ACCESS:  106305941  HIT:  105735894  MISS:     570047
DTLB RFO       ACCESS:   59050332  HIT:   58986026  MISS:      64306
DTLB PREFETCH  ACCESS:          0  HIT:          0  MISS:          0
DTLB WRITEBACK ACCESS:          0  HIT:          0  MISS:          0
DTLB PREFETCH  REQUESTED:          0  ISSUED:          0  USEFUL:          0  USELESS:          0
DTLB TOTAL MSHR MERGED:      99537
DTLB LOAD MSHR MERGED:      59202
DTLB RFO MSHR MERGED:      40335
DTLB PREFETCH MSHR MERGED:          0
DTLB WRITEBACK MSHR MERGED:          0
DTLB TOTAL ACCESSES:  165455810 HITS:  164721920 MISSES:     733890
DTLB LOAD ACCESSES:  106365143 HITS:  105735894 MISSES:     629249
DTLB RFO ACCESSES:   59090667 HITS:   58986026 MISSES:     104641
DTLB PREFETCH ACCESSES:          0 HITS:          0 MISSES:          0
DTLB WRITEBACK ACCESSES:          0 HITS:          0 MISSES:          0
DTLB RQ ACCESS:  200318014
DTLB RQ TO_CACHE:  165455810
DTLB RQ MERGED:   34862204
DTLB RQ FORWARD:          0
DTLB WQ ACCESS:          0
DTLB WQ TO_CACHE:          0
DTLB WQ MERGED:          0
DTLB WQ FORWARD:          0
L1D TOTAL     ACCESS:  281873618  HIT:  273964199  MISS:    7909419
L1D LOAD      ACCESS:  110435073  HIT:  107155106  MISS:    3279967
L1D RFO       ACCESS:   67133548  HIT:   66243306  MISS:     890242
L1D PREFETCH  ACCESS:  104304997  HIT:  100565787  MISS:    3739210
L1D WRITEBACK ACCESS:          0  HIT:          0  MISS:          0
L1D PREFETCH  REQUESTED:  110836181  ISSUED:  109136625  USEFUL:    1659720  USELESS:    2079454
L1D TOTAL MSHR MERGED:    2874800
L1D LOAD MSHR MERGED:     500981
L1D RFO MSHR MERGED:    1852064
L1D PREFETCH MSHR MERGED:     521755
L1D WRITEBACK MSHR MERGED:          0
L1D TOTAL ACCESSES:  284775929 HITS:  273991710 MISSES:   10784219
L1D LOAD ACCESSES:  110837687 HITS:  107156612 MISSES:    3681075
L1D RFO ACCESSES:   68974046 HITS:   66243306 MISSES:    2730740
L1D PREFETCH ACCESSES:  104964196 HITS:  100591792 MISSES:    4372404
L1D WRITEBACK ACCESSES:          0 HITS:          0 MISSES:          0
L1D RQ ACCESS:  130765411
L1D RQ TO_CACHE:  110836184
L1D RQ MERGED:   19927721
L1D RQ FORWARD:          0
L1D WQ ACCESS:   69552603
L1D WQ TO_CACHE:   68974047
L1D WQ MERGED:     578556
L1D WQ FORWARD:      27511
L1I TOTAL     ACCESS:  126577554  HIT:  122339028  MISS:    4238526
L1I LOAD      ACCESS:  126577554  HIT:  122339028  MISS:    4238526
L1I RFO       ACCESS:          0  HIT:          0  MISS:          0
L1I PREFETCH  ACCESS:          0  HIT:          0  MISS:          0
L1I WRITEBACK ACCESS:          0  HIT:          0  MISS:          0
L1I PREFETCH  REQUESTED:          0  ISSUED:          0  USEFUL:          0  USELESS:          0
L1I TOTAL MSHR MERGED:    1839282
L1I LOAD MSHR MERGED:    1839282
L1I RFO MSHR MERGED:          0
L1I PREFETCH MSHR MERGED:          0
L1I WRITEBACK MSHR MERGED:          0
L1I TOTAL ACCESSES:  128416839 HITS:  122339028 MISSES:    6077811
L1I LOAD ACCESSES:  128416839 HITS:  122339028 MISSES:    6077811
L1I RFO ACCESSES:          0 HITS:          0 MISSES:          0
L1I PREFETCH ACCESSES:          0 HITS:          0 MISSES:          0
L1I WRITEBACK ACCESSES:          0 HITS:          0 MISSES:          0
L1I RQ ACCESS:  500000057
L1I RQ TO_CACHE:  128416839
L1I RQ MERGED:  371583218
L1I RQ FORWARD:          0
L1I WQ ACCESS:          0
L1I WQ TO_CACHE:          0
L1I WQ MERGED:          0
L1I WQ FORWARD:          0
L2C TOTAL     ACCESS:   14904975  HIT:   11158487  MISS:    3746488
L2C LOAD      ACCESS:    7418414  HIT:    5098507  MISS:    2319907
L2C RFO       ACCESS:     878583  HIT:     409940  MISS:     468643
L2C PREFETCH  ACCESS:    4568741  HIT:    3628067  MISS:     940674
L2C WRITEBACK ACCESS:    2039237  HIT:    2021973  MISS:      17264
L2C PREFETCH  REQUESTED:     842802  ISSUED:     842802  USEFUL:     203381  USELESS:     737001
L2C TOTAL MSHR MERGED:       7394
L2C LOAD MSHR MERGED:        907
L2C RFO MSHR MERGED:          0
L2C PREFETCH MSHR MERGED:       6487
L2C WRITEBACK MSHR MERGED:          0
L2C TOTAL ACCESSES:   14913253 HITS:   11158929 MISSES:    3754324
L2C LOAD ACCESSES:    7418620 HITS:    5098713 MISSES:    2319907
L2C RFO ACCESSES:     878676 HITS:     410033 MISSES:     468643
L2C PREFETCH ACCESSES:    4576720 HITS:    3628210 MISSES:     948510
L2C WRITEBACK ACCESSES:    2039237 HITS:    2021973 MISSES:      17264
L2C RQ ACCESS:    8297299
L2C RQ TO_CACHE:    8297000
L2C RQ MERGED:          0
L2C RQ FORWARD:          0
L2C WQ ACCESS:    2039237
L2C WQ TO_CACHE:    2039237
L2C WQ MERGED:          0
L2C WQ FORWARD:        442
LLC TOTAL     ACCESS:    4609845  HIT:    3187159  MISS:    1422686
LLC LOAD      ACCESS:    2318989  HIT:    1426797  MISS:     892192
LLC RFO       ACCESS:     468635  HIT:     400641  MISS:      67994
LLC PREFETCH  ACCESS:     941915  HIT:     568990  MISS:     372925
LLC WRITEBACK ACCESS:     880306  HIT:     790731  MISS:      89575
LLC PREFETCH  REQUESTED:          0  ISSUED:          0  USEFUL:      11700  USELESS:     360790
LLC TOTAL MSHR MERGED:         89
LLC LOAD MSHR MERGED:         31
LLC RFO MSHR MERGED:          0
LLC PREFETCH MSHR MERGED:         58
LLC WRITEBACK MSHR MERGED:          0
LLC TOTAL ACCESSES:    4609965 HITS:    3187190 MISSES:    1422775
LLC LOAD ACCESSES:    2319000 HITS:    1426808 MISSES:     892192
LLC RFO ACCESSES:     468643 HITS:     400649 MISSES:      67994
LLC PREFETCH ACCESSES:     942016 HITS:     569002 MISSES:     373014
LLC WRITEBACK ACCESSES:     880306 HITS:     790731 MISSES:      89575
LLC 0 RQ ACCESS:    2787643
LLC 0 RQ TO_CACHE:    2787624
LLC 0 RQ MERGED:          0
LLC 0 RQ FORWARD:          0
LLC WQ ACCESS:     880306
LLC WQ TO_CACHE:     880306
LLC WQ MERGED:          0
LLC WQ FORWARD:         31
Major fault: 0 Minor fault: 12862
CPU 0 L1D next line prefetcher final stats
CPU 0 L2C PC-based stride prefetcher final stats
All Misses: 1672925
All Hits: 3753926
SD Algo Stats - Switches: 0 SRR-Repls: 1031931 BRR-Repls: 0

DRAM Statistics
 CHANNEL 0
 RQ ROW_BUFFER_HIT:     404577  ROW_BUFFER_MISS:     925207
 DBUS_CONGESTED:     514417
 WQ ROW_BUFFER_HIT:      11506  ROW_BUFFER_MISS:     185940  FULL:          0

 AVG_CONGESTED_CYCLE: 13
LOADS RETIRED: 136549171
INSTR RETIRED: 500000000
