
*** ChampSim Multicore Out-of-Order Simulator ***

Warmup Instructions: 100000000
Simulation Instructions: 500000000
Number of CPUs: 1
LLC sets: 2048
LLC ways: 16
Clean RRIP Policies: 1213030112130301 Dirty RRIP Policies: 2213130122131301 PSEL Width: 10 Track Set: 4294967295 PSEL Mask: 1 Demote Mask: 1342211013422110DS Algo: 0Window size: 0
Off-chip DRAM Size: 4096 MB Channels: 1 Width: 64-bit Data Rate: 1600 MT/s

CPU 0 runs /mnt/beegfs/iconst01/spec2017/Omnetpp.trace.gz
NOT SORTED
TRACE STRING: /mnt/beegfs/iconst01/spec2017/Omnetpp.trace.gz
SORTED
TRACE STRING: /mnt/beegfs/iconst01/spec2017/Omnetpp.trace.gz
INITIAL
TRACE STRING: /mnt/beegfs/iconst01/spec2017/Omnetpp.trace.gz

champsim_seed used: 739

CPU 0 L1D next line prefetcher
CPU 0 L2C IP-based stride prefetcher
Initialize DRRIP state
Assign rand_sets[0]: 454  LLC: 2048
rand_sets[0]: 454
Assign rand_sets[1]: 1662  LLC: 2048
rand_sets[1]: 1662
Assign rand_sets[2]: 1921  LLC: 2048
rand_sets[2]: 1921
Assign rand_sets[3]: 1131  LLC: 2048
rand_sets[3]: 1131
Assign rand_sets[4]: 331  LLC: 2048
rand_sets[4]: 331
Assign rand_sets[5]: 1531  LLC: 2048
rand_sets[5]: 1531
Assign rand_sets[6]: 482  LLC: 2048
rand_sets[6]: 482
Assign rand_sets[7]: 1275  LLC: 2048
rand_sets[7]: 1275
Assign rand_sets[8]: 1876  LLC: 2048
rand_sets[8]: 1876
Assign rand_sets[9]: 2038  LLC: 2048
rand_sets[9]: 2038
Assign rand_sets[10]: 701  LLC: 2048
rand_sets[10]: 701
Assign rand_sets[11]: 479  LLC: 2048
rand_sets[11]: 479
Assign rand_sets[12]: 892  LLC: 2048
rand_sets[12]: 892
Assign rand_sets[13]: 1820  LLC: 2048
rand_sets[13]: 1820
Assign rand_sets[14]: 1505  LLC: 2048
rand_sets[14]: 1505
Assign rand_sets[15]: 1159  LLC: 2048
rand_sets[15]: 1159
Assign rand_sets[16]: 513  LLC: 2048
rand_sets[16]: 513
Assign rand_sets[17]: 703  LLC: 2048
rand_sets[17]: 703
Assign rand_sets[18]: 561  LLC: 2048
rand_sets[18]: 561
Assign rand_sets[19]: 990  LLC: 2048
rand_sets[19]: 990
Assign rand_sets[20]: 342  LLC: 2048
rand_sets[20]: 342
Assign rand_sets[21]: 882  LLC: 2048
rand_sets[21]: 882
Assign rand_sets[22]: 15  LLC: 2048
rand_sets[22]: 15
Assign rand_sets[23]: 71  LLC: 2048
rand_sets[23]: 71
Assign rand_sets[24]: 1127  LLC: 2048
rand_sets[24]: 1127
Assign rand_sets[25]: 1382  LLC: 2048
rand_sets[25]: 1382
Assign rand_sets[26]: 647  LLC: 2048
rand_sets[26]: 647
Assign rand_sets[27]: 857  LLC: 2048
rand_sets[27]: 857
Assign rand_sets[28]: 1450  LLC: 2048
rand_sets[28]: 1450
Assign rand_sets[29]: 1160  LLC: 2048
rand_sets[29]: 1160
Assign rand_sets[30]: 1852  LLC: 2048
rand_sets[30]: 1852
Assign rand_sets[31]: 1881  LLC: 2048
rand_sets[31]: 1881
Assign rand_sets[32]: 1770  LLC: 2048
rand_sets[32]: 1770
Assign rand_sets[33]: 1622  LLC: 2048
rand_sets[33]: 1622
Assign rand_sets[34]: 275  LLC: 2048
rand_sets[34]: 275
Assign rand_sets[35]: 635  LLC: 2048
rand_sets[35]: 635
Assign rand_sets[36]: 466  LLC: 2048
rand_sets[36]: 466
Assign rand_sets[37]: 1413  LLC: 2048
rand_sets[37]: 1413
Assign rand_sets[38]: 417  LLC: 2048
rand_sets[38]: 417
Assign rand_sets[39]: 472  LLC: 2048
rand_sets[39]: 472
Assign rand_sets[40]: 1340  LLC: 2048
rand_sets[40]: 1340
Assign rand_sets[41]: 852  LLC: 2048
rand_sets[41]: 852
Assign rand_sets[42]: 1365  LLC: 2048
rand_sets[42]: 1365
Assign rand_sets[43]: 47  LLC: 2048
rand_sets[43]: 47
Assign rand_sets[44]: 823  LLC: 2048
rand_sets[44]: 823
Assign rand_sets[45]: 686  LLC: 2048
rand_sets[45]: 686
Assign rand_sets[46]: 1637  LLC: 2048
rand_sets[46]: 1637
Assign rand_sets[47]: 1115  LLC: 2048
rand_sets[47]: 1115
Assign rand_sets[48]: 986  LLC: 2048
rand_sets[48]: 986
Assign rand_sets[49]: 258  LLC: 2048
rand_sets[49]: 258
Assign rand_sets[50]: 633  LLC: 2048
rand_sets[50]: 633
Assign rand_sets[51]: 920  LLC: 2048
rand_sets[51]: 920
Assign rand_sets[52]: 204  LLC: 2048
rand_sets[52]: 204
Assign rand_sets[53]: 227  LLC: 2048
rand_sets[53]: 227
Assign rand_sets[54]: 1818  LLC: 2048
rand_sets[54]: 1818
Assign rand_sets[55]: 886  LLC: 2048
rand_sets[55]: 886
Assign rand_sets[56]: 1422  LLC: 2048
rand_sets[56]: 1422
Assign rand_sets[57]: 607  LLC: 2048
rand_sets[57]: 607
Assign rand_sets[58]: 217  LLC: 2048
rand_sets[58]: 217
Assign rand_sets[59]: 1945  LLC: 2048
rand_sets[59]: 1945
Assign rand_sets[60]: 143  LLC: 2048
rand_sets[60]: 143
Assign rand_sets[61]: 1311  LLC: 2048
rand_sets[61]: 1311
Assign rand_sets[62]: 319  LLC: 2048
rand_sets[62]: 319
Assign rand_sets[63]: 1846  LLC: 2048
rand_sets[63]: 1846
 CLEAN-RRIP-POLICY-1: 1-2-1-3-0-3-0-1- CLEAN-RRIP-POLICY-2: 1-2-1-3-0-3-0-1-
 DIRTY-RRIP-POLICY-1: 2-2-1-3-1-3-0-1- DIRTY-RRIP-POLICY-2: 2-2-1-3-1-3-0-1-
 PSEL width: 10
Heartbeat CPU 0 instructions: 10000000 cycles: 7320569 heartbeat IPC: 1.36601 cumulative IPC: 1.36601 (Simulation time: 0 hr 0 min 20 sec) 
Heartbeat CPU 0 instructions: 20000000 cycles: 14626104 heartbeat IPC: 1.36883 cumulative IPC: 1.36742 (Simulation time: 0 hr 0 min 40 sec) 
Heartbeat CPU 0 instructions: 30000003 cycles: 21929611 heartbeat IPC: 1.36921 cumulative IPC: 1.36801 (Simulation time: 0 hr 0 min 59 sec) 
Heartbeat CPU 0 instructions: 40000000 cycles: 29220156 heartbeat IPC: 1.37164 cumulative IPC: 1.36892 (Simulation time: 0 hr 1 min 19 sec) 
Heartbeat CPU 0 instructions: 50000000 cycles: 36499115 heartbeat IPC: 1.37382 cumulative IPC: 1.3699 (Simulation time: 0 hr 1 min 39 sec) 
Heartbeat CPU 0 instructions: 60000000 cycles: 43781401 heartbeat IPC: 1.3732 cumulative IPC: 1.37044 (Simulation time: 0 hr 1 min 59 sec) 
Heartbeat CPU 0 instructions: 70000001 cycles: 51069012 heartbeat IPC: 1.37219 cumulative IPC: 1.37069 (Simulation time: 0 hr 2 min 19 sec) 
Heartbeat CPU 0 instructions: 80000000 cycles: 58346212 heartbeat IPC: 1.37415 cumulative IPC: 1.37113 (Simulation time: 0 hr 2 min 39 sec) 
Heartbeat CPU 0 instructions: 90000000 cycles: 65654472 heartbeat IPC: 1.36831 cumulative IPC: 1.37081 (Simulation time: 0 hr 2 min 59 sec) 
Heartbeat CPU 0 instructions: 100000000 cycles: 72948632 heartbeat IPC: 1.37096 cumulative IPC: 1.37083 (Simulation time: 0 hr 3 min 19 sec) 

Warmup complete CPU 0 instructions: 100000002 cycles: 72948633 (Simulation time: 0 hr 3 min 19 sec) 

Heartbeat CPU 0 instructions: 110000002 cycles: 114714463 heartbeat IPC: 0.23943 cumulative IPC: 0.23943 (Simulation time: 0 hr 4 min 0 sec) 
Heartbeat CPU 0 instructions: 120000000 cycles: 156249966 heartbeat IPC: 0.240758 cumulative IPC: 0.240092 (Simulation time: 0 hr 4 min 41 sec) 
Heartbeat CPU 0 instructions: 130000002 cycles: 197886353 heartbeat IPC: 0.240175 cumulative IPC: 0.24012 (Simulation time: 0 hr 5 min 22 sec) 
Heartbeat CPU 0 instructions: 140000000 cycles: 239759338 heartbeat IPC: 0.238817 cumulative IPC: 0.239793 (Simulation time: 0 hr 6 min 3 sec) 
Heartbeat CPU 0 instructions: 150000002 cycles: 281225942 heartbeat IPC: 0.241158 cumulative IPC: 0.240065 (Simulation time: 0 hr 6 min 44 sec) 
Heartbeat CPU 0 instructions: 160000000 cycles: 322617184 heartbeat IPC: 0.241597 cumulative IPC: 0.240319 (Simulation time: 0 hr 7 min 24 sec) 
Heartbeat CPU 0 instructions: 170000001 cycles: 363138544 heartbeat IPC: 0.246783 cumulative IPC: 0.241221 (Simulation time: 0 hr 8 min 5 sec) 
Heartbeat CPU 0 instructions: 180000000 cycles: 404481300 heartbeat IPC: 0.24188 cumulative IPC: 0.241304 (Simulation time: 0 hr 8 min 45 sec) 
Heartbeat CPU 0 instructions: 190000002 cycles: 445853748 heartbeat IPC: 0.241707 cumulative IPC: 0.241348 (Simulation time: 0 hr 9 min 26 sec) 
Heartbeat CPU 0 instructions: 200000000 cycles: 488647645 heartbeat IPC: 0.233678 cumulative IPC: 0.240559 (Simulation time: 0 hr 10 min 7 sec) 
Heartbeat CPU 0 instructions: 210000003 cycles: 530062610 heartbeat IPC: 0.241459 cumulative IPC: 0.24064 (Simulation time: 0 hr 10 min 48 sec) 
Heartbeat CPU 0 instructions: 220000000 cycles: 571757029 heartbeat IPC: 0.23984 cumulative IPC: 0.240573 (Simulation time: 0 hr 11 min 29 sec) 
Heartbeat CPU 0 instructions: 230000000 cycles: 613368124 heartbeat IPC: 0.240321 cumulative IPC: 0.240554 (Simulation time: 0 hr 12 min 10 sec) 
Heartbeat CPU 0 instructions: 240000000 cycles: 654647376 heartbeat IPC: 0.242252 cumulative IPC: 0.240674 (Simulation time: 0 hr 12 min 50 sec) 
Heartbeat CPU 0 instructions: 250000000 cycles: 696034027 heartbeat IPC: 0.241624 cumulative IPC: 0.240737 (Simulation time: 0 hr 13 min 30 sec) 
Heartbeat CPU 0 instructions: 260000000 cycles: 737592712 heartbeat IPC: 0.240624 cumulative IPC: 0.24073 (Simulation time: 0 hr 14 min 10 sec) 
Heartbeat CPU 0 instructions: 270000000 cycles: 779219162 heartbeat IPC: 0.240232 cumulative IPC: 0.240701 (Simulation time: 0 hr 14 min 50 sec) 
Heartbeat CPU 0 instructions: 280000000 cycles: 821244865 heartbeat IPC: 0.23795 cumulative IPC: 0.240546 (Simulation time: 0 hr 15 min 31 sec) 
Heartbeat CPU 0 instructions: 290000001 cycles: 862314217 heartbeat IPC: 0.243491 cumulative IPC: 0.2407 (Simulation time: 0 hr 16 min 11 sec) 
Heartbeat CPU 0 instructions: 300000000 cycles: 904156882 heartbeat IPC: 0.23899 cumulative IPC: 0.240614 (Simulation time: 0 hr 16 min 50 sec) 
Heartbeat CPU 0 instructions: 310000000 cycles: 946023707 heartbeat IPC: 0.238853 cumulative IPC: 0.240529 (Simulation time: 0 hr 17 min 30 sec) 
Heartbeat CPU 0 instructions: 320000000 cycles: 987662776 heartbeat IPC: 0.240159 cumulative IPC: 0.240512 (Simulation time: 0 hr 18 min 10 sec) 
Heartbeat CPU 0 instructions: 330000000 cycles: 1029351142 heartbeat IPC: 0.239875 cumulative IPC: 0.240485 (Simulation time: 0 hr 18 min 50 sec) 
Heartbeat CPU 0 instructions: 340000000 cycles: 1071716746 heartbeat IPC: 0.236041 cumulative IPC: 0.240296 (Simulation time: 0 hr 19 min 30 sec) 
Heartbeat CPU 0 instructions: 350000001 cycles: 1113371584 heartbeat IPC: 0.240068 cumulative IPC: 0.240287 (Simulation time: 0 hr 20 min 9 sec) 
Heartbeat CPU 0 instructions: 360000000 cycles: 1155154106 heartbeat IPC: 0.239334 cumulative IPC: 0.24025 (Simulation time: 0 hr 20 min 49 sec) 
Heartbeat CPU 0 instructions: 370000000 cycles: 1195892893 heartbeat IPC: 0.245466 cumulative IPC: 0.240439 (Simulation time: 0 hr 21 min 28 sec) 
Heartbeat CPU 0 instructions: 380000000 cycles: 1237811093 heartbeat IPC: 0.23856 cumulative IPC: 0.240372 (Simulation time: 0 hr 22 min 7 sec) 
Heartbeat CPU 0 instructions: 390000001 cycles: 1279197935 heartbeat IPC: 0.241623 cumulative IPC: 0.240415 (Simulation time: 0 hr 22 min 47 sec) 
Heartbeat CPU 0 instructions: 400000000 cycles: 1320647164 heartbeat IPC: 0.241259 cumulative IPC: 0.240443 (Simulation time: 0 hr 23 min 26 sec) 
Heartbeat CPU 0 instructions: 410000000 cycles: 1361862830 heartbeat IPC: 0.242626 cumulative IPC: 0.240513 (Simulation time: 0 hr 24 min 5 sec) 
Heartbeat CPU 0 instructions: 420000000 cycles: 1403088704 heartbeat IPC: 0.242566 cumulative IPC: 0.240576 (Simulation time: 0 hr 24 min 44 sec) 
Heartbeat CPU 0 instructions: 430000000 cycles: 1444490217 heartbeat IPC: 0.241537 cumulative IPC: 0.240605 (Simulation time: 0 hr 25 min 23 sec) 
Heartbeat CPU 0 instructions: 440000000 cycles: 1485857813 heartbeat IPC: 0.241735 cumulative IPC: 0.240638 (Simulation time: 0 hr 26 min 3 sec) 
Heartbeat CPU 0 instructions: 450000002 cycles: 1527127577 heartbeat IPC: 0.242308 cumulative IPC: 0.240686 (Simulation time: 0 hr 26 min 42 sec) 
Heartbeat CPU 0 instructions: 460000000 cycles: 1567851136 heartbeat IPC: 0.245558 cumulative IPC: 0.240818 (Simulation time: 0 hr 27 min 21 sec) 
Heartbeat CPU 0 instructions: 470000000 cycles: 1609471596 heartbeat IPC: 0.240266 cumulative IPC: 0.240803 (Simulation time: 0 hr 28 min 0 sec) 
Heartbeat CPU 0 instructions: 480000000 cycles: 1650803988 heartbeat IPC: 0.241941 cumulative IPC: 0.240833 (Simulation time: 0 hr 28 min 39 sec) 
Heartbeat CPU 0 instructions: 490000001 cycles: 1692202319 heartbeat IPC: 0.241556 cumulative IPC: 0.240852 (Simulation time: 0 hr 29 min 18 sec) 
Heartbeat CPU 0 instructions: 500000000 cycles: 1733793216 heartbeat IPC: 0.240437 cumulative IPC: 0.240841 (Simulation time: 0 hr 29 min 55 sec) 
Heartbeat CPU 0 instructions: 510000000 cycles: 1774782724 heartbeat IPC: 0.243965 cumulative IPC: 0.240917 (Simulation time: 0 hr 30 min 32 sec) 
Heartbeat CPU 0 instructions: 520000000 cycles: 1816706838 heartbeat IPC: 0.238526 cumulative IPC: 0.240859 (Simulation time: 0 hr 31 min 9 sec) 
Heartbeat CPU 0 instructions: 530000000 cycles: 1858018543 heartbeat IPC: 0.242062 cumulative IPC: 0.240887 (Simulation time: 0 hr 31 min 46 sec) 
Heartbeat CPU 0 instructions: 540000000 cycles: 1899133951 heartbeat IPC: 0.243218 cumulative IPC: 0.240939 (Simulation time: 0 hr 32 min 23 sec) 
Heartbeat CPU 0 instructions: 550000001 cycles: 1940980749 heartbeat IPC: 0.238967 cumulative IPC: 0.240895 (Simulation time: 0 hr 32 min 59 sec) 
Heartbeat CPU 0 instructions: 560000000 cycles: 1982956557 heartbeat IPC: 0.238232 cumulative IPC: 0.240837 (Simulation time: 0 hr 33 min 36 sec) 
Heartbeat CPU 0 instructions: 570000003 cycles: 2024756406 heartbeat IPC: 0.239235 cumulative IPC: 0.240802 (Simulation time: 0 hr 34 min 13 sec) 
Heartbeat CPU 0 instructions: 580000000 cycles: 2066525605 heartbeat IPC: 0.239411 cumulative IPC: 0.240773 (Simulation time: 0 hr 34 min 50 sec) 
Heartbeat CPU 0 instructions: 590000001 cycles: 2108819718 heartbeat IPC: 0.23644 cumulative IPC: 0.240683 (Simulation time: 0 hr 35 min 28 sec) 
Heartbeat CPU 0 instructions: 600000000 cycles: 2150793053 heartbeat IPC: 0.238246 cumulative IPC: 0.240634 (Simulation time: 0 hr 36 min 5 sec) 
Finished CPU 0 instructions: 500000000 cycles: 2077844428 cumulative IPC: 0.240634 (Simulation time: 0 hr 36 min 5 sec) 

CPU 0 Branch Prediction Accuracy: 96.2429% MPKI: 5.85335
Number of Branches: 77897976 Number of Mispredictions: 2926674
Number of LOAD Instructions: 193081861
Number of LOAD Instructions (ROI): 193081861
Number of STORE Instructions: 97310749
Number of STORE Instructions (ROI): 97310749
Total Destination Memory Operands: 106368027
Total Destination Memory Operands (ROI): 106368027
Total Source Memory Operands: 193081861
Total Source Memory Operands (ROI): 193081861
Number of DEPENDED LOADS: 6511766
Number of DEPENDED LOADS (ROI): 6511766
Number of SQ_ADDED: 106367982
Number of SQ_ADDED (ROI): 106367982
Number of LQ_ADDED: 439043549
Number of LQ_ADDED (ROI): 439043549
Number of Instructions read from trace: 600000256

ChampSim completed all CPUs

Region of Interest Statistics

CPU 0 cumulative IPC: 0.240634 instructions: 500000000 cycles: 2077844428
ITLB TOTAL     ACCESS:  150869142  HIT:  150853311  MISS:      15831
ITLB LOAD      ACCESS:  150869142  HIT:  150853311  MISS:      15831
ITLB RFO       ACCESS:          0  HIT:          0  MISS:          0
ITLB PREFETCH  ACCESS:          0  HIT:          0  MISS:          0
ITLB WRITEBACK ACCESS:          0  HIT:          0  MISS:          0
ITLB PREFETCH  REQUESTED:          0  ISSUED:          0  USEFUL:          0  USELESS:          0
ITLB TOTAL MSHR MERGED:      18276
ITLB LOAD MSHR MERGED:      18276
ITLB RFO MSHR MERGED:          0
ITLB PREFETCH MSHR MERGED:          0
ITLB WRITEBACK MSHR MERGED:          0
ITLB TOTAL ACCESSES:  150887418 HITS:  150853311 MISSES:      34107
ITLB LOAD ACCESSES:  150887418 HITS:  150853311 MISSES:      34107
ITLB RFO ACCESSES:          0 HITS:          0 MISSES:          0
ITLB PREFETCH ACCESSES:          0 HITS:          0 MISSES:          0
ITLB WRITEBACK ACCESSES:          0 HITS:          0 MISSES:          0
ITLB RQ ACCESS:  500000242
ITLB RQ TO_CACHE:  150887418
ITLB RQ MERGED:  349112824
ITLB RQ FORWARD:          0
ITLB WQ ACCESS:          0
ITLB WQ TO_CACHE:          0
ITLB WQ MERGED:          0
ITLB WQ FORWARD:          0
DTLB TOTAL     ACCESS:  199510597  HIT:  194131564  MISS:    5379033
DTLB LOAD      ACCESS:  123091686  HIT:  118073144  MISS:    5018542
DTLB RFO       ACCESS:   76418911  HIT:   76058420  MISS:     360491
DTLB PREFETCH  ACCESS:          0  HIT:          0  MISS:          0
DTLB WRITEBACK ACCESS:          0  HIT:          0  MISS:          0
DTLB PREFETCH  REQUESTED:          0  ISSUED:          0  USEFUL:          0  USELESS:          0
DTLB TOTAL MSHR MERGED:     915638
DTLB LOAD MSHR MERGED:     807085
DTLB RFO MSHR MERGED:     108553
DTLB PREFETCH MSHR MERGED:          0
DTLB WRITEBACK MSHR MERGED:          0
DTLB TOTAL ACCESSES:  200426235 HITS:  194131564 MISSES:    6294671
DTLB LOAD ACCESSES:  123898771 HITS:  118073144 MISSES:    5825627
DTLB RFO ACCESSES:   76527464 HITS:   76058420 MISSES:     469044
DTLB PREFETCH ACCESSES:          0 HITS:          0 MISSES:          0
DTLB WRITEBACK ACCESSES:          0 HITS:          0 MISSES:          0
DTLB RQ ACCESS:  243815803
DTLB RQ TO_CACHE:  200426235
DTLB RQ MERGED:   43389568
DTLB RQ FORWARD:          0
DTLB WQ ACCESS:          0
DTLB WQ TO_CACHE:          0
DTLB WQ MERGED:          0
DTLB WQ FORWARD:          0
L1D TOTAL     ACCESS:  335313544  HIT:  317217859  MISS:   18095685
L1D LOAD      ACCESS:  127605650  HIT:  118656383  MISS:    8949267
L1D RFO       ACCESS:   86949549  HIT:   86148763  MISS:     800786
L1D PREFETCH  ACCESS:  120758345  HIT:  112412713  MISS:    8345632
L1D WRITEBACK ACCESS:          0  HIT:          0  MISS:          0
L1D PREFETCH  REQUESTED:  128432221  ISSUED:  126834040  USEFUL:    1733709  USELESS:    6611935
L1D TOTAL MSHR MERGED:    4030538
L1D LOAD MSHR MERGED:     996247
L1D RFO MSHR MERGED:    1195409
L1D PREFETCH MSHR MERGED:    1838882
L1D WRITEBACK MSHR MERGED:          0
L1D TOTAL ACCESSES:  339437389 HITS:  317311166 MISSES:   22126223
L1D LOAD ACCESSES:  128432753 HITS:  118656915 MISSES:    9775838
L1D RFO ACCESSES:   88063832 HITS:   86148763 MISSES:    1915069
L1D PREFETCH ACCESSES:  122940804 HITS:  112505488 MISSES:   10435316
L1D WRITEBACK ACCESSES:          0 HITS:          0 MISSES:          0
L1D RQ ACCESS:  155184418
L1D RQ TO_CACHE:  128432221
L1D RQ MERGED:   26751665
L1D RQ FORWARD:          0
L1D WQ ACCESS:   88631385
L1D WQ TO_CACHE:   88063831
L1D WQ MERGED:     567554
L1D WQ FORWARD:      93307
L1I TOTAL     ACCESS:  175184279  HIT:  174917922  MISS:     266357
L1I LOAD      ACCESS:  175184279  HIT:  174917922  MISS:     266357
L1I RFO       ACCESS:          0  HIT:          0  MISS:          0
L1I PREFETCH  ACCESS:          0  HIT:          0  MISS:          0
L1I WRITEBACK ACCESS:          0  HIT:          0  MISS:          0
L1I PREFETCH  REQUESTED:          0  ISSUED:          0  USEFUL:          0  USELESS:          0
L1I TOTAL MSHR MERGED:     219918
L1I LOAD MSHR MERGED:     219918
L1I RFO MSHR MERGED:          0
L1I PREFETCH MSHR MERGED:          0
L1I WRITEBACK MSHR MERGED:          0
L1I TOTAL ACCESSES:  175404197 HITS:  174917922 MISSES:     486275
L1I LOAD ACCESSES:  175404197 HITS:  174917922 MISSES:     486275
L1I RFO ACCESSES:          0 HITS:          0 MISSES:          0
L1I PREFETCH ACCESSES:          0 HITS:          0 MISSES:          0
L1I WRITEBACK ACCESSES:          0 HITS:          0 MISSES:          0
L1I RQ ACCESS:  500000242
L1I RQ TO_CACHE:  175404197
L1I RQ MERGED:  324596045
L1I RQ FORWARD:          0
L1I WQ ACCESS:          0
L1I WQ TO_CACHE:          0
L1I WQ MERGED:          0
L1I WQ FORWARD:          0
L2C TOTAL     ACCESS:   23738058  HIT:   12112304  MISS:   11625754
L2C LOAD      ACCESS:    9044792  HIT:    3565057  MISS:    5479735
L2C RFO       ACCESS:     719602  HIT:     129755  MISS:     589847
L2C PREFETCH  ACCESS:    8613457  HIT:    3085987  MISS:    5527470
L2C WRITEBACK ACCESS:    5360207  HIT:    5331505  MISS:      28702
L2C PREFETCH  REQUESTED:      18062  ISSUED:      18062  USEFUL:     322896  USELESS:    5204749
L2C TOTAL MSHR MERGED:         25
L2C LOAD MSHR MERGED:          3
L2C RFO MSHR MERGED:          0
L2C PREFETCH MSHR MERGED:         22
L2C WRITEBACK MSHR MERGED:          0
L2C TOTAL ACCESSES:   23739851 HITS:   12114064 MISSES:   11625787
L2C LOAD ACCESSES:    9045948 HITS:    3566213 MISSES:    5479735
L2C RFO ACCESSES:     719660 HITS:     129813 MISSES:     589847
L2C PREFETCH ACCESSES:    8614036 HITS:    3086533 MISSES:    5527503
L2C WRITEBACK ACCESSES:    5360207 HITS:    5331505 MISSES:      28702
L2C RQ ACCESS:    9765608
L2C RQ TO_CACHE:    9764394
L2C RQ MERGED:          0
L2C RQ FORWARD:          0
L2C WQ ACCESS:    5360207
L2C WQ TO_CACHE:    5360207
L2C WQ MERGED:          0
L2C WQ FORWARD:       1760
LLC TOTAL     ACCESS:   15448670  HIT:    4943925  MISS:   10504745
LLC LOAD      ACCESS:    5479699  HIT:    1448113  MISS:    4031586
LLC RFO       ACCESS:     589843  HIT:     172295  MISS:     417548
LLC PREFETCH  ACCESS:    5527471  HIT:     679459  MISS:    4848012
LLC WRITEBACK ACCESS:    3851657  HIT:    2644058  MISS:    1207599
LLC PREFETCH  REQUESTED:          0  ISSUED:          0  USEFUL:      13156  USELESS:    4835566
LLC TOTAL MSHR MERGED:          0
LLC LOAD MSHR MERGED:          0
LLC RFO MSHR MERGED:          0
LLC PREFETCH MSHR MERGED:          0
LLC WRITEBACK MSHR MERGED:          0
LLC TOTAL ACCESSES:   15448717 HITS:    4943972 MISSES:   10504745
LLC LOAD ACCESSES:    5479732 HITS:    1448146 MISSES:    4031586
LLC RFO ACCESSES:     589847 HITS:     172299 MISSES:     417548
LLC PREFETCH ACCESSES:    5527481 HITS:     679469 MISSES:    4848012
LLC WRITEBACK ACCESSES:    3851657 HITS:    2644058 MISSES:    1207599
LLC 0 RQ ACCESS:    6069579
LLC 0 RQ TO_CACHE:    6069542
LLC 0 RQ MERGED:          0
LLC 0 RQ FORWARD:          0
LLC WQ ACCESS:    3851657
LLC WQ TO_CACHE:    3851657
LLC WQ MERGED:          0
LLC WQ FORWARD:         47
Major fault: 0 Minor fault: 44814
CPU 0 L1D next line prefetcher final stats
CPU 0 L2C PC-based stride prefetcher final stats
All Misses: 12702551
All Hits: 5918614
SD Algo Stats - Switches: 0 SRR-Repls: 4607709 BRR-Repls: 0

DRAM Statistics
 CHANNEL 0
 RQ ROW_BUFFER_HIT:    1534305  ROW_BUFFER_MISS:    7758652
 DBUS_CONGESTED:    6454223
 WQ ROW_BUFFER_HIT:     228376  ROW_BUFFER_MISS:    2473445  FULL:          0

 AVG_CONGESTED_CYCLE: 13
LOADS RETIRED: 160808997
INSTR RETIRED: 500000000
