
*** ChampSim Multicore Out-of-Order Simulator ***

Warmup Instructions: 100000000
Simulation Instructions: 500000000
Number of CPUs: 1
LLC sets: 2048
LLC ways: 16
Clean RRIP Policies: 1213232112132321 Dirty RRIP Policies: 2213132122131321 PSEL Width: 10 Track Set: 4294967295 PSEL Mask: 1 Demote Mask: 1340204313402043DS Algo: 0Window size: 0
Off-chip DRAM Size: 4096 MB Channels: 1 Width: 64-bit Data Rate: 1600 MT/s

CPU 0 runs /mnt/beegfs/iconst01/spec2017/Parest.trace.gz
NOT SORTED
TRACE STRING: /mnt/beegfs/iconst01/spec2017/Parest.trace.gz
SORTED
TRACE STRING: /mnt/beegfs/iconst01/spec2017/Parest.trace.gz
INITIAL
TRACE STRING: /mnt/beegfs/iconst01/spec2017/Parest.trace.gz

champsim_seed used: 623

CPU 0 L1D next line prefetcher
CPU 0 L2C IP-based stride prefetcher
Initialize DRRIP state
Assign rand_sets[0]: 454  LLC: 2048
rand_sets[0]: 454
Assign rand_sets[1]: 1662  LLC: 2048
rand_sets[1]: 1662
Assign rand_sets[2]: 1921  LLC: 2048
rand_sets[2]: 1921
Assign rand_sets[3]: 1131  LLC: 2048
rand_sets[3]: 1131
Assign rand_sets[4]: 331  LLC: 2048
rand_sets[4]: 331
Assign rand_sets[5]: 1531  LLC: 2048
rand_sets[5]: 1531
Assign rand_sets[6]: 482  LLC: 2048
rand_sets[6]: 482
Assign rand_sets[7]: 1275  LLC: 2048
rand_sets[7]: 1275
Assign rand_sets[8]: 1876  LLC: 2048
rand_sets[8]: 1876
Assign rand_sets[9]: 2038  LLC: 2048
rand_sets[9]: 2038
Assign rand_sets[10]: 701  LLC: 2048
rand_sets[10]: 701
Assign rand_sets[11]: 479  LLC: 2048
rand_sets[11]: 479
Assign rand_sets[12]: 892  LLC: 2048
rand_sets[12]: 892
Assign rand_sets[13]: 1820  LLC: 2048
rand_sets[13]: 1820
Assign rand_sets[14]: 1505  LLC: 2048
rand_sets[14]: 1505
Assign rand_sets[15]: 1159  LLC: 2048
rand_sets[15]: 1159
Assign rand_sets[16]: 513  LLC: 2048
rand_sets[16]: 513
Assign rand_sets[17]: 703  LLC: 2048
rand_sets[17]: 703
Assign rand_sets[18]: 561  LLC: 2048
rand_sets[18]: 561
Assign rand_sets[19]: 990  LLC: 2048
rand_sets[19]: 990
Assign rand_sets[20]: 342  LLC: 2048
rand_sets[20]: 342
Assign rand_sets[21]: 882  LLC: 2048
rand_sets[21]: 882
Assign rand_sets[22]: 15  LLC: 2048
rand_sets[22]: 15
Assign rand_sets[23]: 71  LLC: 2048
rand_sets[23]: 71
Assign rand_sets[24]: 1127  LLC: 2048
rand_sets[24]: 1127
Assign rand_sets[25]: 1382  LLC: 2048
rand_sets[25]: 1382
Assign rand_sets[26]: 647  LLC: 2048
rand_sets[26]: 647
Assign rand_sets[27]: 857  LLC: 2048
rand_sets[27]: 857
Assign rand_sets[28]: 1450  LLC: 2048
rand_sets[28]: 1450
Assign rand_sets[29]: 1160  LLC: 2048
rand_sets[29]: 1160
Assign rand_sets[30]: 1852  LLC: 2048
rand_sets[30]: 1852
Assign rand_sets[31]: 1881  LLC: 2048
rand_sets[31]: 1881
Assign rand_sets[32]: 1770  LLC: 2048
rand_sets[32]: 1770
Assign rand_sets[33]: 1622  LLC: 2048
rand_sets[33]: 1622
Assign rand_sets[34]: 275  LLC: 2048
rand_sets[34]: 275
Assign rand_sets[35]: 635  LLC: 2048
rand_sets[35]: 635
Assign rand_sets[36]: 466  LLC: 2048
rand_sets[36]: 466
Assign rand_sets[37]: 1413  LLC: 2048
rand_sets[37]: 1413
Assign rand_sets[38]: 417  LLC: 2048
rand_sets[38]: 417
Assign rand_sets[39]: 472  LLC: 2048
rand_sets[39]: 472
Assign rand_sets[40]: 1340  LLC: 2048
rand_sets[40]: 1340
Assign rand_sets[41]: 852  LLC: 2048
rand_sets[41]: 852
Assign rand_sets[42]: 1365  LLC: 2048
rand_sets[42]: 1365
Assign rand_sets[43]: 47  LLC: 2048
rand_sets[43]: 47
Assign rand_sets[44]: 823  LLC: 2048
rand_sets[44]: 823
Assign rand_sets[45]: 686  LLC: 2048
rand_sets[45]: 686
Assign rand_sets[46]: 1637  LLC: 2048
rand_sets[46]: 1637
Assign rand_sets[47]: 1115  LLC: 2048
rand_sets[47]: 1115
Assign rand_sets[48]: 986  LLC: 2048
rand_sets[48]: 986
Assign rand_sets[49]: 258  LLC: 2048
rand_sets[49]: 258
Assign rand_sets[50]: 633  LLC: 2048
rand_sets[50]: 633
Assign rand_sets[51]: 920  LLC: 2048
rand_sets[51]: 920
Assign rand_sets[52]: 204  LLC: 2048
rand_sets[52]: 204
Assign rand_sets[53]: 227  LLC: 2048
rand_sets[53]: 227
Assign rand_sets[54]: 1818  LLC: 2048
rand_sets[54]: 1818
Assign rand_sets[55]: 886  LLC: 2048
rand_sets[55]: 886
Assign rand_sets[56]: 1422  LLC: 2048
rand_sets[56]: 1422
Assign rand_sets[57]: 607  LLC: 2048
rand_sets[57]: 607
Assign rand_sets[58]: 217  LLC: 2048
rand_sets[58]: 217
Assign rand_sets[59]: 1945  LLC: 2048
rand_sets[59]: 1945
Assign rand_sets[60]: 143  LLC: 2048
rand_sets[60]: 143
Assign rand_sets[61]: 1311  LLC: 2048
rand_sets[61]: 1311
Assign rand_sets[62]: 319  LLC: 2048
rand_sets[62]: 319
Assign rand_sets[63]: 1846  LLC: 2048
rand_sets[63]: 1846
 CLEAN-RRIP-POLICY-1: 1-2-1-3-2-3-2-1- CLEAN-RRIP-POLICY-2: 1-2-1-3-2-3-2-1-
 DIRTY-RRIP-POLICY-1: 2-2-1-3-1-3-2-1- DIRTY-RRIP-POLICY-2: 2-2-1-3-1-3-2-1-
 PSEL width: 10
Heartbeat CPU 0 instructions: 10000001 cycles: 4387174 heartbeat IPC: 2.27937 cumulative IPC: 2.27937 (Simulation time: 0 hr 0 min 14 sec) 
Heartbeat CPU 0 instructions: 20000000 cycles: 8781429 heartbeat IPC: 2.2757 cumulative IPC: 2.27753 (Simulation time: 0 hr 0 min 28 sec) 
Heartbeat CPU 0 instructions: 30000003 cycles: 13213414 heartbeat IPC: 2.25633 cumulative IPC: 2.27042 (Simulation time: 0 hr 0 min 42 sec) 
Heartbeat CPU 0 instructions: 40000000 cycles: 17644161 heartbeat IPC: 2.25696 cumulative IPC: 2.26704 (Simulation time: 0 hr 0 min 55 sec) 
Heartbeat CPU 0 instructions: 50000000 cycles: 22052751 heartbeat IPC: 2.2683 cumulative IPC: 2.26729 (Simulation time: 0 hr 1 min 9 sec) 
Heartbeat CPU 0 instructions: 60000000 cycles: 26458751 heartbeat IPC: 2.26963 cumulative IPC: 2.26768 (Simulation time: 0 hr 1 min 23 sec) 
Heartbeat CPU 0 instructions: 70000000 cycles: 30859841 heartbeat IPC: 2.27216 cumulative IPC: 2.26832 (Simulation time: 0 hr 1 min 37 sec) 
Heartbeat CPU 0 instructions: 80000000 cycles: 35255623 heartbeat IPC: 2.27491 cumulative IPC: 2.26914 (Simulation time: 0 hr 1 min 51 sec) 
Heartbeat CPU 0 instructions: 90000000 cycles: 39650064 heartbeat IPC: 2.2756 cumulative IPC: 2.26986 (Simulation time: 0 hr 2 min 5 sec) 
Heartbeat CPU 0 instructions: 100000000 cycles: 44047548 heartbeat IPC: 2.27403 cumulative IPC: 2.27027 (Simulation time: 0 hr 2 min 19 sec) 

Warmup complete CPU 0 instructions: 100000002 cycles: 44047558 (Simulation time: 0 hr 2 min 19 sec) 

Heartbeat CPU 0 instructions: 110000000 cycles: 54198847 heartbeat IPC: 0.985096 cumulative IPC: 0.985096 (Simulation time: 0 hr 2 min 37 sec) 
Heartbeat CPU 0 instructions: 120000000 cycles: 63743061 heartbeat IPC: 1.04776 cumulative IPC: 1.01546 (Simulation time: 0 hr 2 min 54 sec) 
Heartbeat CPU 0 instructions: 130000000 cycles: 73329306 heartbeat IPC: 1.04316 cumulative IPC: 1.02453 (Simulation time: 0 hr 3 min 12 sec) 
Heartbeat CPU 0 instructions: 140000000 cycles: 83123221 heartbeat IPC: 1.02104 cumulative IPC: 1.02366 (Simulation time: 0 hr 3 min 30 sec) 
Heartbeat CPU 0 instructions: 150000000 cycles: 94302494 heartbeat IPC: 0.894513 cumulative IPC: 0.994927 (Simulation time: 0 hr 3 min 48 sec) 
Heartbeat CPU 0 instructions: 160000000 cycles: 104655310 heartbeat IPC: 0.965921 cumulative IPC: 0.989972 (Simulation time: 0 hr 4 min 6 sec) 
Heartbeat CPU 0 instructions: 170000000 cycles: 114825759 heartbeat IPC: 0.983241 cumulative IPC: 0.989005 (Simulation time: 0 hr 4 min 23 sec) 
Heartbeat CPU 0 instructions: 180000000 cycles: 124991569 heartbeat IPC: 0.983689 cumulative IPC: 0.988337 (Simulation time: 0 hr 4 min 41 sec) 
Heartbeat CPU 0 instructions: 190000002 cycles: 135268006 heartbeat IPC: 0.9731 cumulative IPC: 0.986621 (Simulation time: 0 hr 4 min 59 sec) 
Heartbeat CPU 0 instructions: 200000000 cycles: 145018252 heartbeat IPC: 1.02561 cumulative IPC: 0.990386 (Simulation time: 0 hr 5 min 17 sec) 
Heartbeat CPU 0 instructions: 210000000 cycles: 155257746 heartbeat IPC: 0.976611 cumulative IPC: 0.989118 (Simulation time: 0 hr 5 min 35 sec) 
Heartbeat CPU 0 instructions: 220000000 cycles: 164843659 heartbeat IPC: 1.0432 cumulative IPC: 0.99341 (Simulation time: 0 hr 5 min 53 sec) 
Heartbeat CPU 0 instructions: 230000001 cycles: 176980398 heartbeat IPC: 0.823945 cumulative IPC: 0.977937 (Simulation time: 0 hr 6 min 12 sec) 
Heartbeat CPU 0 instructions: 240000000 cycles: 187577122 heartbeat IPC: 0.943688 cumulative IPC: 0.975409 (Simulation time: 0 hr 6 min 30 sec) 
Heartbeat CPU 0 instructions: 250000002 cycles: 197695913 heartbeat IPC: 0.988261 cumulative IPC: 0.976255 (Simulation time: 0 hr 6 min 47 sec) 
Heartbeat CPU 0 instructions: 260000000 cycles: 207670422 heartbeat IPC: 1.00256 cumulative IPC: 0.977858 (Simulation time: 0 hr 7 min 5 sec) 
Heartbeat CPU 0 instructions: 270000001 cycles: 217588490 heartbeat IPC: 1.00826 cumulative IPC: 0.979596 (Simulation time: 0 hr 7 min 23 sec) 
Heartbeat CPU 0 instructions: 280000000 cycles: 227779202 heartbeat IPC: 0.981286 cumulative IPC: 0.97969 (Simulation time: 0 hr 7 min 41 sec) 
Heartbeat CPU 0 instructions: 290000002 cycles: 237382323 heartbeat IPC: 1.04133 cumulative IPC: 0.982751 (Simulation time: 0 hr 7 min 58 sec) 
Heartbeat CPU 0 instructions: 300000000 cycles: 247467333 heartbeat IPC: 0.99157 cumulative IPC: 0.983189 (Simulation time: 0 hr 8 min 16 sec) 
Heartbeat CPU 0 instructions: 310000000 cycles: 257046798 heartbeat IPC: 1.0439 cumulative IPC: 0.985919 (Simulation time: 0 hr 8 min 34 sec) 
Heartbeat CPU 0 instructions: 320000000 cycles: 266670580 heartbeat IPC: 1.03909 cumulative IPC: 0.988218 (Simulation time: 0 hr 8 min 52 sec) 
Heartbeat CPU 0 instructions: 330000003 cycles: 276428160 heartbeat IPC: 1.02484 cumulative IPC: 0.989756 (Simulation time: 0 hr 9 min 10 sec) 
Heartbeat CPU 0 instructions: 340000000 cycles: 286756963 heartbeat IPC: 0.968166 cumulative IPC: 0.988837 (Simulation time: 0 hr 9 min 28 sec) 
Heartbeat CPU 0 instructions: 350000000 cycles: 297133543 heartbeat IPC: 0.963709 cumulative IPC: 0.987807 (Simulation time: 0 hr 9 min 46 sec) 
Heartbeat CPU 0 instructions: 360000000 cycles: 307245259 heartbeat IPC: 0.988952 cumulative IPC: 0.987851 (Simulation time: 0 hr 10 min 3 sec) 
Heartbeat CPU 0 instructions: 370000000 cycles: 317187397 heartbeat IPC: 1.00582 cumulative IPC: 0.988505 (Simulation time: 0 hr 10 min 21 sec) 
Heartbeat CPU 0 instructions: 380000000 cycles: 327021706 heartbeat IPC: 1.01685 cumulative IPC: 0.98949 (Simulation time: 0 hr 10 min 39 sec) 
Heartbeat CPU 0 instructions: 390000002 cycles: 336748688 heartbeat IPC: 1.02807 cumulative IPC: 0.990772 (Simulation time: 0 hr 10 min 56 sec) 
Heartbeat CPU 0 instructions: 400000000 cycles: 346811481 heartbeat IPC: 0.99376 cumulative IPC: 0.990871 (Simulation time: 0 hr 11 min 14 sec) 
Heartbeat CPU 0 instructions: 410000000 cycles: 356374666 heartbeat IPC: 1.04568 cumulative IPC: 0.992549 (Simulation time: 0 hr 11 min 32 sec) 
Heartbeat CPU 0 instructions: 420000000 cycles: 367475545 heartbeat IPC: 0.90083 cumulative IPC: 0.989401 (Simulation time: 0 hr 11 min 50 sec) 
Heartbeat CPU 0 instructions: 430000000 cycles: 378361979 heartbeat IPC: 0.918574 cumulative IPC: 0.987095 (Simulation time: 0 hr 12 min 8 sec) 
Heartbeat CPU 0 instructions: 440000000 cycles: 388519546 heartbeat IPC: 0.984488 cumulative IPC: 0.987018 (Simulation time: 0 hr 12 min 26 sec) 
Heartbeat CPU 0 instructions: 450000000 cycles: 398661059 heartbeat IPC: 0.986046 cumulative IPC: 0.98699 (Simulation time: 0 hr 12 min 43 sec) 
Heartbeat CPU 0 instructions: 460000000 cycles: 408813001 heartbeat IPC: 0.985033 cumulative IPC: 0.986936 (Simulation time: 0 hr 13 min 1 sec) 
Heartbeat CPU 0 instructions: 470000001 cycles: 419002451 heartbeat IPC: 0.981407 cumulative IPC: 0.986785 (Simulation time: 0 hr 13 min 19 sec) 
Heartbeat CPU 0 instructions: 480000000 cycles: 428733365 heartbeat IPC: 1.02765 cumulative IPC: 0.987819 (Simulation time: 0 hr 13 min 37 sec) 
Heartbeat CPU 0 instructions: 490000002 cycles: 438895782 heartbeat IPC: 0.984018 cumulative IPC: 0.987721 (Simulation time: 0 hr 13 min 54 sec) 
Heartbeat CPU 0 instructions: 500000000 cycles: 448755039 heartbeat IPC: 1.01427 cumulative IPC: 0.988368 (Simulation time: 0 hr 14 min 12 sec) 
Heartbeat CPU 0 instructions: 510000000 cycles: 458386205 heartbeat IPC: 1.0383 cumulative IPC: 0.989529 (Simulation time: 0 hr 14 min 30 sec) 
Heartbeat CPU 0 instructions: 520000000 cycles: 468223448 heartbeat IPC: 1.01654 cumulative IPC: 0.990155 (Simulation time: 0 hr 14 min 47 sec) 
Heartbeat CPU 0 instructions: 530000001 cycles: 478782372 heartbeat IPC: 0.947066 cumulative IPC: 0.989109 (Simulation time: 0 hr 15 min 6 sec) 
Heartbeat CPU 0 instructions: 540000000 cycles: 489295362 heartbeat IPC: 0.951204 cumulative IPC: 0.988214 (Simulation time: 0 hr 15 min 23 sec) 
Heartbeat CPU 0 instructions: 550000003 cycles: 499554583 heartbeat IPC: 0.974733 cumulative IPC: 0.98791 (Simulation time: 0 hr 15 min 41 sec) 
Heartbeat CPU 0 instructions: 560000000 cycles: 509666051 heartbeat IPC: 0.988976 cumulative IPC: 0.987933 (Simulation time: 0 hr 15 min 58 sec) 
Heartbeat CPU 0 instructions: 570000002 cycles: 519694633 heartbeat IPC: 0.99715 cumulative IPC: 0.988128 (Simulation time: 0 hr 16 min 16 sec) 
Heartbeat CPU 0 instructions: 580000000 cycles: 529622657 heartbeat IPC: 1.00725 cumulative IPC: 0.988519 (Simulation time: 0 hr 16 min 33 sec) 
Heartbeat CPU 0 instructions: 590000002 cycles: 539746349 heartbeat IPC: 0.987782 cumulative IPC: 0.988504 (Simulation time: 0 hr 16 min 51 sec) 
Heartbeat CPU 0 instructions: 600000000 cycles: 549595380 heartbeat IPC: 1.01533 cumulative IPC: 0.989026 (Simulation time: 0 hr 17 min 9 sec) 
Finished CPU 0 instructions: 500000000 cycles: 505547836 cumulative IPC: 0.989026 (Simulation time: 0 hr 17 min 9 sec) 

CPU 0 Branch Prediction Accuracy: 97.8526% MPKI: 2.66709
Number of Branches: 62099103 Number of Mispredictions: 1333545
Number of LOAD Instructions: 210576465
Number of LOAD Instructions (ROI): 210576465
Number of STORE Instructions: 16915507
Number of STORE Instructions (ROI): 16915507
Total Destination Memory Operands: 16918869
Total Destination Memory Operands (ROI): 16918869
Total Source Memory Operands: 210576465
Total Source Memory Operands (ROI): 210576465
Number of DEPENDED LOADS: 329999
Number of DEPENDED LOADS (ROI): 329999
Number of SQ_ADDED: 16918826
Number of SQ_ADDED (ROI): 16918826
Number of LQ_ADDED: 210615583
Number of LQ_ADDED (ROI): 210615583
Number of Instructions read from trace: 600000257

ChampSim completed all CPUs

Region of Interest Statistics

CPU 0 cumulative IPC: 0.989026 instructions: 500000000 cycles: 505547836
ITLB TOTAL     ACCESS:   76298938  HIT:   76298900  MISS:         38
ITLB LOAD      ACCESS:   76298938  HIT:   76298900  MISS:         38
ITLB RFO       ACCESS:          0  HIT:          0  MISS:          0
ITLB PREFETCH  ACCESS:          0  HIT:          0  MISS:          0
ITLB WRITEBACK ACCESS:          0  HIT:          0  MISS:          0
ITLB PREFETCH  REQUESTED:          0  ISSUED:          0  USEFUL:          0  USELESS:          0
ITLB TOTAL MSHR MERGED:         37
ITLB LOAD MSHR MERGED:         37
ITLB RFO MSHR MERGED:          0
ITLB PREFETCH MSHR MERGED:          0
ITLB WRITEBACK MSHR MERGED:          0
ITLB TOTAL ACCESSES:   76298975 HITS:   76298900 MISSES:         75
ITLB LOAD ACCESSES:   76298975 HITS:   76298900 MISSES:         75
ITLB RFO ACCESSES:          0 HITS:          0 MISSES:          0
ITLB PREFETCH ACCESSES:          0 HITS:          0 MISSES:          0
ITLB WRITEBACK ACCESSES:          0 HITS:          0 MISSES:          0
ITLB RQ ACCESS:  500000188
ITLB RQ TO_CACHE:   76298976
ITLB RQ MERGED:  423701212
ITLB RQ FORWARD:          0
ITLB WQ ACCESS:          0
ITLB WQ TO_CACHE:          0
ITLB WQ MERGED:          0
ITLB WQ FORWARD:          0
DTLB TOTAL     ACCESS:  136889630  HIT:  136686837  MISS:     202793
DTLB LOAD      ACCESS:  128827473  HIT:  128627401  MISS:     200072
DTLB RFO       ACCESS:    8062157  HIT:    8059436  MISS:       2721
DTLB PREFETCH  ACCESS:          0  HIT:          0  MISS:          0
DTLB WRITEBACK ACCESS:          0  HIT:          0  MISS:          0
DTLB PREFETCH  REQUESTED:          0  ISSUED:          0  USEFUL:          0  USELESS:          0
DTLB TOTAL MSHR MERGED:     446145
DTLB LOAD MSHR MERGED:     442450
DTLB RFO MSHR MERGED:       3695
DTLB PREFETCH MSHR MERGED:          0
DTLB WRITEBACK MSHR MERGED:          0
DTLB TOTAL ACCESSES:  137335775 HITS:  136686837 MISSES:     648938
DTLB LOAD ACCESSES:  129269923 HITS:  128627401 MISSES:     642522
DTLB RFO ACCESSES:    8065852 HITS:    8059436 MISSES:       6416
DTLB PREFETCH ACCESSES:          0 HITS:          0 MISSES:          0
DTLB WRITEBACK ACCESSES:          0 HITS:          0 MISSES:          0
DTLB RQ ACCESS:  189434562
DTLB RQ TO_CACHE:  137335775
DTLB RQ MERGED:   52098787
DTLB RQ FORWARD:          0
DTLB WQ ACCESS:          0
DTLB WQ TO_CACHE:          0
DTLB WQ MERGED:          0
DTLB WQ FORWARD:          0
L1D TOTAL     ACCESS:  125858409  HIT:  108301481  MISS:   17556928
L1D LOAD      ACCESS:   72560969  HIT:   62329942  MISS:   10231027
L1D RFO       ACCESS:   14012908  HIT:   13860079  MISS:     152829
L1D PREFETCH  ACCESS:   39284532  HIT:   32111460  MISS:    7173072
L1D WRITEBACK ACCESS:          0  HIT:          0  MISS:          0
L1D PREFETCH  REQUESTED:   85679469  ISSUED:   84356113  USEFUL:    5913696  USELESS:    1259387
L1D TOTAL MSHR MERGED:   31390474
L1D LOAD MSHR MERGED:   18255794
L1D RFO MSHR MERGED:     265650
L1D PREFETCH MSHR MERGED:   12869030
L1D WRITEBACK MSHR MERGED:          0
L1D TOTAL ACCESSES:  157249409 HITS:  108302008 MISSES:   48947401
L1D LOAD ACCESSES:   85679476 HITS:   62329949 MISSES:   23349527
L1D RFO ACCESSES:   14278536 HITS:   13860079 MISSES:     418457
L1D PREFETCH ACCESSES:   57291397 HITS:   32111980 MISSES:   25179417
L1D WRITEBACK ACCESSES:          0 HITS:          0 MISSES:          0
L1D RQ ACCESS:  175145540
L1D RQ TO_CACHE:   85679469
L1D RQ MERGED:   89466064
L1D RQ FORWARD:          0
L1D WQ ACCESS:   14289037
L1D WQ TO_CACHE:   14278536
L1D WQ MERGED:      10501
L1D WQ FORWARD:        527
L1I TOTAL     ACCESS:   93314257  HIT:   93312461  MISS:       1796
L1I LOAD      ACCESS:   93314257  HIT:   93312461  MISS:       1796
L1I RFO       ACCESS:          0  HIT:          0  MISS:          0
L1I PREFETCH  ACCESS:          0  HIT:          0  MISS:          0
L1I WRITEBACK ACCESS:          0  HIT:          0  MISS:          0
L1I PREFETCH  REQUESTED:          0  ISSUED:          0  USEFUL:          0  USELESS:          0
L1I TOTAL MSHR MERGED:       2316
L1I LOAD MSHR MERGED:       2316
L1I RFO MSHR MERGED:          0
L1I PREFETCH MSHR MERGED:          0
L1I WRITEBACK MSHR MERGED:          0
L1I TOTAL ACCESSES:   93316573 HITS:   93312461 MISSES:       4112
L1I LOAD ACCESSES:   93316573 HITS:   93312461 MISSES:       4112
L1I RFO ACCESSES:          0 HITS:          0 MISSES:          0
L1I PREFETCH ACCESSES:          0 HITS:          0 MISSES:          0
L1I WRITEBACK ACCESSES:          0 HITS:          0 MISSES:          0
L1I RQ ACCESS:  500000187
L1I RQ TO_CACHE:   93316573
L1I RQ MERGED:  406683614
L1I RQ FORWARD:          0
L1I WQ ACCESS:          0
L1I WQ TO_CACHE:          0
L1I WQ MERGED:          0
L1I WQ FORWARD:          0
L2C TOTAL     ACCESS:   20900511  HIT:    8671725  MISS:   12228786
L2C LOAD      ACCESS:    5095508  HIT:    2144341  MISS:    2951167
L2C RFO       ACCESS:     152807  HIT:       6502  MISS:     146305
L2C PREFETCH  ACCESS:   13879442  HIT:    4748239  MISS:    9131203
L2C WRITEBACK ACCESS:    1772754  HIT:    1772643  MISS:        111
L2C PREFETCH  REQUESTED:    1798073  ISSUED:    1798073  USEFUL:    1068256  USELESS:    8064568
L2C TOTAL MSHR MERGED:      89080
L2C LOAD MSHR MERGED:      19895
L2C RFO MSHR MERGED:          0
L2C PREFETCH MSHR MERGED:      69185
L2C WRITEBACK MSHR MERGED:          0
L2C TOTAL ACCESSES:   21012412 HITS:    8671760 MISSES:   12340652
L2C LOAD ACCESSES:    5095529 HITS:    2144362 MISSES:    2951167
L2C RFO ACCESSES:     152807 HITS:       6502 MISSES:     146305
L2C PREFETCH ACCESSES:   13991322 HITS:    4748253 MISSES:    9243069
L2C WRITEBACK ACCESSES:    1772754 HITS:    1772643 MISSES:        111
L2C RQ ACCESS:    5248336
L2C RQ TO_CACHE:    5248315
L2C RQ MERGED:          0
L2C RQ FORWARD:          0
L2C WQ ACCESS:    1772754
L2C WQ TO_CACHE:    1772754
L2C WQ MERGED:          0
L2C WQ FORWARD:         35
LLC TOTAL     ACCESS:   12532336  HIT:    6358934  MISS:    6173402
LLC LOAD      ACCESS:    2931256  HIT:    2223126  MISS:     708130
LLC RFO       ACCESS:     146305  HIT:      81046  MISS:      65259
LLC PREFETCH  ACCESS:    9168794  HIT:    3824769  MISS:    5344025
LLC WRITEBACK ACCESS:     285981  HIT:     229993  MISS:      55988
LLC PREFETCH  REQUESTED:          0  ISSUED:          0  USEFUL:      22570  USELESS:    5320923
LLC TOTAL MSHR MERGED:        829
LLC LOAD MSHR MERGED:        174
LLC RFO MSHR MERGED:          0
LLC PREFETCH MSHR MERGED:        655
LLC WRITEBACK MSHR MERGED:          0
LLC TOTAL ACCESSES:   12533194 HITS:    6358963 MISSES:    6174231
LLC LOAD ACCESSES:    2931272 HITS:    2223142 MISSES:     708130
LLC RFO ACCESSES:     146305 HITS:      81046 MISSES:      65259
LLC PREFETCH ACCESSES:    9169636 HITS:    3824782 MISSES:    5344854
LLC WRITEBACK ACCESSES:     285981 HITS:     229993 MISSES:      55988
LLC 0 RQ ACCESS:    3077577
LLC 0 RQ TO_CACHE:    3077561
LLC 0 RQ MERGED:          0
LLC 0 RQ FORWARD:          0
LLC WQ ACCESS:     285981
LLC WQ TO_CACHE:     285981
LLC WQ MERGED:          0
LLC WQ FORWARD:         29
Major fault: 0 Minor fault: 6524
CPU 0 L1D next line prefetcher final stats
CPU 0 L2C PC-based stride prefetcher final stats
All Misses: 7970281
All Hits: 7087070
SD Algo Stats - Switches: 0 SRR-Repls: 727822 BRR-Repls: 0

DRAM Statistics
 CHANNEL 0
 RQ ROW_BUFFER_HIT:    5274667  ROW_BUFFER_MISS:     835279
 DBUS_CONGESTED:    2135069
 WQ ROW_BUFFER_HIT:       7001  ROW_BUFFER_MISS:      83560  FULL:          0

 AVG_CONGESTED_CYCLE: 11
LOADS RETIRED: 175418235
INSTR RETIRED: 500000000
