
*** ChampSim Multicore Out-of-Order Simulator ***

Warmup Instructions: 100000000
Simulation Instructions: 500000000
Number of CPUs: 1
LLC sets: 2048
LLC ways: 16
Clean RRIP Policies: 2213232222132322 Dirty RRIP Policies: 1203130212031302 PSEL Width: 10 Track Set: 4294967295 PSEL Mask: 1 Demote Mask: 1040100010401000DS Algo: 0Window size: 0
Off-chip DRAM Size: 4096 MB Channels: 1 Width: 64-bit Data Rate: 1600 MT/s

CPU 0 runs /mnt/beegfs/iconst01/spec2017/Mcf.trace.gz
NOT SORTED
TRACE STRING: /mnt/beegfs/iconst01/spec2017/Mcf.trace.gz
SORTED
TRACE STRING: /mnt/beegfs/iconst01/spec2017/Mcf.trace.gz
INITIAL
TRACE STRING: /mnt/beegfs/iconst01/spec2017/Mcf.trace.gz

champsim_seed used: 278

CPU 0 L1D next line prefetcher
CPU 0 L2C IP-based stride prefetcher
Initialize DRRIP state
Assign rand_sets[0]: 454  LLC: 2048
rand_sets[0]: 454
Assign rand_sets[1]: 1662  LLC: 2048
rand_sets[1]: 1662
Assign rand_sets[2]: 1921  LLC: 2048
rand_sets[2]: 1921
Assign rand_sets[3]: 1131  LLC: 2048
rand_sets[3]: 1131
Assign rand_sets[4]: 331  LLC: 2048
rand_sets[4]: 331
Assign rand_sets[5]: 1531  LLC: 2048
rand_sets[5]: 1531
Assign rand_sets[6]: 482  LLC: 2048
rand_sets[6]: 482
Assign rand_sets[7]: 1275  LLC: 2048
rand_sets[7]: 1275
Assign rand_sets[8]: 1876  LLC: 2048
rand_sets[8]: 1876
Assign rand_sets[9]: 2038  LLC: 2048
rand_sets[9]: 2038
Assign rand_sets[10]: 701  LLC: 2048
rand_sets[10]: 701
Assign rand_sets[11]: 479  LLC: 2048
rand_sets[11]: 479
Assign rand_sets[12]: 892  LLC: 2048
rand_sets[12]: 892
Assign rand_sets[13]: 1820  LLC: 2048
rand_sets[13]: 1820
Assign rand_sets[14]: 1505  LLC: 2048
rand_sets[14]: 1505
Assign rand_sets[15]: 1159  LLC: 2048
rand_sets[15]: 1159
Assign rand_sets[16]: 513  LLC: 2048
rand_sets[16]: 513
Assign rand_sets[17]: 703  LLC: 2048
rand_sets[17]: 703
Assign rand_sets[18]: 561  LLC: 2048
rand_sets[18]: 561
Assign rand_sets[19]: 990  LLC: 2048
rand_sets[19]: 990
Assign rand_sets[20]: 342  LLC: 2048
rand_sets[20]: 342
Assign rand_sets[21]: 882  LLC: 2048
rand_sets[21]: 882
Assign rand_sets[22]: 15  LLC: 2048
rand_sets[22]: 15
Assign rand_sets[23]: 71  LLC: 2048
rand_sets[23]: 71
Assign rand_sets[24]: 1127  LLC: 2048
rand_sets[24]: 1127
Assign rand_sets[25]: 1382  LLC: 2048
rand_sets[25]: 1382
Assign rand_sets[26]: 647  LLC: 2048
rand_sets[26]: 647
Assign rand_sets[27]: 857  LLC: 2048
rand_sets[27]: 857
Assign rand_sets[28]: 1450  LLC: 2048
rand_sets[28]: 1450
Assign rand_sets[29]: 1160  LLC: 2048
rand_sets[29]: 1160
Assign rand_sets[30]: 1852  LLC: 2048
rand_sets[30]: 1852
Assign rand_sets[31]: 1881  LLC: 2048
rand_sets[31]: 1881
Assign rand_sets[32]: 1770  LLC: 2048
rand_sets[32]: 1770
Assign rand_sets[33]: 1622  LLC: 2048
rand_sets[33]: 1622
Assign rand_sets[34]: 275  LLC: 2048
rand_sets[34]: 275
Assign rand_sets[35]: 635  LLC: 2048
rand_sets[35]: 635
Assign rand_sets[36]: 466  LLC: 2048
rand_sets[36]: 466
Assign rand_sets[37]: 1413  LLC: 2048
rand_sets[37]: 1413
Assign rand_sets[38]: 417  LLC: 2048
rand_sets[38]: 417
Assign rand_sets[39]: 472  LLC: 2048
rand_sets[39]: 472
Assign rand_sets[40]: 1340  LLC: 2048
rand_sets[40]: 1340
Assign rand_sets[41]: 852  LLC: 2048
rand_sets[41]: 852
Assign rand_sets[42]: 1365  LLC: 2048
rand_sets[42]: 1365
Assign rand_sets[43]: 47  LLC: 2048
rand_sets[43]: 47
Assign rand_sets[44]: 823  LLC: 2048
rand_sets[44]: 823
Assign rand_sets[45]: 686  LLC: 2048
rand_sets[45]: 686
Assign rand_sets[46]: 1637  LLC: 2048
rand_sets[46]: 1637
Assign rand_sets[47]: 1115  LLC: 2048
rand_sets[47]: 1115
Assign rand_sets[48]: 986  LLC: 2048
rand_sets[48]: 986
Assign rand_sets[49]: 258  LLC: 2048
rand_sets[49]: 258
Assign rand_sets[50]: 633  LLC: 2048
rand_sets[50]: 633
Assign rand_sets[51]: 920  LLC: 2048
rand_sets[51]: 920
Assign rand_sets[52]: 204  LLC: 2048
rand_sets[52]: 204
Assign rand_sets[53]: 227  LLC: 2048
rand_sets[53]: 227
Assign rand_sets[54]: 1818  LLC: 2048
rand_sets[54]: 1818
Assign rand_sets[55]: 886  LLC: 2048
rand_sets[55]: 886
Assign rand_sets[56]: 1422  LLC: 2048
rand_sets[56]: 1422
Assign rand_sets[57]: 607  LLC: 2048
rand_sets[57]: 607
Assign rand_sets[58]: 217  LLC: 2048
rand_sets[58]: 217
Assign rand_sets[59]: 1945  LLC: 2048
rand_sets[59]: 1945
Assign rand_sets[60]: 143  LLC: 2048
rand_sets[60]: 143
Assign rand_sets[61]: 1311  LLC: 2048
rand_sets[61]: 1311
Assign rand_sets[62]: 319  LLC: 2048
rand_sets[62]: 319
Assign rand_sets[63]: 1846  LLC: 2048
rand_sets[63]: 1846
 CLEAN-RRIP-POLICY-1: 2-2-1-3-2-3-2-2- CLEAN-RRIP-POLICY-2: 2-2-1-3-2-3-2-2-
 DIRTY-RRIP-POLICY-1: 1-2-0-3-1-3-0-2- DIRTY-RRIP-POLICY-2: 1-2-0-3-1-3-0-2-
 PSEL width: 10
Heartbeat CPU 0 instructions: 10000002 cycles: 6248882 heartbeat IPC: 1.60029 cumulative IPC: 1.60029 (Simulation time: 0 hr 0 min 13 sec) 
Heartbeat CPU 0 instructions: 20000000 cycles: 12470679 heartbeat IPC: 1.60725 cumulative IPC: 1.60376 (Simulation time: 0 hr 0 min 26 sec) 
Heartbeat CPU 0 instructions: 30000000 cycles: 18681773 heartbeat IPC: 1.61002 cumulative IPC: 1.60584 (Simulation time: 0 hr 0 min 39 sec) 
Heartbeat CPU 0 instructions: 40000000 cycles: 24893079 heartbeat IPC: 1.60997 cumulative IPC: 1.60687 (Simulation time: 0 hr 0 min 52 sec) 
Heartbeat CPU 0 instructions: 50000003 cycles: 31106124 heartbeat IPC: 1.60952 cumulative IPC: 1.6074 (Simulation time: 0 hr 1 min 5 sec) 
Heartbeat CPU 0 instructions: 60000000 cycles: 37302768 heartbeat IPC: 1.61378 cumulative IPC: 1.60846 (Simulation time: 0 hr 1 min 18 sec) 
Heartbeat CPU 0 instructions: 70000003 cycles: 43521751 heartbeat IPC: 1.60798 cumulative IPC: 1.60839 (Simulation time: 0 hr 1 min 31 sec) 
Heartbeat CPU 0 instructions: 80000000 cycles: 49752658 heartbeat IPC: 1.6049 cumulative IPC: 1.60795 (Simulation time: 0 hr 1 min 45 sec) 
Heartbeat CPU 0 instructions: 90000000 cycles: 55982080 heartbeat IPC: 1.60529 cumulative IPC: 1.60766 (Simulation time: 0 hr 1 min 58 sec) 
Heartbeat CPU 0 instructions: 100000000 cycles: 62201469 heartbeat IPC: 1.60787 cumulative IPC: 1.60768 (Simulation time: 0 hr 2 min 11 sec) 

Warmup complete CPU 0 instructions: 100000001 cycles: 62201470 (Simulation time: 0 hr 2 min 11 sec) 

Heartbeat CPU 0 instructions: 110000000 cycles: 86994104 heartbeat IPC: 0.403346 cumulative IPC: 0.403346 (Simulation time: 0 hr 2 min 37 sec) 
Heartbeat CPU 0 instructions: 120000000 cycles: 111887472 heartbeat IPC: 0.401713 cumulative IPC: 0.402528 (Simulation time: 0 hr 3 min 2 sec) 
Heartbeat CPU 0 instructions: 130000000 cycles: 136841679 heartbeat IPC: 0.400734 cumulative IPC: 0.401928 (Simulation time: 0 hr 3 min 27 sec) 
Heartbeat CPU 0 instructions: 140000000 cycles: 161746238 heartbeat IPC: 0.401533 cumulative IPC: 0.401829 (Simulation time: 0 hr 3 min 53 sec) 
Heartbeat CPU 0 instructions: 150000003 cycles: 186549546 heartbeat IPC: 0.403172 cumulative IPC: 0.402097 (Simulation time: 0 hr 4 min 18 sec) 
Heartbeat CPU 0 instructions: 160000000 cycles: 211608174 heartbeat IPC: 0.399064 cumulative IPC: 0.401588 (Simulation time: 0 hr 4 min 43 sec) 
Heartbeat CPU 0 instructions: 170000001 cycles: 236513494 heartbeat IPC: 0.401521 cumulative IPC: 0.401579 (Simulation time: 0 hr 5 min 9 sec) 
Heartbeat CPU 0 instructions: 180000000 cycles: 261424249 heartbeat IPC: 0.401433 cumulative IPC: 0.401561 (Simulation time: 0 hr 5 min 34 sec) 
Heartbeat CPU 0 instructions: 190000003 cycles: 286297620 heartbeat IPC: 0.402036 cumulative IPC: 0.401613 (Simulation time: 0 hr 6 min 0 sec) 
Heartbeat CPU 0 instructions: 200000000 cycles: 311199631 heartbeat IPC: 0.401574 cumulative IPC: 0.401609 (Simulation time: 0 hr 6 min 25 sec) 
Heartbeat CPU 0 instructions: 210000003 cycles: 336163367 heartbeat IPC: 0.400581 cumulative IPC: 0.401516 (Simulation time: 0 hr 6 min 51 sec) 
Heartbeat CPU 0 instructions: 220000000 cycles: 361322487 heartbeat IPC: 0.39747 cumulative IPC: 0.401175 (Simulation time: 0 hr 7 min 16 sec) 
Heartbeat CPU 0 instructions: 230000002 cycles: 386132114 heartbeat IPC: 0.403069 cumulative IPC: 0.40132 (Simulation time: 0 hr 7 min 42 sec) 
Heartbeat CPU 0 instructions: 240000000 cycles: 411268124 heartbeat IPC: 0.397836 cumulative IPC: 0.40107 (Simulation time: 0 hr 8 min 7 sec) 
Heartbeat CPU 0 instructions: 250000000 cycles: 436183917 heartbeat IPC: 0.401352 cumulative IPC: 0.401088 (Simulation time: 0 hr 8 min 33 sec) 
Heartbeat CPU 0 instructions: 260000000 cycles: 461086565 heartbeat IPC: 0.401564 cumulative IPC: 0.401118 (Simulation time: 0 hr 8 min 58 sec) 
Heartbeat CPU 0 instructions: 270000001 cycles: 486090783 heartbeat IPC: 0.399933 cumulative IPC: 0.401048 (Simulation time: 0 hr 9 min 24 sec) 
Heartbeat CPU 0 instructions: 280000000 cycles: 511000775 heartbeat IPC: 0.401445 cumulative IPC: 0.40107 (Simulation time: 0 hr 9 min 50 sec) 
Heartbeat CPU 0 instructions: 290000001 cycles: 536005486 heartbeat IPC: 0.399925 cumulative IPC: 0.40101 (Simulation time: 0 hr 10 min 15 sec) 
Heartbeat CPU 0 instructions: 300000000 cycles: 561157875 heartbeat IPC: 0.397577 cumulative IPC: 0.400837 (Simulation time: 0 hr 10 min 41 sec) 
Heartbeat CPU 0 instructions: 310000003 cycles: 585958089 heartbeat IPC: 0.403222 cumulative IPC: 0.40095 (Simulation time: 0 hr 11 min 6 sec) 
Heartbeat CPU 0 instructions: 320000000 cycles: 611138265 heartbeat IPC: 0.397138 cumulative IPC: 0.400775 (Simulation time: 0 hr 11 min 32 sec) 
Heartbeat CPU 0 instructions: 330000003 cycles: 636054014 heartbeat IPC: 0.401353 cumulative IPC: 0.4008 (Simulation time: 0 hr 11 min 58 sec) 
Heartbeat CPU 0 instructions: 340000000 cycles: 661247991 heartbeat IPC: 0.39692 cumulative IPC: 0.400637 (Simulation time: 0 hr 12 min 23 sec) 
Heartbeat CPU 0 instructions: 350000002 cycles: 686425996 heartbeat IPC: 0.397172 cumulative IPC: 0.400497 (Simulation time: 0 hr 12 min 49 sec) 
Heartbeat CPU 0 instructions: 360000000 cycles: 711719095 heartbeat IPC: 0.395365 cumulative IPC: 0.400297 (Simulation time: 0 hr 13 min 14 sec) 
Heartbeat CPU 0 instructions: 370000000 cycles: 736794105 heartbeat IPC: 0.398803 cumulative IPC: 0.400242 (Simulation time: 0 hr 13 min 40 sec) 
Heartbeat CPU 0 instructions: 380000000 cycles: 761714598 heartbeat IPC: 0.401276 cumulative IPC: 0.400278 (Simulation time: 0 hr 14 min 5 sec) 
Heartbeat CPU 0 instructions: 390000002 cycles: 786623641 heartbeat IPC: 0.401461 cumulative IPC: 0.400319 (Simulation time: 0 hr 14 min 30 sec) 
Heartbeat CPU 0 instructions: 400000000 cycles: 811708622 heartbeat IPC: 0.398645 cumulative IPC: 0.400263 (Simulation time: 0 hr 14 min 55 sec) 
Heartbeat CPU 0 instructions: 410000002 cycles: 836684989 heartbeat IPC: 0.400379 cumulative IPC: 0.400267 (Simulation time: 0 hr 15 min 21 sec) 
Heartbeat CPU 0 instructions: 420000000 cycles: 861451120 heartbeat IPC: 0.403777 cumulative IPC: 0.400376 (Simulation time: 0 hr 15 min 46 sec) 
Heartbeat CPU 0 instructions: 430000000 cycles: 886452961 heartbeat IPC: 0.399971 cumulative IPC: 0.400363 (Simulation time: 0 hr 16 min 11 sec) 
Heartbeat CPU 0 instructions: 440000000 cycles: 911166315 heartbeat IPC: 0.40464 cumulative IPC: 0.400488 (Simulation time: 0 hr 16 min 36 sec) 
Heartbeat CPU 0 instructions: 450000000 cycles: 936303881 heartbeat IPC: 0.397811 cumulative IPC: 0.400411 (Simulation time: 0 hr 17 min 2 sec) 
Heartbeat CPU 0 instructions: 460000000 cycles: 961302128 heartbeat IPC: 0.400028 cumulative IPC: 0.4004 (Simulation time: 0 hr 17 min 28 sec) 
Heartbeat CPU 0 instructions: 470000001 cycles: 986125267 heartbeat IPC: 0.40285 cumulative IPC: 0.400466 (Simulation time: 0 hr 17 min 53 sec) 
Heartbeat CPU 0 instructions: 480000000 cycles: 1011098473 heartbeat IPC: 0.400429 cumulative IPC: 0.400465 (Simulation time: 0 hr 18 min 19 sec) 
Heartbeat CPU 0 instructions: 490000000 cycles: 1036169542 heartbeat IPC: 0.398866 cumulative IPC: 0.400424 (Simulation time: 0 hr 18 min 44 sec) 
Heartbeat CPU 0 instructions: 500000000 cycles: 1061551301 heartbeat IPC: 0.393984 cumulative IPC: 0.40026 (Simulation time: 0 hr 19 min 10 sec) 
Heartbeat CPU 0 instructions: 510000003 cycles: 1086814167 heartbeat IPC: 0.395838 cumulative IPC: 0.400151 (Simulation time: 0 hr 19 min 35 sec) 
Heartbeat CPU 0 instructions: 520000000 cycles: 1112239951 heartbeat IPC: 0.393301 cumulative IPC: 0.399985 (Simulation time: 0 hr 20 min 0 sec) 
Heartbeat CPU 0 instructions: 530000003 cycles: 1137684788 heartbeat IPC: 0.393007 cumulative IPC: 0.39982 (Simulation time: 0 hr 20 min 26 sec) 
Heartbeat CPU 0 instructions: 540000000 cycles: 1163019176 heartbeat IPC: 0.39472 cumulative IPC: 0.399703 (Simulation time: 0 hr 20 min 51 sec) 
Heartbeat CPU 0 instructions: 550000000 cycles: 1188375666 heartbeat IPC: 0.394376 cumulative IPC: 0.399583 (Simulation time: 0 hr 21 min 16 sec) 
Heartbeat CPU 0 instructions: 560000000 cycles: 1214056037 heartbeat IPC: 0.389402 cumulative IPC: 0.399356 (Simulation time: 0 hr 21 min 42 sec) 
Heartbeat CPU 0 instructions: 570000001 cycles: 1239664318 heartbeat IPC: 0.390499 cumulative IPC: 0.399163 (Simulation time: 0 hr 22 min 7 sec) 
Heartbeat CPU 0 instructions: 580000000 cycles: 1265279060 heartbeat IPC: 0.3904 cumulative IPC: 0.398977 (Simulation time: 0 hr 22 min 33 sec) 
Heartbeat CPU 0 instructions: 590000000 cycles: 1291042174 heartbeat IPC: 0.388152 cumulative IPC: 0.39875 (Simulation time: 0 hr 22 min 58 sec) 
Heartbeat CPU 0 instructions: 600000000 cycles: 1316900219 heartbeat IPC: 0.386727 cumulative IPC: 0.398502 (Simulation time: 0 hr 23 min 24 sec) 
Finished CPU 0 instructions: 500000003 cycles: 1254698762 cumulative IPC: 0.398502 (Simulation time: 0 hr 23 min 24 sec) 

CPU 0 Branch Prediction Accuracy: 91.1342% MPKI: 18.7968
Number of Branches: 106006945 Number of Mispredictions: 9398408
Number of LOAD Instructions: 207894007
Number of LOAD Instructions (ROI): 207894007
Number of STORE Instructions: 54285997
Number of STORE Instructions (ROI): 54285997
Total Destination Memory Operands: 57463404
Total Destination Memory Operands (ROI): 57463404
Total Source Memory Operands: 207894007
Total Source Memory Operands (ROI): 207894007
Number of DEPENDED LOADS: 18099313
Number of DEPENDED LOADS (ROI): 18099313
Number of SQ_ADDED: 57463404
Number of SQ_ADDED (ROI): 57463404
Number of LQ_ADDED: 209269862
Number of LQ_ADDED (ROI): 209269862
Number of Instructions read from trace: 600000039

ChampSim completed all CPUs

Region of Interest Statistics

CPU 0 cumulative IPC: 0.398502 instructions: 500000003 cycles: 1254698762
ITLB TOTAL     ACCESS:   96421264  HIT:   96421264  MISS:          0
ITLB LOAD      ACCESS:   96421264  HIT:   96421264  MISS:          0
ITLB RFO       ACCESS:          0  HIT:          0  MISS:          0
ITLB PREFETCH  ACCESS:          0  HIT:          0  MISS:          0
ITLB WRITEBACK ACCESS:          0  HIT:          0  MISS:          0
ITLB PREFETCH  REQUESTED:          0  ISSUED:          0  USEFUL:          0  USELESS:          0
ITLB TOTAL MSHR MERGED:          0
ITLB LOAD MSHR MERGED:          0
ITLB RFO MSHR MERGED:          0
ITLB PREFETCH MSHR MERGED:          0
ITLB WRITEBACK MSHR MERGED:          0
ITLB TOTAL ACCESSES:   96421264 HITS:   96421264 MISSES:          0
ITLB LOAD ACCESSES:   96421264 HITS:   96421264 MISSES:          0
ITLB RFO ACCESSES:          0 HITS:          0 MISSES:          0
ITLB PREFETCH ACCESSES:          0 HITS:          0 MISSES:          0
ITLB WRITEBACK ACCESSES:          0 HITS:          0 MISSES:          0
ITLB RQ ACCESS:  499999980
ITLB RQ TO_CACHE:   96421264
ITLB RQ MERGED:  403578716
ITLB RQ FORWARD:          0
ITLB WQ ACCESS:          0
ITLB WQ TO_CACHE:          0
ITLB WQ MERGED:          0
ITLB WQ FORWARD:          0
DTLB TOTAL     ACCESS:  155173625  HIT:  150261498  MISS:    4912127
DTLB LOAD      ACCESS:  117726432  HIT:  113335908  MISS:    4390524
DTLB RFO       ACCESS:   37447193  HIT:   36925590  MISS:     521603
DTLB PREFETCH  ACCESS:          0  HIT:          0  MISS:          0
DTLB WRITEBACK ACCESS:          0  HIT:          0  MISS:          0
DTLB PREFETCH  REQUESTED:          0  ISSUED:          0  USEFUL:          0  USELESS:          0
DTLB TOTAL MSHR MERGED:     453150
DTLB LOAD MSHR MERGED:     161643
DTLB RFO MSHR MERGED:     291507
DTLB PREFETCH MSHR MERGED:          0
DTLB WRITEBACK MSHR MERGED:          0
DTLB TOTAL ACCESSES:  155626775 HITS:  150261498 MISSES:    5365277
DTLB LOAD ACCESSES:  117888075 HITS:  113335908 MISSES:    4552167
DTLB RFO ACCESSES:   37738700 HITS:   36925590 MISSES:     813110
DTLB PREFETCH ACCESSES:          0 HITS:          0 MISSES:          0
DTLB WRITEBACK ACCESSES:          0 HITS:          0 MISSES:          0
DTLB RQ ACCESS:  205983492
DTLB RQ TO_CACHE:  155626775
DTLB RQ MERGED:   50356717
DTLB RQ FORWARD:          0
DTLB WQ ACCESS:          0
DTLB WQ TO_CACHE:          0
DTLB WQ MERGED:          0
DTLB WQ FORWARD:          0
L1D TOTAL     ACCESS:  277222642  HIT:  242399791  MISS:   34822851
L1D LOAD      ACCESS:  125430427  HIT:  107813871  MISS:   17616556
L1D RFO       ACCESS:   41140366  HIT:   38828516  MISS:    2311850
L1D PREFETCH  ACCESS:  110651849  HIT:   95757404  MISS:   14894445
L1D WRITEBACK ACCESS:          0  HIT:          0  MISS:          0
L1D PREFETCH  REQUESTED:  126281497  ISSUED:  124762226  USEFUL:    2728104  USELESS:   12166366
L1D TOTAL MSHR MERGED:    8483644
L1D LOAD MSHR MERGED:    1539395
L1D RFO MSHR MERGED:    3765300
L1D PREFETCH MSHR MERGED:    3178949
L1D WRITEBACK MSHR MERGED:          0
L1D TOTAL ACCESSES:  285793558 HITS:  242487062 MISSES:   43306496
L1D LOAD ACCESSES:  126281523 HITS:  107813897 MISSES:   18467626
L1D RFO ACCESSES:   44905167 HITS:   38828516 MISSES:    6076651
L1D PREFETCH ACCESSES:  114606868 HITS:   95844649 MISSES:   18762219
L1D WRITEBACK ACCESSES:          0 HITS:          0 MISSES:          0
L1D RQ ACCESS:  158436611
L1D RQ TO_CACHE:  126281497
L1D RQ MERGED:   32155088
L1D RQ FORWARD:          0
L1D WQ ACCESS:   47546882
L1D WQ TO_CACHE:   44905167
L1D WQ MERGED:    2641715
L1D WQ FORWARD:      87271
L1I TOTAL     ACCESS:  132831604  HIT:  132831604  MISS:          0
L1I LOAD      ACCESS:  132831604  HIT:  132831604  MISS:          0
L1I RFO       ACCESS:          0  HIT:          0  MISS:          0
L1I PREFETCH  ACCESS:          0  HIT:          0  MISS:          0
L1I WRITEBACK ACCESS:          0  HIT:          0  MISS:          0
L1I PREFETCH  REQUESTED:          0  ISSUED:          0  USEFUL:          0  USELESS:          0
L1I TOTAL MSHR MERGED:          0
L1I LOAD MSHR MERGED:          0
L1I RFO MSHR MERGED:          0
L1I PREFETCH MSHR MERGED:          0
L1I WRITEBACK MSHR MERGED:          0
L1I TOTAL ACCESSES:  132831604 HITS:  132831604 MISSES:          0
L1I LOAD ACCESSES:  132831604 HITS:  132831604 MISSES:          0
L1I RFO ACCESSES:          0 HITS:          0 MISSES:          0
L1I PREFETCH ACCESSES:          0 HITS:          0 MISSES:          0
L1I WRITEBACK ACCESSES:          0 HITS:          0 MISSES:          0
L1I RQ ACCESS:  499999980
L1I RQ TO_CACHE:  132831604
L1I RQ MERGED:  367168376
L1I RQ FORWARD:          0
L1I WQ ACCESS:          0
L1I WQ TO_CACHE:          0
L1I WQ MERGED:          0
L1I WQ FORWARD:          0
L2C TOTAL     ACCESS:   39593129  HIT:   20623554  MISS:   18969575
L2C LOAD      ACCESS:   16928169  HIT:    8567916  MISS:    8360253
L2C RFO       ACCESS:    2311303  HIT:     630808  MISS:    1680495
L2C PREFETCH  ACCESS:   17131204  HIT:    8206129  MISS:    8925075
L2C WRITEBACK ACCESS:    3222453  HIT:    3218701  MISS:       3752
L2C PREFETCH  REQUESTED:    2826275  ISSUED:    2826275  USEFUL:    1307326  USELESS:    7617476
L2C TOTAL MSHR MERGED:     506013
L2C LOAD MSHR MERGED:      74805
L2C RFO MSHR MERGED:          0
L2C PREFETCH MSHR MERGED:     431208
L2C WRITEBACK MSHR MERGED:          0
L2C TOTAL ACCESSES:   40180439 HITS:   20623714 MISSES:   19556725
L2C LOAD ACCESSES:   16928231 HITS:    8567978 MISSES:    8360253
L2C RFO ACCESSES:    2311351 HITS:     630856 MISSES:    1680495
L2C PREFETCH ACCESSES:   17718404 HITS:    8206179 MISSES:    9512225
L2C WRITEBACK ACCESSES:    3222453 HITS:    3218701 MISSES:       3752
L2C RQ ACCESS:   19239582
L2C RQ TO_CACHE:   19239472
L2C RQ MERGED:          0
L2C RQ FORWARD:          0
L2C WQ ACCESS:    3222453
L2C WQ TO_CACHE:    3222453
L2C WQ MERGED:          0
L2C WQ FORWARD:        160
LLC TOTAL     ACCESS:   21184284  HIT:   14693878  MISS:    6490406
LLC LOAD      ACCESS:    8285422  HIT:    5673615  MISS:    2611807
LLC RFO       ACCESS:    1680426  HIT:    1678776  MISS:       1650
LLC PREFETCH  ACCESS:    9042747  HIT:    5166994  MISS:    3875753
LLC WRITEBACK ACCESS:    2175689  HIT:    2174493  MISS:       1196
LLC PREFETCH  REQUESTED:          0  ISSUED:          0  USEFUL:     212181  USELESS:    3667169
LLC TOTAL MSHR MERGED:      32144
LLC LOAD MSHR MERGED:       9433
LLC RFO MSHR MERGED:          0
LLC PREFETCH MSHR MERGED:      22711
LLC WRITEBACK MSHR MERGED:          0
LLC TOTAL ACCESSES:   21216552 HITS:   14694001 MISSES:    6522551
LLC LOAD ACCESSES:    8285448 HITS:    5673641 MISSES:    2611807
LLC RFO ACCESSES:    1680495 HITS:    1678845 MISSES:       1650
LLC PREFETCH ACCESSES:    9074920 HITS:    5167022 MISSES:    3907898
LLC WRITEBACK ACCESSES:    2175689 HITS:    2174493 MISSES:       1196
LLC 0 RQ ACCESS:    9965943
LLC 0 RQ TO_CACHE:    9965848
LLC 0 RQ MERGED:          0
LLC 0 RQ FORWARD:          0
LLC WQ ACCESS:    2175690
LLC WQ TO_CACHE:    2175690
LLC WQ MERGED:          0
LLC WQ FORWARD:        123
Major fault: 0 Minor fault: 56391
CPU 0 L1D next line prefetcher final stats
CPU 0 L2C PC-based stride prefetcher final stats
All Misses: 7714222
All Hits: 16846905
SD Algo Stats - Switches: 0 SRR-Repls: 2748960 BRR-Repls: 0

DRAM Statistics
 CHANNEL 0
 RQ ROW_BUFFER_HIT:    4573273  ROW_BUFFER_MISS:    1914775
 DBUS_CONGESTED:    3050976
 WQ ROW_BUFFER_HIT:        237  ROW_BUFFER_MISS:       8823  FULL:          0

 AVG_CONGESTED_CYCLE: 12
LOADS RETIRED: 173631671
INSTR RETIRED: 500000000
