
*** ChampSim Multicore Out-of-Order Simulator ***

Warmup Instructions: 100000000
Simulation Instructions: 500000000
Number of CPUs: 1
LLC sets: 2048
LLC ways: 16
Clean RRIP Policies: 2213232222132322 Dirty RRIP Policies: 1203130212031302 PSEL Width: 10 Track Set: 4294967295 PSEL Mask: 1 Demote Mask: 1040100010401000DS Algo: 0Window size: 0
Off-chip DRAM Size: 4096 MB Channels: 1 Width: 64-bit Data Rate: 1600 MT/s

CPU 0 runs /mnt/beegfs/iconst01/spec2017/x264.trace.gz
NOT SORTED
TRACE STRING: /mnt/beegfs/iconst01/spec2017/x264.trace.gz
SORTED
TRACE STRING: /mnt/beegfs/iconst01/spec2017/x264.trace.gz
INITIAL
TRACE STRING: /mnt/beegfs/iconst01/spec2017/x264.trace.gz

champsim_seed used: 276

CPU 0 L1D next line prefetcher
CPU 0 L2C IP-based stride prefetcher
Initialize DRRIP state
Assign rand_sets[0]: 454  LLC: 2048
rand_sets[0]: 454
Assign rand_sets[1]: 1662  LLC: 2048
rand_sets[1]: 1662
Assign rand_sets[2]: 1921  LLC: 2048
rand_sets[2]: 1921
Assign rand_sets[3]: 1131  LLC: 2048
rand_sets[3]: 1131
Assign rand_sets[4]: 331  LLC: 2048
rand_sets[4]: 331
Assign rand_sets[5]: 1531  LLC: 2048
rand_sets[5]: 1531
Assign rand_sets[6]: 482  LLC: 2048
rand_sets[6]: 482
Assign rand_sets[7]: 1275  LLC: 2048
rand_sets[7]: 1275
Assign rand_sets[8]: 1876  LLC: 2048
rand_sets[8]: 1876
Assign rand_sets[9]: 2038  LLC: 2048
rand_sets[9]: 2038
Assign rand_sets[10]: 701  LLC: 2048
rand_sets[10]: 701
Assign rand_sets[11]: 479  LLC: 2048
rand_sets[11]: 479
Assign rand_sets[12]: 892  LLC: 2048
rand_sets[12]: 892
Assign rand_sets[13]: 1820  LLC: 2048
rand_sets[13]: 1820
Assign rand_sets[14]: 1505  LLC: 2048
rand_sets[14]: 1505
Assign rand_sets[15]: 1159  LLC: 2048
rand_sets[15]: 1159
Assign rand_sets[16]: 513  LLC: 2048
rand_sets[16]: 513
Assign rand_sets[17]: 703  LLC: 2048
rand_sets[17]: 703
Assign rand_sets[18]: 561  LLC: 2048
rand_sets[18]: 561
Assign rand_sets[19]: 990  LLC: 2048
rand_sets[19]: 990
Assign rand_sets[20]: 342  LLC: 2048
rand_sets[20]: 342
Assign rand_sets[21]: 882  LLC: 2048
rand_sets[21]: 882
Assign rand_sets[22]: 15  LLC: 2048
rand_sets[22]: 15
Assign rand_sets[23]: 71  LLC: 2048
rand_sets[23]: 71
Assign rand_sets[24]: 1127  LLC: 2048
rand_sets[24]: 1127
Assign rand_sets[25]: 1382  LLC: 2048
rand_sets[25]: 1382
Assign rand_sets[26]: 647  LLC: 2048
rand_sets[26]: 647
Assign rand_sets[27]: 857  LLC: 2048
rand_sets[27]: 857
Assign rand_sets[28]: 1450  LLC: 2048
rand_sets[28]: 1450
Assign rand_sets[29]: 1160  LLC: 2048
rand_sets[29]: 1160
Assign rand_sets[30]: 1852  LLC: 2048
rand_sets[30]: 1852
Assign rand_sets[31]: 1881  LLC: 2048
rand_sets[31]: 1881
Assign rand_sets[32]: 1770  LLC: 2048
rand_sets[32]: 1770
Assign rand_sets[33]: 1622  LLC: 2048
rand_sets[33]: 1622
Assign rand_sets[34]: 275  LLC: 2048
rand_sets[34]: 275
Assign rand_sets[35]: 635  LLC: 2048
rand_sets[35]: 635
Assign rand_sets[36]: 466  LLC: 2048
rand_sets[36]: 466
Assign rand_sets[37]: 1413  LLC: 2048
rand_sets[37]: 1413
Assign rand_sets[38]: 417  LLC: 2048
rand_sets[38]: 417
Assign rand_sets[39]: 472  LLC: 2048
rand_sets[39]: 472
Assign rand_sets[40]: 1340  LLC: 2048
rand_sets[40]: 1340
Assign rand_sets[41]: 852  LLC: 2048
rand_sets[41]: 852
Assign rand_sets[42]: 1365  LLC: 2048
rand_sets[42]: 1365
Assign rand_sets[43]: 47  LLC: 2048
rand_sets[43]: 47
Assign rand_sets[44]: 823  LLC: 2048
rand_sets[44]: 823
Assign rand_sets[45]: 686  LLC: 2048
rand_sets[45]: 686
Assign rand_sets[46]: 1637  LLC: 2048
rand_sets[46]: 1637
Assign rand_sets[47]: 1115  LLC: 2048
rand_sets[47]: 1115
Assign rand_sets[48]: 986  LLC: 2048
rand_sets[48]: 986
Assign rand_sets[49]: 258  LLC: 2048
rand_sets[49]: 258
Assign rand_sets[50]: 633  LLC: 2048
rand_sets[50]: 633
Assign rand_sets[51]: 920  LLC: 2048
rand_sets[51]: 920
Assign rand_sets[52]: 204  LLC: 2048
rand_sets[52]: 204
Assign rand_sets[53]: 227  LLC: 2048
rand_sets[53]: 227
Assign rand_sets[54]: 1818  LLC: 2048
rand_sets[54]: 1818
Assign rand_sets[55]: 886  LLC: 2048
rand_sets[55]: 886
Assign rand_sets[56]: 1422  LLC: 2048
rand_sets[56]: 1422
Assign rand_sets[57]: 607  LLC: 2048
rand_sets[57]: 607
Assign rand_sets[58]: 217  LLC: 2048
rand_sets[58]: 217
Assign rand_sets[59]: 1945  LLC: 2048
rand_sets[59]: 1945
Assign rand_sets[60]: 143  LLC: 2048
rand_sets[60]: 143
Assign rand_sets[61]: 1311  LLC: 2048
rand_sets[61]: 1311
Assign rand_sets[62]: 319  LLC: 2048
rand_sets[62]: 319
Assign rand_sets[63]: 1846  LLC: 2048
rand_sets[63]: 1846
 CLEAN-RRIP-POLICY-1: 2-2-1-3-2-3-2-2- CLEAN-RRIP-POLICY-2: 2-2-1-3-2-3-2-2-
 DIRTY-RRIP-POLICY-1: 1-2-0-3-1-3-0-2- DIRTY-RRIP-POLICY-2: 1-2-0-3-1-3-0-2-
 PSEL width: 10
Heartbeat CPU 0 instructions: 10000000 cycles: 4124759 heartbeat IPC: 2.42438 cumulative IPC: 2.42438 (Simulation time: 0 hr 0 min 13 sec) 
Heartbeat CPU 0 instructions: 20000000 cycles: 8233863 heartbeat IPC: 2.43362 cumulative IPC: 2.42899 (Simulation time: 0 hr 0 min 27 sec) 
Heartbeat CPU 0 instructions: 30000003 cycles: 12464696 heartbeat IPC: 2.3636 cumulative IPC: 2.4068 (Simulation time: 0 hr 0 min 40 sec) 
Heartbeat CPU 0 instructions: 40000000 cycles: 16636669 heartbeat IPC: 2.39695 cumulative IPC: 2.40433 (Simulation time: 0 hr 0 min 53 sec) 
Heartbeat CPU 0 instructions: 50000000 cycles: 20699153 heartbeat IPC: 2.46155 cumulative IPC: 2.41556 (Simulation time: 0 hr 1 min 7 sec) 
Heartbeat CPU 0 instructions: 60000000 cycles: 25022681 heartbeat IPC: 2.31293 cumulative IPC: 2.39782 (Simulation time: 0 hr 1 min 20 sec) 
Heartbeat CPU 0 instructions: 70000000 cycles: 29371024 heartbeat IPC: 2.29973 cumulative IPC: 2.3833 (Simulation time: 0 hr 1 min 34 sec) 
Heartbeat CPU 0 instructions: 80000000 cycles: 33721210 heartbeat IPC: 2.29875 cumulative IPC: 2.37239 (Simulation time: 0 hr 1 min 47 sec) 
Heartbeat CPU 0 instructions: 90000002 cycles: 38032171 heartbeat IPC: 2.31967 cumulative IPC: 2.36642 (Simulation time: 0 hr 2 min 0 sec) 
Heartbeat CPU 0 instructions: 100000000 cycles: 42329107 heartbeat IPC: 2.32724 cumulative IPC: 2.36244 (Simulation time: 0 hr 2 min 14 sec) 

Warmup complete CPU 0 instructions: 100000001 cycles: 42329108 (Simulation time: 0 hr 2 min 14 sec) 

Heartbeat CPU 0 instructions: 110000001 cycles: 49402527 heartbeat IPC: 1.41374 cumulative IPC: 1.41374 (Simulation time: 0 hr 2 min 31 sec) 
Heartbeat CPU 0 instructions: 120000000 cycles: 58903165 heartbeat IPC: 1.05256 cumulative IPC: 1.20671 (Simulation time: 0 hr 2 min 51 sec) 
Heartbeat CPU 0 instructions: 130000000 cycles: 63711336 heartbeat IPC: 2.07979 cumulative IPC: 1.40303 (Simulation time: 0 hr 3 min 8 sec) 
Heartbeat CPU 0 instructions: 140000000 cycles: 68628319 heartbeat IPC: 2.03377 cumulative IPC: 1.52096 (Simulation time: 0 hr 3 min 25 sec) 
Heartbeat CPU 0 instructions: 150000002 cycles: 75462659 heartbeat IPC: 1.4632 cumulative IPC: 1.50904 (Simulation time: 0 hr 3 min 43 sec) 
Heartbeat CPU 0 instructions: 160000000 cycles: 83301963 heartbeat IPC: 1.27562 cumulative IPC: 1.46438 (Simulation time: 0 hr 4 min 1 sec) 
Heartbeat CPU 0 instructions: 170000000 cycles: 90707109 heartbeat IPC: 1.35041 cumulative IPC: 1.44694 (Simulation time: 0 hr 4 min 19 sec) 
Heartbeat CPU 0 instructions: 180000000 cycles: 98017404 heartbeat IPC: 1.36793 cumulative IPC: 1.43657 (Simulation time: 0 hr 4 min 36 sec) 
Heartbeat CPU 0 instructions: 190000002 cycles: 105195959 heartbeat IPC: 1.39304 cumulative IPC: 1.4316 (Simulation time: 0 hr 4 min 54 sec) 
Heartbeat CPU 0 instructions: 200000000 cycles: 112439936 heartbeat IPC: 1.38046 cumulative IPC: 1.42631 (Simulation time: 0 hr 5 min 11 sec) 
Heartbeat CPU 0 instructions: 210000000 cycles: 119319841 heartbeat IPC: 1.45351 cumulative IPC: 1.42874 (Simulation time: 0 hr 5 min 28 sec) 
Heartbeat CPU 0 instructions: 220000000 cycles: 126095267 heartbeat IPC: 1.47592 cumulative IPC: 1.43256 (Simulation time: 0 hr 5 min 45 sec) 
Heartbeat CPU 0 instructions: 230000003 cycles: 132828471 heartbeat IPC: 1.48518 cumulative IPC: 1.43647 (Simulation time: 0 hr 6 min 2 sec) 
Heartbeat CPU 0 instructions: 240000000 cycles: 139584190 heartbeat IPC: 1.48023 cumulative IPC: 1.43951 (Simulation time: 0 hr 6 min 19 sec) 
Heartbeat CPU 0 instructions: 250000001 cycles: 146312284 heartbeat IPC: 1.48631 cumulative IPC: 1.44254 (Simulation time: 0 hr 6 min 36 sec) 
Heartbeat CPU 0 instructions: 260000000 cycles: 153019472 heartbeat IPC: 1.49094 cumulative IPC: 1.44547 (Simulation time: 0 hr 6 min 53 sec) 
Heartbeat CPU 0 instructions: 270000001 cycles: 159998468 heartbeat IPC: 1.43287 cumulative IPC: 1.44473 (Simulation time: 0 hr 7 min 10 sec) 
Heartbeat CPU 0 instructions: 280000000 cycles: 167532867 heartbeat IPC: 1.32725 cumulative IPC: 1.43766 (Simulation time: 0 hr 7 min 28 sec) 
Heartbeat CPU 0 instructions: 290000000 cycles: 175457380 heartbeat IPC: 1.26191 cumulative IPC: 1.42719 (Simulation time: 0 hr 7 min 46 sec) 
Heartbeat CPU 0 instructions: 300000000 cycles: 183633550 heartbeat IPC: 1.22307 cumulative IPC: 1.41538 (Simulation time: 0 hr 8 min 4 sec) 
Heartbeat CPU 0 instructions: 310000002 cycles: 191944202 heartbeat IPC: 1.20328 cumulative IPC: 1.4036 (Simulation time: 0 hr 8 min 23 sec) 
Heartbeat CPU 0 instructions: 320000000 cycles: 201924573 heartbeat IPC: 1.00197 cumulative IPC: 1.37849 (Simulation time: 0 hr 8 min 43 sec) 
Heartbeat CPU 0 instructions: 330000002 cycles: 206556992 heartbeat IPC: 2.1587 cumulative IPC: 1.40049 (Simulation time: 0 hr 9 min 0 sec) 
Heartbeat CPU 0 instructions: 340000000 cycles: 211798671 heartbeat IPC: 1.90779 cumulative IPC: 1.41618 (Simulation time: 0 hr 9 min 17 sec) 
Heartbeat CPU 0 instructions: 350000000 cycles: 219024503 heartbeat IPC: 1.38392 cumulative IPC: 1.41486 (Simulation time: 0 hr 9 min 36 sec) 
Heartbeat CPU 0 instructions: 360000000 cycles: 226688020 heartbeat IPC: 1.30488 cumulative IPC: 1.41029 (Simulation time: 0 hr 9 min 54 sec) 
Heartbeat CPU 0 instructions: 370000000 cycles: 234102635 heartbeat IPC: 1.34869 cumulative IPC: 1.40791 (Simulation time: 0 hr 10 min 11 sec) 
Heartbeat CPU 0 instructions: 380000000 cycles: 241383020 heartbeat IPC: 1.37355 cumulative IPC: 1.40665 (Simulation time: 0 hr 10 min 29 sec) 
Heartbeat CPU 0 instructions: 390000000 cycles: 249513797 heartbeat IPC: 1.22989 cumulative IPC: 1.39972 (Simulation time: 0 hr 10 min 47 sec) 
Heartbeat CPU 0 instructions: 400000000 cycles: 257728239 heartbeat IPC: 1.21737 cumulative IPC: 1.39276 (Simulation time: 0 hr 11 min 6 sec) 
Heartbeat CPU 0 instructions: 410000001 cycles: 265555965 heartbeat IPC: 1.27751 cumulative IPC: 1.38872 (Simulation time: 0 hr 11 min 24 sec) 
Heartbeat CPU 0 instructions: 420000000 cycles: 273611907 heartbeat IPC: 1.24132 cumulative IPC: 1.38359 (Simulation time: 0 hr 11 min 42 sec) 
Heartbeat CPU 0 instructions: 430000001 cycles: 281876787 heartbeat IPC: 1.20994 cumulative IPC: 1.3776 (Simulation time: 0 hr 12 min 0 sec) 
Heartbeat CPU 0 instructions: 440000000 cycles: 289923298 heartbeat IPC: 1.24277 cumulative IPC: 1.37321 (Simulation time: 0 hr 12 min 19 sec) 
Heartbeat CPU 0 instructions: 450000001 cycles: 297797828 heartbeat IPC: 1.26992 cumulative IPC: 1.37003 (Simulation time: 0 hr 12 min 37 sec) 
Heartbeat CPU 0 instructions: 460000000 cycles: 307732049 heartbeat IPC: 1.00662 cumulative IPC: 1.35643 (Simulation time: 0 hr 12 min 57 sec) 
Heartbeat CPU 0 instructions: 470000002 cycles: 312357580 heartbeat IPC: 2.16191 cumulative IPC: 1.37023 (Simulation time: 0 hr 13 min 13 sec) 
Heartbeat CPU 0 instructions: 480000000 cycles: 317619953 heartbeat IPC: 1.90028 cumulative IPC: 1.38036 (Simulation time: 0 hr 13 min 30 sec) 
Heartbeat CPU 0 instructions: 490000001 cycles: 324941913 heartbeat IPC: 1.36575 cumulative IPC: 1.37998 (Simulation time: 0 hr 13 min 49 sec) 
Heartbeat CPU 0 instructions: 500000000 cycles: 333673410 heartbeat IPC: 1.14528 cumulative IPC: 1.37295 (Simulation time: 0 hr 14 min 9 sec) 
Heartbeat CPU 0 instructions: 510000002 cycles: 342406714 heartbeat IPC: 1.14504 cumulative IPC: 1.36631 (Simulation time: 0 hr 14 min 30 sec) 
Heartbeat CPU 0 instructions: 520000000 cycles: 351135182 heartbeat IPC: 1.14568 cumulative IPC: 1.36008 (Simulation time: 0 hr 14 min 50 sec) 
Heartbeat CPU 0 instructions: 530000000 cycles: 359842884 heartbeat IPC: 1.14841 cumulative IPC: 1.35427 (Simulation time: 0 hr 15 min 10 sec) 
Heartbeat CPU 0 instructions: 540000000 cycles: 368100652 heartbeat IPC: 1.21098 cumulative IPC: 1.35064 (Simulation time: 0 hr 15 min 30 sec) 
Heartbeat CPU 0 instructions: 550000000 cycles: 375138191 heartbeat IPC: 1.42095 cumulative IPC: 1.35213 (Simulation time: 0 hr 15 min 47 sec) 
Heartbeat CPU 0 instructions: 560000000 cycles: 381753468 heartbeat IPC: 1.51165 cumulative IPC: 1.35524 (Simulation time: 0 hr 16 min 5 sec) 
Heartbeat CPU 0 instructions: 570000002 cycles: 388346242 heartbeat IPC: 1.51681 cumulative IPC: 1.35831 (Simulation time: 0 hr 16 min 22 sec) 
Heartbeat CPU 0 instructions: 580000000 cycles: 394995249 heartbeat IPC: 1.50398 cumulative IPC: 1.36106 (Simulation time: 0 hr 16 min 39 sec) 
Heartbeat CPU 0 instructions: 590000002 cycles: 401681805 heartbeat IPC: 1.49554 cumulative IPC: 1.36356 (Simulation time: 0 hr 16 min 56 sec) 
Heartbeat CPU 0 instructions: 600000000 cycles: 408485565 heartbeat IPC: 1.46978 cumulative IPC: 1.36554 (Simulation time: 0 hr 17 min 13 sec) 
Finished CPU 0 instructions: 500000000 cycles: 366156465 cumulative IPC: 1.36554 (Simulation time: 0 hr 17 min 13 sec) 

CPU 0 Branch Prediction Accuracy: 93.4682% MPKI: 2.44079
Number of Branches: 18683822 Number of Mispredictions: 1220394
Number of LOAD Instructions: 142551610
Number of LOAD Instructions (ROI): 142551610
Number of STORE Instructions: 44807454
Number of STORE Instructions (ROI): 44807454
Total Destination Memory Operands: 48357071
Total Destination Memory Operands (ROI): 48357071
Total Source Memory Operands: 142551610
Total Source Memory Operands (ROI): 142551610
Number of DEPENDED LOADS: 7394655
Number of DEPENDED LOADS (ROI): 7394655
Number of SQ_ADDED: 48357051
Number of SQ_ADDED (ROI): 48357051
Number of LQ_ADDED: 157238819
Number of LQ_ADDED (ROI): 157238819
Number of Instructions read from trace: 600000256

ChampSim completed all CPUs

Region of Interest Statistics

CPU 0 cumulative IPC: 1.36554 instructions: 500000000 cycles: 366156465
ITLB TOTAL     ACCESS:   88179132  HIT:   88179063  MISS:         69
ITLB LOAD      ACCESS:   88179132  HIT:   88179063  MISS:         69
ITLB RFO       ACCESS:          0  HIT:          0  MISS:          0
ITLB PREFETCH  ACCESS:          0  HIT:          0  MISS:          0
ITLB WRITEBACK ACCESS:          0  HIT:          0  MISS:          0
ITLB PREFETCH  REQUESTED:          0  ISSUED:          0  USEFUL:          0  USELESS:          0
ITLB TOTAL MSHR MERGED:         84
ITLB LOAD MSHR MERGED:         84
ITLB RFO MSHR MERGED:          0
ITLB PREFETCH MSHR MERGED:          0
ITLB WRITEBACK MSHR MERGED:          0
ITLB TOTAL ACCESSES:   88179216 HITS:   88179063 MISSES:        153
ITLB LOAD ACCESSES:   88179216 HITS:   88179063 MISSES:        153
ITLB RFO ACCESSES:          0 HITS:          0 MISSES:          0
ITLB PREFETCH ACCESSES:          0 HITS:          0 MISSES:          0
ITLB WRITEBACK ACCESSES:          0 HITS:          0 MISSES:          0
ITLB RQ ACCESS:  500000000
ITLB RQ TO_CACHE:   88179216
ITLB RQ MERGED:  411820784
ITLB RQ FORWARD:          0
ITLB WQ ACCESS:          0
ITLB WQ TO_CACHE:          0
ITLB WQ MERGED:          0
ITLB WQ FORWARD:          0
DTLB TOTAL     ACCESS:   88203580  HIT:   88076163  MISS:     127417
DTLB LOAD      ACCESS:   59485638  HIT:   59393171  MISS:      92467
DTLB RFO       ACCESS:   28717942  HIT:   28682992  MISS:      34950
DTLB PREFETCH  ACCESS:          0  HIT:          0  MISS:          0
DTLB WRITEBACK ACCESS:          0  HIT:          0  MISS:          0
DTLB PREFETCH  REQUESTED:          0  ISSUED:          0  USEFUL:          0  USELESS:          0
DTLB TOTAL MSHR MERGED:     141158
DTLB LOAD MSHR MERGED:     107675
DTLB RFO MSHR MERGED:      33483
DTLB PREFETCH MSHR MERGED:          0
DTLB WRITEBACK MSHR MERGED:          0
DTLB TOTAL ACCESSES:   88344738 HITS:   88076163 MISSES:     268575
DTLB LOAD ACCESSES:   59593313 HITS:   59393171 MISSES:     200142
DTLB RFO ACCESSES:   28751425 HITS:   28682992 MISSES:      68433
DTLB PREFETCH ACCESSES:          0 HITS:          0 MISSES:          0
DTLB WRITEBACK ACCESSES:          0 HITS:          0 MISSES:          0
DTLB RQ ACCESS:  154559247
DTLB RQ TO_CACHE:   88344738
DTLB RQ MERGED:   66214509
DTLB RQ FORWARD:          0
DTLB WQ ACCESS:          0
DTLB WQ TO_CACHE:          0
DTLB WQ MERGED:          0
DTLB WQ FORWARD:          0
L1D TOTAL     ACCESS:  128096255  HIT:  124870746  MISS:    3225509
L1D LOAD      ACCESS:   53172538  HIT:   51977151  MISS:    1195387
L1D RFO       ACCESS:   37372834  HIT:   36758665  MISS:     614169
L1D PREFETCH  ACCESS:   37550883  HIT:   36134930  MISS:    1415953
L1D WRITEBACK ACCESS:          0  HIT:          0  MISS:          0
L1D PREFETCH  REQUESTED:   53657437  ISSUED:   52457207  USEFUL:     352071  USELESS:    1063847
L1D TOTAL MSHR MERGED:    2811280
L1D LOAD MSHR MERGED:     523671
L1D RFO MSHR MERGED:    1581742
L1D PREFETCH MSHR MERGED:     705867
L1D WRITEBACK MSHR MERGED:          0
L1D TOTAL ACCESSES:  130942409 HITS:  124905620 MISSES:    6036789
L1D LOAD ACCESSES:   53660310 HITS:   51980024 MISSES:    1680286
L1D RFO ACCESSES:   38952852 HITS:   36758665 MISSES:    2194187
L1D PREFETCH ACCESSES:   38329247 HITS:   36166931 MISSES:    2162316
L1D WRITEBACK ACCESSES:          0 HITS:          0 MISSES:          0
L1D RQ ACCESS:  113714355
L1D RQ TO_CACHE:   53657437
L1D RQ MERGED:   60054045
L1D RQ FORWARD:          0
L1D WQ ACCESS:   40844891
L1D WQ TO_CACHE:   38952852
L1D WQ MERGED:    1892039
L1D WQ FORWARD:      34874
L1I TOTAL     ACCESS:  108369466  HIT:  107810339  MISS:     559127
L1I LOAD      ACCESS:  108369466  HIT:  107810339  MISS:     559127
L1I RFO       ACCESS:          0  HIT:          0  MISS:          0
L1I PREFETCH  ACCESS:          0  HIT:          0  MISS:          0
L1I WRITEBACK ACCESS:          0  HIT:          0  MISS:          0
L1I PREFETCH  REQUESTED:          0  ISSUED:          0  USEFUL:          0  USELESS:          0
L1I TOTAL MSHR MERGED:     526633
L1I LOAD MSHR MERGED:     526633
L1I RFO MSHR MERGED:          0
L1I PREFETCH MSHR MERGED:          0
L1I WRITEBACK MSHR MERGED:          0
L1I TOTAL ACCESSES:  108896099 HITS:  107810339 MISSES:    1085760
L1I LOAD ACCESSES:  108896099 HITS:  107810339 MISSES:    1085760
L1I RFO ACCESSES:          0 HITS:          0 MISSES:          0
L1I PREFETCH ACCESSES:          0 HITS:          0 MISSES:          0
L1I WRITEBACK ACCESSES:          0 HITS:          0 MISSES:          0
L1I RQ ACCESS:  500000002
L1I RQ TO_CACHE:  108896099
L1I RQ MERGED:  391103903
L1I RQ FORWARD:          0
L1I WQ ACCESS:          0
L1I WQ TO_CACHE:          0
L1I WQ MERGED:          0
L1I WQ FORWARD:          0
L2C TOTAL     ACCESS:    4691658  HIT:    3865681  MISS:     825977
L2C LOAD      ACCESS:    1715634  HIT:    1562566  MISS:     153068
L2C RFO       ACCESS:     611015  HIT:     421153  MISS:     189862
L2C PREFETCH  ACCESS:    1662093  HIT:    1181230  MISS:     480863
L2C WRITEBACK ACCESS:     702916  HIT:     700732  MISS:       2184
L2C PREFETCH  REQUESTED:     256396  ISSUED:     256396  USEFUL:     172947  USELESS:     308582
L2C TOTAL MSHR MERGED:      13307
L2C LOAD MSHR MERGED:       4076
L2C RFO MSHR MERGED:          0
L2C PREFETCH MSHR MERGED:       9231
L2C WRITEBACK MSHR MERGED:          0
L2C TOTAL ACCESSES:    4712143 HITS:    3867291 MISSES:     844852
L2C LOAD ACCESSES:    1715742 HITS:    1562674 MISSES:     153068
L2C RFO ACCESSES:     612445 HITS:     422583 MISSES:     189862
L2C PREFETCH ACCESSES:    1681040 HITS:    1181302 MISSES:     499738
L2C WRITEBACK ACCESSES:     702916 HITS:     700732 MISSES:       2184
L2C RQ ACCESS:    2328187
L2C RQ TO_CACHE:    2326649
L2C RQ MERGED:          0
L2C RQ FORWARD:          0
L2C WQ ACCESS:     702916
L2C WQ TO_CACHE:     702916
L2C WQ MERGED:          0
L2C WQ FORWARD:       1610
LLC TOTAL     ACCESS:    1047640  HIT:     288399  MISS:     759241
LLC LOAD      ACCESS:     148988  HIT:      86835  MISS:      62153
LLC RFO       ACCESS:     189855  HIT:       6262  MISS:     183593
LLC PREFETCH  ACCESS:     487921  HIT:     156573  MISS:     331348
LLC WRITEBACK ACCESS:     220876  HIT:      38729  MISS:     182147
LLC PREFETCH  REQUESTED:          0  ISSUED:          0  USEFUL:       2253  USELESS:     329570
LLC TOTAL MSHR MERGED:       1809
LLC LOAD MSHR MERGED:        656
LLC RFO MSHR MERGED:          0
LLC PREFETCH MSHR MERGED:       1153
LLC WRITEBACK MSHR MERGED:          0
LLC TOTAL ACCESSES:    1049460 HITS:     288410 MISSES:     761050
LLC LOAD ACCESSES:     148992 HITS:      86839 MISSES:      62153
LLC RFO ACCESSES:     189862 HITS:       6269 MISSES:     183593
LLC PREFETCH ACCESSES:     489730 HITS:     156573 MISSES:     333157
LLC WRITEBACK ACCESSES:     220876 HITS:      38729 MISSES:     182147
LLC 0 RQ ACCESS:     338854
LLC 0 RQ TO_CACHE:     338843
LLC 0 RQ MERGED:          0
LLC 0 RQ FORWARD:          0
LLC WQ ACCESS:     220876
LLC WQ TO_CACHE:     220876
LLC WQ MERGED:          0
LLC WQ FORWARD:         11
Major fault: 0 Minor fault: 6811
CPU 0 L1D next line prefetcher final stats
CPU 0 L2C PC-based stride prefetcher final stats
All Misses: 900397
All Hits: 354226
SD Algo Stats - Switches: 0 SRR-Repls: 71216 BRR-Repls: 0

DRAM Statistics
 CHANNEL 0
 RQ ROW_BUFFER_HIT:     287176  ROW_BUFFER_MISS:     289837
 DBUS_CONGESTED:     398589
 WQ ROW_BUFFER_HIT:      24751  ROW_BUFFER_MISS:     191181  FULL:          0

 AVG_CONGESTED_CYCLE: 13
LOADS RETIRED: 119922929
INSTR RETIRED: 500000000
