
*** ChampSim Multicore Out-of-Order Simulator ***

Warmup Instructions: 100000000
Simulation Instructions: 500000000
Number of CPUs: 1
LLC sets: 2048
LLC ways: 16
Clean RRIP Policies: 1213030112130301 Dirty RRIP Policies: 2213130122131301 PSEL Width: 10 Track Set: 4294967295 PSEL Mask: 1 Demote Mask: 3040201030402010DS Algo: 0Window size: 0
Off-chip DRAM Size: 4096 MB Channels: 1 Width: 64-bit Data Rate: 1600 MT/s

CPU 0 runs /mnt/beegfs/iconst01/spec2017/Mcf.trace.gz
NOT SORTED
TRACE STRING: /mnt/beegfs/iconst01/spec2017/Mcf.trace.gz
SORTED
TRACE STRING: /mnt/beegfs/iconst01/spec2017/Mcf.trace.gz
INITIAL
TRACE STRING: /mnt/beegfs/iconst01/spec2017/Mcf.trace.gz

champsim_seed used: 278

CPU 0 L1D next line prefetcher
CPU 0 L2C IP-based stride prefetcher
Initialize DRRIP state
Assign rand_sets[0]: 454  LLC: 2048
rand_sets[0]: 454
Assign rand_sets[1]: 1662  LLC: 2048
rand_sets[1]: 1662
Assign rand_sets[2]: 1921  LLC: 2048
rand_sets[2]: 1921
Assign rand_sets[3]: 1131  LLC: 2048
rand_sets[3]: 1131
Assign rand_sets[4]: 331  LLC: 2048
rand_sets[4]: 331
Assign rand_sets[5]: 1531  LLC: 2048
rand_sets[5]: 1531
Assign rand_sets[6]: 482  LLC: 2048
rand_sets[6]: 482
Assign rand_sets[7]: 1275  LLC: 2048
rand_sets[7]: 1275
Assign rand_sets[8]: 1876  LLC: 2048
rand_sets[8]: 1876
Assign rand_sets[9]: 2038  LLC: 2048
rand_sets[9]: 2038
Assign rand_sets[10]: 701  LLC: 2048
rand_sets[10]: 701
Assign rand_sets[11]: 479  LLC: 2048
rand_sets[11]: 479
Assign rand_sets[12]: 892  LLC: 2048
rand_sets[12]: 892
Assign rand_sets[13]: 1820  LLC: 2048
rand_sets[13]: 1820
Assign rand_sets[14]: 1505  LLC: 2048
rand_sets[14]: 1505
Assign rand_sets[15]: 1159  LLC: 2048
rand_sets[15]: 1159
Assign rand_sets[16]: 513  LLC: 2048
rand_sets[16]: 513
Assign rand_sets[17]: 703  LLC: 2048
rand_sets[17]: 703
Assign rand_sets[18]: 561  LLC: 2048
rand_sets[18]: 561
Assign rand_sets[19]: 990  LLC: 2048
rand_sets[19]: 990
Assign rand_sets[20]: 342  LLC: 2048
rand_sets[20]: 342
Assign rand_sets[21]: 882  LLC: 2048
rand_sets[21]: 882
Assign rand_sets[22]: 15  LLC: 2048
rand_sets[22]: 15
Assign rand_sets[23]: 71  LLC: 2048
rand_sets[23]: 71
Assign rand_sets[24]: 1127  LLC: 2048
rand_sets[24]: 1127
Assign rand_sets[25]: 1382  LLC: 2048
rand_sets[25]: 1382
Assign rand_sets[26]: 647  LLC: 2048
rand_sets[26]: 647
Assign rand_sets[27]: 857  LLC: 2048
rand_sets[27]: 857
Assign rand_sets[28]: 1450  LLC: 2048
rand_sets[28]: 1450
Assign rand_sets[29]: 1160  LLC: 2048
rand_sets[29]: 1160
Assign rand_sets[30]: 1852  LLC: 2048
rand_sets[30]: 1852
Assign rand_sets[31]: 1881  LLC: 2048
rand_sets[31]: 1881
Assign rand_sets[32]: 1770  LLC: 2048
rand_sets[32]: 1770
Assign rand_sets[33]: 1622  LLC: 2048
rand_sets[33]: 1622
Assign rand_sets[34]: 275  LLC: 2048
rand_sets[34]: 275
Assign rand_sets[35]: 635  LLC: 2048
rand_sets[35]: 635
Assign rand_sets[36]: 466  LLC: 2048
rand_sets[36]: 466
Assign rand_sets[37]: 1413  LLC: 2048
rand_sets[37]: 1413
Assign rand_sets[38]: 417  LLC: 2048
rand_sets[38]: 417
Assign rand_sets[39]: 472  LLC: 2048
rand_sets[39]: 472
Assign rand_sets[40]: 1340  LLC: 2048
rand_sets[40]: 1340
Assign rand_sets[41]: 852  LLC: 2048
rand_sets[41]: 852
Assign rand_sets[42]: 1365  LLC: 2048
rand_sets[42]: 1365
Assign rand_sets[43]: 47  LLC: 2048
rand_sets[43]: 47
Assign rand_sets[44]: 823  LLC: 2048
rand_sets[44]: 823
Assign rand_sets[45]: 686  LLC: 2048
rand_sets[45]: 686
Assign rand_sets[46]: 1637  LLC: 2048
rand_sets[46]: 1637
Assign rand_sets[47]: 1115  LLC: 2048
rand_sets[47]: 1115
Assign rand_sets[48]: 986  LLC: 2048
rand_sets[48]: 986
Assign rand_sets[49]: 258  LLC: 2048
rand_sets[49]: 258
Assign rand_sets[50]: 633  LLC: 2048
rand_sets[50]: 633
Assign rand_sets[51]: 920  LLC: 2048
rand_sets[51]: 920
Assign rand_sets[52]: 204  LLC: 2048
rand_sets[52]: 204
Assign rand_sets[53]: 227  LLC: 2048
rand_sets[53]: 227
Assign rand_sets[54]: 1818  LLC: 2048
rand_sets[54]: 1818
Assign rand_sets[55]: 886  LLC: 2048
rand_sets[55]: 886
Assign rand_sets[56]: 1422  LLC: 2048
rand_sets[56]: 1422
Assign rand_sets[57]: 607  LLC: 2048
rand_sets[57]: 607
Assign rand_sets[58]: 217  LLC: 2048
rand_sets[58]: 217
Assign rand_sets[59]: 1945  LLC: 2048
rand_sets[59]: 1945
Assign rand_sets[60]: 143  LLC: 2048
rand_sets[60]: 143
Assign rand_sets[61]: 1311  LLC: 2048
rand_sets[61]: 1311
Assign rand_sets[62]: 319  LLC: 2048
rand_sets[62]: 319
Assign rand_sets[63]: 1846  LLC: 2048
rand_sets[63]: 1846
 CLEAN-RRIP-POLICY-1: 1-2-1-3-0-3-0-1- CLEAN-RRIP-POLICY-2: 1-2-1-3-0-3-0-1-
 DIRTY-RRIP-POLICY-1: 2-2-1-3-1-3-0-1- DIRTY-RRIP-POLICY-2: 2-2-1-3-1-3-0-1-
 PSEL width: 10
Heartbeat CPU 0 instructions: 10000002 cycles: 6248385 heartbeat IPC: 1.60041 cumulative IPC: 1.60041 (Simulation time: 0 hr 0 min 13 sec) 
Heartbeat CPU 0 instructions: 20000000 cycles: 12468917 heartbeat IPC: 1.60758 cumulative IPC: 1.60399 (Simulation time: 0 hr 0 min 25 sec) 
Heartbeat CPU 0 instructions: 30000000 cycles: 18678983 heartbeat IPC: 1.61029 cumulative IPC: 1.60608 (Simulation time: 0 hr 0 min 37 sec) 
Heartbeat CPU 0 instructions: 40000000 cycles: 24889322 heartbeat IPC: 1.61022 cumulative IPC: 1.60711 (Simulation time: 0 hr 0 min 50 sec) 
Heartbeat CPU 0 instructions: 50000003 cycles: 31101572 heartbeat IPC: 1.60972 cumulative IPC: 1.60764 (Simulation time: 0 hr 1 min 2 sec) 
Heartbeat CPU 0 instructions: 60000000 cycles: 37297543 heartbeat IPC: 1.61395 cumulative IPC: 1.60869 (Simulation time: 0 hr 1 min 14 sec) 
Heartbeat CPU 0 instructions: 70000003 cycles: 43515747 heartbeat IPC: 1.60818 cumulative IPC: 1.60861 (Simulation time: 0 hr 1 min 26 sec) 
Heartbeat CPU 0 instructions: 80000000 cycles: 49746013 heartbeat IPC: 1.60507 cumulative IPC: 1.60817 (Simulation time: 0 hr 1 min 39 sec) 
Heartbeat CPU 0 instructions: 90000000 cycles: 55974801 heartbeat IPC: 1.60545 cumulative IPC: 1.60787 (Simulation time: 0 hr 1 min 51 sec) 
Heartbeat CPU 0 instructions: 100000000 cycles: 62193530 heartbeat IPC: 1.60805 cumulative IPC: 1.60788 (Simulation time: 0 hr 2 min 3 sec) 

Warmup complete CPU 0 instructions: 100000001 cycles: 62193531 (Simulation time: 0 hr 2 min 3 sec) 

Heartbeat CPU 0 instructions: 110000000 cycles: 86760361 heartbeat IPC: 0.407053 cumulative IPC: 0.407053 (Simulation time: 0 hr 2 min 26 sec) 
Heartbeat CPU 0 instructions: 120000000 cycles: 111431586 heartbeat IPC: 0.405331 cumulative IPC: 0.40619 (Simulation time: 0 hr 2 min 49 sec) 
Heartbeat CPU 0 instructions: 130000000 cycles: 136179408 heartbeat IPC: 0.404076 cumulative IPC: 0.405483 (Simulation time: 0 hr 3 min 12 sec) 
Heartbeat CPU 0 instructions: 140000000 cycles: 160878899 heartbeat IPC: 0.404867 cumulative IPC: 0.405329 (Simulation time: 0 hr 3 min 35 sec) 
Heartbeat CPU 0 instructions: 150000003 cycles: 185466539 heartbeat IPC: 0.406709 cumulative IPC: 0.405604 (Simulation time: 0 hr 3 min 58 sec) 
Heartbeat CPU 0 instructions: 160000000 cycles: 210322466 heartbeat IPC: 0.402318 cumulative IPC: 0.405053 (Simulation time: 0 hr 4 min 21 sec) 
Heartbeat CPU 0 instructions: 170000001 cycles: 235047249 heartbeat IPC: 0.404453 cumulative IPC: 0.404967 (Simulation time: 0 hr 4 min 44 sec) 
Heartbeat CPU 0 instructions: 180000000 cycles: 259767660 heartbeat IPC: 0.404524 cumulative IPC: 0.404911 (Simulation time: 0 hr 5 min 7 sec) 
Heartbeat CPU 0 instructions: 190000003 cycles: 284447031 heartbeat IPC: 0.405197 cumulative IPC: 0.404943 (Simulation time: 0 hr 5 min 30 sec) 
Heartbeat CPU 0 instructions: 200000000 cycles: 309171086 heartbeat IPC: 0.404464 cumulative IPC: 0.404895 (Simulation time: 0 hr 5 min 54 sec) 
Heartbeat CPU 0 instructions: 210000003 cycles: 333955585 heartbeat IPC: 0.403478 cumulative IPC: 0.404766 (Simulation time: 0 hr 6 min 17 sec) 
Heartbeat CPU 0 instructions: 220000000 cycles: 358927359 heartbeat IPC: 0.400452 cumulative IPC: 0.404403 (Simulation time: 0 hr 6 min 40 sec) 
Heartbeat CPU 0 instructions: 230000002 cycles: 383556867 heartbeat IPC: 0.406017 cumulative IPC: 0.404527 (Simulation time: 0 hr 7 min 3 sec) 
Heartbeat CPU 0 instructions: 240000000 cycles: 408488950 heartbeat IPC: 0.40109 cumulative IPC: 0.404279 (Simulation time: 0 hr 7 min 26 sec) 
Heartbeat CPU 0 instructions: 250000000 cycles: 433244484 heartbeat IPC: 0.40395 cumulative IPC: 0.404257 (Simulation time: 0 hr 7 min 49 sec) 
Heartbeat CPU 0 instructions: 260000000 cycles: 457959278 heartbeat IPC: 0.404616 cumulative IPC: 0.40428 (Simulation time: 0 hr 8 min 13 sec) 
Heartbeat CPU 0 instructions: 270000001 cycles: 482758973 heartbeat IPC: 0.403231 cumulative IPC: 0.404218 (Simulation time: 0 hr 8 min 36 sec) 
Heartbeat CPU 0 instructions: 280000000 cycles: 507499588 heartbeat IPC: 0.404194 cumulative IPC: 0.404216 (Simulation time: 0 hr 8 min 59 sec) 
Heartbeat CPU 0 instructions: 290000001 cycles: 532326190 heartbeat IPC: 0.402794 cumulative IPC: 0.404141 (Simulation time: 0 hr 9 min 22 sec) 
Heartbeat CPU 0 instructions: 300000000 cycles: 557299690 heartbeat IPC: 0.400424 cumulative IPC: 0.403954 (Simulation time: 0 hr 9 min 45 sec) 
Heartbeat CPU 0 instructions: 310000003 cycles: 581925913 heartbeat IPC: 0.406071 cumulative IPC: 0.404054 (Simulation time: 0 hr 10 min 9 sec) 
Heartbeat CPU 0 instructions: 320000000 cycles: 606909572 heartbeat IPC: 0.400262 cumulative IPC: 0.40388 (Simulation time: 0 hr 10 min 32 sec) 
Heartbeat CPU 0 instructions: 330000003 cycles: 631640840 heartbeat IPC: 0.404347 cumulative IPC: 0.4039 (Simulation time: 0 hr 10 min 55 sec) 
Heartbeat CPU 0 instructions: 340000000 cycles: 656669034 heartbeat IPC: 0.399549 cumulative IPC: 0.403717 (Simulation time: 0 hr 11 min 18 sec) 
Heartbeat CPU 0 instructions: 350000002 cycles: 681667234 heartbeat IPC: 0.400029 cumulative IPC: 0.403568 (Simulation time: 0 hr 11 min 42 sec) 
Heartbeat CPU 0 instructions: 360000000 cycles: 706805643 heartbeat IPC: 0.397798 cumulative IPC: 0.403343 (Simulation time: 0 hr 12 min 5 sec) 
Heartbeat CPU 0 instructions: 370000000 cycles: 731722866 heartbeat IPC: 0.401329 cumulative IPC: 0.403268 (Simulation time: 0 hr 12 min 28 sec) 
Heartbeat CPU 0 instructions: 380000000 cycles: 756451879 heartbeat IPC: 0.404383 cumulative IPC: 0.403308 (Simulation time: 0 hr 12 min 51 sec) 
Heartbeat CPU 0 instructions: 390000002 cycles: 781203792 heartbeat IPC: 0.404009 cumulative IPC: 0.403332 (Simulation time: 0 hr 13 min 14 sec) 
Heartbeat CPU 0 instructions: 400000000 cycles: 806121803 heartbeat IPC: 0.401316 cumulative IPC: 0.403265 (Simulation time: 0 hr 13 min 37 sec) 
Heartbeat CPU 0 instructions: 410000002 cycles: 830950027 heartbeat IPC: 0.402768 cumulative IPC: 0.403249 (Simulation time: 0 hr 14 min 1 sec) 
Heartbeat CPU 0 instructions: 420000000 cycles: 855572875 heartbeat IPC: 0.406127 cumulative IPC: 0.403338 (Simulation time: 0 hr 14 min 24 sec) 
Heartbeat CPU 0 instructions: 430000000 cycles: 880438103 heartbeat IPC: 0.402168 cumulative IPC: 0.403302 (Simulation time: 0 hr 14 min 47 sec) 
Heartbeat CPU 0 instructions: 440000000 cycles: 905005210 heartbeat IPC: 0.407048 cumulative IPC: 0.403412 (Simulation time: 0 hr 15 min 10 sec) 
Heartbeat CPU 0 instructions: 450000000 cycles: 930001563 heartbeat IPC: 0.400058 cumulative IPC: 0.403315 (Simulation time: 0 hr 15 min 35 sec) 
Heartbeat CPU 0 instructions: 460000000 cycles: 954913325 heartbeat IPC: 0.401417 cumulative IPC: 0.403262 (Simulation time: 0 hr 15 min 59 sec) 
Heartbeat CPU 0 instructions: 470000001 cycles: 979631074 heartbeat IPC: 0.404568 cumulative IPC: 0.403297 (Simulation time: 0 hr 16 min 23 sec) 
Heartbeat CPU 0 instructions: 480000000 cycles: 1004519562 heartbeat IPC: 0.401792 cumulative IPC: 0.403257 (Simulation time: 0 hr 16 min 48 sec) 
Heartbeat CPU 0 instructions: 490000000 cycles: 1029502667 heartbeat IPC: 0.40027 cumulative IPC: 0.40318 (Simulation time: 0 hr 17 min 12 sec) 
Heartbeat CPU 0 instructions: 500000000 cycles: 1054799646 heartbeat IPC: 0.395304 cumulative IPC: 0.40298 (Simulation time: 0 hr 17 min 37 sec) 
Heartbeat CPU 0 instructions: 510000003 cycles: 1079978525 heartbeat IPC: 0.397158 cumulative IPC: 0.402836 (Simulation time: 0 hr 18 min 1 sec) 
Heartbeat CPU 0 instructions: 520000000 cycles: 1105328124 heartbeat IPC: 0.394483 cumulative IPC: 0.402633 (Simulation time: 0 hr 18 min 25 sec) 
Heartbeat CPU 0 instructions: 530000003 cycles: 1130691675 heartbeat IPC: 0.394267 cumulative IPC: 0.402434 (Simulation time: 0 hr 18 min 50 sec) 
Heartbeat CPU 0 instructions: 540000000 cycles: 1155963834 heartbeat IPC: 0.395692 cumulative IPC: 0.402278 (Simulation time: 0 hr 19 min 14 sec) 
Heartbeat CPU 0 instructions: 550000000 cycles: 1181254282 heartbeat IPC: 0.395406 cumulative IPC: 0.402123 (Simulation time: 0 hr 19 min 38 sec) 
Heartbeat CPU 0 instructions: 560000000 cycles: 1206847446 heartbeat IPC: 0.390729 cumulative IPC: 0.401868 (Simulation time: 0 hr 20 min 3 sec) 
Heartbeat CPU 0 instructions: 570000001 cycles: 1232370148 heartbeat IPC: 0.391808 cumulative IPC: 0.401649 (Simulation time: 0 hr 20 min 27 sec) 
Heartbeat CPU 0 instructions: 580000000 cycles: 1257896703 heartbeat IPC: 0.391749 cumulative IPC: 0.401437 (Simulation time: 0 hr 20 min 52 sec) 
Heartbeat CPU 0 instructions: 590000000 cycles: 1283578829 heartbeat IPC: 0.389376 cumulative IPC: 0.401184 (Simulation time: 0 hr 21 min 16 sec) 
Heartbeat CPU 0 instructions: 600000000 cycles: 1309355728 heartbeat IPC: 0.387944 cumulative IPC: 0.40091 (Simulation time: 0 hr 21 min 41 sec) 
Finished CPU 0 instructions: 500000003 cycles: 1247162210 cumulative IPC: 0.40091 (Simulation time: 0 hr 21 min 41 sec) 

CPU 0 Branch Prediction Accuracy: 91.1342% MPKI: 18.7968
Number of Branches: 106006945 Number of Mispredictions: 9398408
Number of LOAD Instructions: 207894007
Number of LOAD Instructions (ROI): 207894007
Number of STORE Instructions: 54285997
Number of STORE Instructions (ROI): 54285997
Total Destination Memory Operands: 57463404
Total Destination Memory Operands (ROI): 57463404
Total Source Memory Operands: 207894007
Total Source Memory Operands (ROI): 207894007
Number of DEPENDED LOADS: 18106277
Number of DEPENDED LOADS (ROI): 18106277
Number of SQ_ADDED: 57463404
Number of SQ_ADDED (ROI): 57463404
Number of LQ_ADDED: 209238295
Number of LQ_ADDED (ROI): 209238295
Number of Instructions read from trace: 600000039

ChampSim completed all CPUs

Region of Interest Statistics

CPU 0 cumulative IPC: 0.40091 instructions: 500000003 cycles: 1247162210
ITLB TOTAL     ACCESS:   96420717  HIT:   96420717  MISS:          0
ITLB LOAD      ACCESS:   96420717  HIT:   96420717  MISS:          0
ITLB RFO       ACCESS:          0  HIT:          0  MISS:          0
ITLB PREFETCH  ACCESS:          0  HIT:          0  MISS:          0
ITLB WRITEBACK ACCESS:          0  HIT:          0  MISS:          0
ITLB PREFETCH  REQUESTED:          0  ISSUED:          0  USEFUL:          0  USELESS:          0
ITLB TOTAL MSHR MERGED:          0
ITLB LOAD MSHR MERGED:          0
ITLB RFO MSHR MERGED:          0
ITLB PREFETCH MSHR MERGED:          0
ITLB WRITEBACK MSHR MERGED:          0
ITLB TOTAL ACCESSES:   96420717 HITS:   96420717 MISSES:          0
ITLB LOAD ACCESSES:   96420717 HITS:   96420717 MISSES:          0
ITLB RFO ACCESSES:          0 HITS:          0 MISSES:          0
ITLB PREFETCH ACCESSES:          0 HITS:          0 MISSES:          0
ITLB WRITEBACK ACCESSES:          0 HITS:          0 MISSES:          0
ITLB RQ ACCESS:  499999980
ITLB RQ TO_CACHE:   96420717
ITLB RQ MERGED:  403579263
ITLB RQ FORWARD:          0
ITLB WQ ACCESS:          0
ITLB WQ TO_CACHE:          0
ITLB WQ MERGED:          0
ITLB WQ FORWARD:          0
DTLB TOTAL     ACCESS:  155173224  HIT:  150261081  MISS:    4912143
DTLB LOAD      ACCESS:  117722425  HIT:  113331984  MISS:    4390441
DTLB RFO       ACCESS:   37450799  HIT:   36929097  MISS:     521702
DTLB PREFETCH  ACCESS:          0  HIT:          0  MISS:          0
DTLB WRITEBACK ACCESS:          0  HIT:          0  MISS:          0
DTLB PREFETCH  REQUESTED:          0  ISSUED:          0  USEFUL:          0  USELESS:          0
DTLB TOTAL MSHR MERGED:     452902
DTLB LOAD MSHR MERGED:     161453
DTLB RFO MSHR MERGED:     291449
DTLB PREFETCH MSHR MERGED:          0
DTLB WRITEBACK MSHR MERGED:          0
DTLB TOTAL ACCESSES:  155626126 HITS:  150261081 MISSES:    5365045
DTLB LOAD ACCESSES:  117883878 HITS:  113331984 MISSES:    4551894
DTLB RFO ACCESSES:   37742248 HITS:   36929097 MISSES:     813151
DTLB PREFETCH ACCESSES:          0 HITS:          0 MISSES:          0
DTLB WRITEBACK ACCESSES:          0 HITS:          0 MISSES:          0
DTLB RQ ACCESS:  205976651
DTLB RQ TO_CACHE:  155626126
DTLB RQ MERGED:   50350525
DTLB RQ FORWARD:          0
DTLB WQ ACCESS:          0
DTLB WQ TO_CACHE:          0
DTLB WQ MERGED:          0
DTLB WQ FORWARD:          0
L1D TOTAL     ACCESS:  277177684  HIT:  242355246  MISS:   34822438
L1D LOAD      ACCESS:  125414712  HIT:  107774616  MISS:   17640096
L1D RFO       ACCESS:   41135147  HIT:   38823310  MISS:    2311837
L1D PREFETCH  ACCESS:  110627825  HIT:   95757320  MISS:   14870505
L1D WRITEBACK ACCESS:          0  HIT:          0  MISS:          0
L1D PREFETCH  REQUESTED:  126270988  ISSUED:  124751792  USEFUL:    2704563  USELESS:   12165968
L1D TOTAL MSHR MERGED:    8489398
L1D LOAD MSHR MERGED:    1547974
L1D RFO MSHR MERGED:    3769390
L1D PREFETCH MSHR MERGED:    3172034
L1D WRITEBACK MSHR MERGED:          0
L1D TOTAL ACCESSES:  285754422 HITS:  242442584 MISSES:   43311838
L1D LOAD ACCESSES:  126271017 HITS:  107774645 MISSES:   18496372
L1D RFO ACCESSES:   44904042 HITS:   38823310 MISSES:    6080732
L1D PREFETCH ACCESSES:  114579363 HITS:   95844629 MISSES:   18734734
L1D WRITEBACK ACCESSES:          0 HITS:          0 MISSES:          0
L1D RQ ACCESS:  158429770
L1D RQ TO_CACHE:  126270988
L1D RQ MERGED:   32158753
L1D RQ FORWARD:          0
L1D WQ ACCESS:   47546882
L1D WQ TO_CACHE:   44904042
L1D WQ MERGED:    2642840
L1D WQ FORWARD:      87338
L1I TOTAL     ACCESS:  132830384  HIT:  132830384  MISS:          0
L1I LOAD      ACCESS:  132830384  HIT:  132830384  MISS:          0
L1I RFO       ACCESS:          0  HIT:          0  MISS:          0
L1I PREFETCH  ACCESS:          0  HIT:          0  MISS:          0
L1I WRITEBACK ACCESS:          0  HIT:          0  MISS:          0
L1I PREFETCH  REQUESTED:          0  ISSUED:          0  USEFUL:          0  USELESS:          0
L1I TOTAL MSHR MERGED:          0
L1I LOAD MSHR MERGED:          0
L1I RFO MSHR MERGED:          0
L1I PREFETCH MSHR MERGED:          0
L1I WRITEBACK MSHR MERGED:          0
L1I TOTAL ACCESSES:  132830384 HITS:  132830384 MISSES:          0
L1I LOAD ACCESSES:  132830384 HITS:  132830384 MISSES:          0
L1I RFO ACCESSES:          0 HITS:          0 MISSES:          0
L1I PREFETCH ACCESSES:          0 HITS:          0 MISSES:          0
L1I WRITEBACK ACCESSES:          0 HITS:          0 MISSES:          0
L1I RQ ACCESS:  499999980
L1I RQ TO_CACHE:  132830384
L1I RQ MERGED:  367169596
L1I RQ FORWARD:          0
L1I WQ ACCESS:          0
L1I WQ TO_CACHE:          0
L1I WQ MERGED:          0
L1I WQ FORWARD:          0
L2C TOTAL     ACCESS:   39598070  HIT:   20628733  MISS:   18969337
L2C LOAD      ACCESS:   16948338  HIT:    8568067  MISS:    8380271
L2C RFO       ACCESS:    2311291  HIT:     630841  MISS:    1680450
L2C PREFETCH  ACCESS:   17116001  HIT:    8211136  MISS:    8904865
L2C WRITEBACK ACCESS:    3222440  HIT:    3218689  MISS:       3751
L2C PREFETCH  REQUESTED:    2883590  ISSUED:    2883590  USEFUL:    1307395  USELESS:    7597208
L2C TOTAL MSHR MERGED:     533448
L2C LOAD MSHR MERGED:      89895
L2C RFO MSHR MERGED:          0
L2C PREFETCH MSHR MERGED:     443553
L2C WRITEBACK MSHR MERGED:          0
L2C TOTAL ACCESSES:   40248687 HITS:   20628893 MISSES:   19619794
L2C LOAD ACCESSES:   16948398 HITS:    8568127 MISSES:    8380271
L2C RFO ACCESSES:    2311342 HITS:     630892 MISSES:    1680450
L2C PREFETCH ACCESSES:   17766507 HITS:    8211185 MISSES:    9555322
L2C WRITEBACK ACCESSES:    3222440 HITS:    3218689 MISSES:       3751
L2C RQ ACCESS:   19259740
L2C RQ TO_CACHE:   19259629
L2C RQ MERGED:          0
L2C RQ FORWARD:          0
L2C WQ ACCESS:    3222440
L2C WQ TO_CACHE:    3222440
L2C WQ MERGED:          0
L2C WQ FORWARD:        160
LLC TOTAL     ACCESS:   21199271  HIT:   14036755  MISS:    7162516
LLC LOAD      ACCESS:    8290349  HIT:    5780118  MISS:    2510231
LLC RFO       ACCESS:    1680368  HIT:    1669309  MISS:      11059
LLC PREFETCH  ACCESS:    9052897  HIT:    4420172  MISS:    4632725
LLC WRITEBACK ACCESS:    2175657  HIT:    2167156  MISS:       8501
LLC PREFETCH  REQUESTED:          0  ISSUED:          0  USEFUL:     201408  USELESS:    4433666
LLC TOTAL MSHR MERGED:      49684
LLC LOAD MSHR MERGED:      15686
LLC RFO MSHR MERGED:          0
LLC PREFETCH MSHR MERGED:      33998
LLC WRITEBACK MSHR MERGED:          0
LLC TOTAL ACCESSES:   21249094 HITS:   14036892 MISSES:    7212202
LLC LOAD ACCESSES:    8290376 HITS:    5780145 MISSES:    2510231
LLC RFO ACCESSES:    1680450 HITS:    1669391 MISSES:      11059
LLC PREFETCH ACCESSES:    9102611 HITS:    4420200 MISSES:    4682411
LLC WRITEBACK ACCESSES:    2175657 HITS:    2167156 MISSES:       8501
LLC 0 RQ ACCESS:    9970826
LLC 0 RQ TO_CACHE:    9970717
LLC 0 RQ MERGED:          0
LLC 0 RQ FORWARD:          0
LLC WQ ACCESS:    2175658
LLC WQ TO_CACHE:    2175658
LLC WQ MERGED:          0
LLC WQ FORWARD:        137
Major fault: 0 Minor fault: 56391
CPU 0 L1D next line prefetcher final stats
CPU 0 L2C PC-based stride prefetcher final stats
All Misses: 8408067
All Hits: 16168049
SD Algo Stats - Switches: 0 SRR-Repls: 2633008 BRR-Repls: 0

DRAM Statistics
 CHANNEL 0
 RQ ROW_BUFFER_HIT:    4574441  ROW_BUFFER_MISS:    2563857
 DBUS_CONGESTED:    3323774
 WQ ROW_BUFFER_HIT:        971  ROW_BUFFER_MISS:      27839  FULL:          0

 AVG_CONGESTED_CYCLE: 12
LOADS RETIRED: 173631671
INSTR RETIRED: 500000000
