
*** ChampSim Multicore Out-of-Order Simulator ***

Warmup Instructions: 100000000
Simulation Instructions: 500000000
Number of CPUs: 1
LLC sets: 2048
LLC ways: 16
Clean RRIP Policies: 323202303232023 Dirty RRIP Policies: 2303202323032023 PSEL Width: 10 Track Set: 4294967295 PSEL Mask: 1 Demote Mask: 2313132123131321DS Algo: 0Window size: 0
Off-chip DRAM Size: 4096 MB Channels: 1 Width: 64-bit Data Rate: 1600 MT/s

CPU 0 runs /mnt/beegfs/iconst01/spec2017/Gcc.trace.gz
NOT SORTED
TRACE STRING: /mnt/beegfs/iconst01/spec2017/Gcc.trace.gz
SORTED
TRACE STRING: /mnt/beegfs/iconst01/spec2017/Gcc.trace.gz
INITIAL
TRACE STRING: /mnt/beegfs/iconst01/spec2017/Gcc.trace.gz

champsim_seed used: 269

CPU 0 L1D next line prefetcher
CPU 0 L2C IP-based stride prefetcher
Initialize DRRIP state
Assign rand_sets[0]: 454  LLC: 2048
rand_sets[0]: 454
Assign rand_sets[1]: 1662  LLC: 2048
rand_sets[1]: 1662
Assign rand_sets[2]: 1921  LLC: 2048
rand_sets[2]: 1921
Assign rand_sets[3]: 1131  LLC: 2048
rand_sets[3]: 1131
Assign rand_sets[4]: 331  LLC: 2048
rand_sets[4]: 331
Assign rand_sets[5]: 1531  LLC: 2048
rand_sets[5]: 1531
Assign rand_sets[6]: 482  LLC: 2048
rand_sets[6]: 482
Assign rand_sets[7]: 1275  LLC: 2048
rand_sets[7]: 1275
Assign rand_sets[8]: 1876  LLC: 2048
rand_sets[8]: 1876
Assign rand_sets[9]: 2038  LLC: 2048
rand_sets[9]: 2038
Assign rand_sets[10]: 701  LLC: 2048
rand_sets[10]: 701
Assign rand_sets[11]: 479  LLC: 2048
rand_sets[11]: 479
Assign rand_sets[12]: 892  LLC: 2048
rand_sets[12]: 892
Assign rand_sets[13]: 1820  LLC: 2048
rand_sets[13]: 1820
Assign rand_sets[14]: 1505  LLC: 2048
rand_sets[14]: 1505
Assign rand_sets[15]: 1159  LLC: 2048
rand_sets[15]: 1159
Assign rand_sets[16]: 513  LLC: 2048
rand_sets[16]: 513
Assign rand_sets[17]: 703  LLC: 2048
rand_sets[17]: 703
Assign rand_sets[18]: 561  LLC: 2048
rand_sets[18]: 561
Assign rand_sets[19]: 990  LLC: 2048
rand_sets[19]: 990
Assign rand_sets[20]: 342  LLC: 2048
rand_sets[20]: 342
Assign rand_sets[21]: 882  LLC: 2048
rand_sets[21]: 882
Assign rand_sets[22]: 15  LLC: 2048
rand_sets[22]: 15
Assign rand_sets[23]: 71  LLC: 2048
rand_sets[23]: 71
Assign rand_sets[24]: 1127  LLC: 2048
rand_sets[24]: 1127
Assign rand_sets[25]: 1382  LLC: 2048
rand_sets[25]: 1382
Assign rand_sets[26]: 647  LLC: 2048
rand_sets[26]: 647
Assign rand_sets[27]: 857  LLC: 2048
rand_sets[27]: 857
Assign rand_sets[28]: 1450  LLC: 2048
rand_sets[28]: 1450
Assign rand_sets[29]: 1160  LLC: 2048
rand_sets[29]: 1160
Assign rand_sets[30]: 1852  LLC: 2048
rand_sets[30]: 1852
Assign rand_sets[31]: 1881  LLC: 2048
rand_sets[31]: 1881
Assign rand_sets[32]: 1770  LLC: 2048
rand_sets[32]: 1770
Assign rand_sets[33]: 1622  LLC: 2048
rand_sets[33]: 1622
Assign rand_sets[34]: 275  LLC: 2048
rand_sets[34]: 275
Assign rand_sets[35]: 635  LLC: 2048
rand_sets[35]: 635
Assign rand_sets[36]: 466  LLC: 2048
rand_sets[36]: 466
Assign rand_sets[37]: 1413  LLC: 2048
rand_sets[37]: 1413
Assign rand_sets[38]: 417  LLC: 2048
rand_sets[38]: 417
Assign rand_sets[39]: 472  LLC: 2048
rand_sets[39]: 472
Assign rand_sets[40]: 1340  LLC: 2048
rand_sets[40]: 1340
Assign rand_sets[41]: 852  LLC: 2048
rand_sets[41]: 852
Assign rand_sets[42]: 1365  LLC: 2048
rand_sets[42]: 1365
Assign rand_sets[43]: 47  LLC: 2048
rand_sets[43]: 47
Assign rand_sets[44]: 823  LLC: 2048
rand_sets[44]: 823
Assign rand_sets[45]: 686  LLC: 2048
rand_sets[45]: 686
Assign rand_sets[46]: 1637  LLC: 2048
rand_sets[46]: 1637
Assign rand_sets[47]: 1115  LLC: 2048
rand_sets[47]: 1115
Assign rand_sets[48]: 986  LLC: 2048
rand_sets[48]: 986
Assign rand_sets[49]: 258  LLC: 2048
rand_sets[49]: 258
Assign rand_sets[50]: 633  LLC: 2048
rand_sets[50]: 633
Assign rand_sets[51]: 920  LLC: 2048
rand_sets[51]: 920
Assign rand_sets[52]: 204  LLC: 2048
rand_sets[52]: 204
Assign rand_sets[53]: 227  LLC: 2048
rand_sets[53]: 227
Assign rand_sets[54]: 1818  LLC: 2048
rand_sets[54]: 1818
Assign rand_sets[55]: 886  LLC: 2048
rand_sets[55]: 886
Assign rand_sets[56]: 1422  LLC: 2048
rand_sets[56]: 1422
Assign rand_sets[57]: 607  LLC: 2048
rand_sets[57]: 607
Assign rand_sets[58]: 217  LLC: 2048
rand_sets[58]: 217
Assign rand_sets[59]: 1945  LLC: 2048
rand_sets[59]: 1945
Assign rand_sets[60]: 143  LLC: 2048
rand_sets[60]: 143
Assign rand_sets[61]: 1311  LLC: 2048
rand_sets[61]: 1311
Assign rand_sets[62]: 319  LLC: 2048
rand_sets[62]: 319
Assign rand_sets[63]: 1846  LLC: 2048
rand_sets[63]: 1846
 CLEAN-RRIP-POLICY-1: 0-3-2-3-2-0-2-3- CLEAN-RRIP-POLICY-2: 0-3-2-3-2-0-2-3-
 DIRTY-RRIP-POLICY-1: 2-3-0-3-2-0-2-3- DIRTY-RRIP-POLICY-2: 2-3-0-3-2-0-2-3-
 PSEL width: 10
Heartbeat CPU 0 instructions: 10000001 cycles: 7321625 heartbeat IPC: 1.36582 cumulative IPC: 1.36582 (Simulation time: 0 hr 0 min 15 sec) 
Heartbeat CPU 0 instructions: 20000000 cycles: 14328006 heartbeat IPC: 1.42727 cumulative IPC: 1.39587 (Simulation time: 0 hr 0 min 29 sec) 
Heartbeat CPU 0 instructions: 30000001 cycles: 21045401 heartbeat IPC: 1.48867 cumulative IPC: 1.42549 (Simulation time: 0 hr 0 min 45 sec) 
Heartbeat CPU 0 instructions: 40000000 cycles: 27507828 heartbeat IPC: 1.54741 cumulative IPC: 1.45413 (Simulation time: 0 hr 1 min 1 sec) 
Heartbeat CPU 0 instructions: 50000001 cycles: 33610823 heartbeat IPC: 1.63854 cumulative IPC: 1.48762 (Simulation time: 0 hr 1 min 17 sec) 
Heartbeat CPU 0 instructions: 60000000 cycles: 40093256 heartbeat IPC: 1.54263 cumulative IPC: 1.49651 (Simulation time: 0 hr 1 min 33 sec) 
Heartbeat CPU 0 instructions: 70000000 cycles: 47136897 heartbeat IPC: 1.41972 cumulative IPC: 1.48504 (Simulation time: 0 hr 1 min 47 sec) 
Heartbeat CPU 0 instructions: 80000000 cycles: 54232966 heartbeat IPC: 1.40923 cumulative IPC: 1.47512 (Simulation time: 0 hr 2 min 2 sec) 
Heartbeat CPU 0 instructions: 90000003 cycles: 61243975 heartbeat IPC: 1.42633 cumulative IPC: 1.46953 (Simulation time: 0 hr 2 min 17 sec) 
Heartbeat CPU 0 instructions: 100000000 cycles: 68418014 heartbeat IPC: 1.39391 cumulative IPC: 1.4616 (Simulation time: 0 hr 2 min 31 sec) 

Warmup complete CPU 0 instructions: 100000004 cycles: 68418015 (Simulation time: 0 hr 2 min 31 sec) 

Heartbeat CPU 0 instructions: 110000003 cycles: 97186594 heartbeat IPC: 0.347602 cumulative IPC: 0.347601 (Simulation time: 0 hr 3 min 0 sec) 
Heartbeat CPU 0 instructions: 120000000 cycles: 125191042 heartbeat IPC: 0.357086 cumulative IPC: 0.35228 (Simulation time: 0 hr 3 min 29 sec) 
Heartbeat CPU 0 instructions: 130000000 cycles: 150606134 heartbeat IPC: 0.393467 cumulative IPC: 0.365016 (Simulation time: 0 hr 3 min 57 sec) 
Heartbeat CPU 0 instructions: 140000000 cycles: 182145023 heartbeat IPC: 0.317069 cumulative IPC: 0.351719 (Simulation time: 0 hr 4 min 26 sec) 
Heartbeat CPU 0 instructions: 150000000 cycles: 213514418 heartbeat IPC: 0.318782 cumulative IPC: 0.344598 (Simulation time: 0 hr 4 min 55 sec) 
Heartbeat CPU 0 instructions: 160000000 cycles: 241536781 heartbeat IPC: 0.356858 cumulative IPC: 0.346583 (Simulation time: 0 hr 5 min 23 sec) 
Heartbeat CPU 0 instructions: 170000001 cycles: 270278199 heartbeat IPC: 0.34793 cumulative IPC: 0.346775 (Simulation time: 0 hr 5 min 53 sec) 
Heartbeat CPU 0 instructions: 180000000 cycles: 299509506 heartbeat IPC: 0.342099 cumulative IPC: 0.346183 (Simulation time: 0 hr 6 min 22 sec) 
Heartbeat CPU 0 instructions: 190000002 cycles: 328361071 heartbeat IPC: 0.346602 cumulative IPC: 0.34623 (Simulation time: 0 hr 6 min 51 sec) 
Heartbeat CPU 0 instructions: 200000000 cycles: 357553176 heartbeat IPC: 0.342558 cumulative IPC: 0.345859 (Simulation time: 0 hr 7 min 20 sec) 
Heartbeat CPU 0 instructions: 210000002 cycles: 386250763 heartbeat IPC: 0.348461 cumulative IPC: 0.346094 (Simulation time: 0 hr 7 min 49 sec) 
Heartbeat CPU 0 instructions: 220000000 cycles: 417360017 heartbeat IPC: 0.321448 cumulative IPC: 0.343897 (Simulation time: 0 hr 8 min 17 sec) 
Heartbeat CPU 0 instructions: 230000000 cycles: 446020698 heartbeat IPC: 0.34891 cumulative IPC: 0.344277 (Simulation time: 0 hr 8 min 45 sec) 
Heartbeat CPU 0 instructions: 240000000 cycles: 472947649 heartbeat IPC: 0.371375 cumulative IPC: 0.346081 (Simulation time: 0 hr 9 min 12 sec) 
Heartbeat CPU 0 instructions: 250000000 cycles: 503764885 heartbeat IPC: 0.324494 cumulative IPC: 0.344553 (Simulation time: 0 hr 9 min 42 sec) 
Heartbeat CPU 0 instructions: 260000000 cycles: 531354092 heartbeat IPC: 0.362461 cumulative IPC: 0.34562 (Simulation time: 0 hr 10 min 10 sec) 
Heartbeat CPU 0 instructions: 270000003 cycles: 560501352 heartbeat IPC: 0.343086 cumulative IPC: 0.34547 (Simulation time: 0 hr 10 min 40 sec) 
Heartbeat CPU 0 instructions: 280000000 cycles: 589421167 heartbeat IPC: 0.345784 cumulative IPC: 0.345487 (Simulation time: 0 hr 11 min 10 sec) 
Heartbeat CPU 0 instructions: 290000000 cycles: 619044530 heartbeat IPC: 0.337571 cumulative IPC: 0.345061 (Simulation time: 0 hr 11 min 39 sec) 
Heartbeat CPU 0 instructions: 300000000 cycles: 650638916 heartbeat IPC: 0.316512 cumulative IPC: 0.343512 (Simulation time: 0 hr 12 min 8 sec) 
Heartbeat CPU 0 instructions: 310000001 cycles: 681290161 heartbeat IPC: 0.326251 cumulative IPC: 0.342649 (Simulation time: 0 hr 12 min 37 sec) 
Heartbeat CPU 0 instructions: 320000000 cycles: 710954373 heartbeat IPC: 0.337106 cumulative IPC: 0.342393 (Simulation time: 0 hr 13 min 5 sec) 
Heartbeat CPU 0 instructions: 330000000 cycles: 740646750 heartbeat IPC: 0.336787 cumulative IPC: 0.342145 (Simulation time: 0 hr 13 min 34 sec) 
Heartbeat CPU 0 instructions: 340000000 cycles: 771165977 heartbeat IPC: 0.327662 cumulative IPC: 0.341516 (Simulation time: 0 hr 14 min 3 sec) 
Heartbeat CPU 0 instructions: 350000003 cycles: 798952169 heartbeat IPC: 0.359891 cumulative IPC: 0.342215 (Simulation time: 0 hr 14 min 30 sec) 
Heartbeat CPU 0 instructions: 360000000 cycles: 830291619 heartbeat IPC: 0.319087 cumulative IPC: 0.341264 (Simulation time: 0 hr 14 min 59 sec) 
Heartbeat CPU 0 instructions: 370000000 cycles: 861823306 heartbeat IPC: 0.317141 cumulative IPC: 0.340305 (Simulation time: 0 hr 15 min 27 sec) 
Heartbeat CPU 0 instructions: 380000000 cycles: 893791272 heartbeat IPC: 0.312813 cumulative IPC: 0.33924 (Simulation time: 0 hr 15 min 56 sec) 
Heartbeat CPU 0 instructions: 390000001 cycles: 924810148 heartbeat IPC: 0.322384 cumulative IPC: 0.33863 (Simulation time: 0 hr 16 min 24 sec) 
Heartbeat CPU 0 instructions: 400000000 cycles: 956708274 heartbeat IPC: 0.313498 cumulative IPC: 0.337727 (Simulation time: 0 hr 16 min 52 sec) 
Heartbeat CPU 0 instructions: 410000001 cycles: 987444152 heartbeat IPC: 0.325353 cumulative IPC: 0.337314 (Simulation time: 0 hr 17 min 20 sec) 
Heartbeat CPU 0 instructions: 420000000 cycles: 1018239249 heartbeat IPC: 0.324727 cumulative IPC: 0.336906 (Simulation time: 0 hr 17 min 49 sec) 
Heartbeat CPU 0 instructions: 430000002 cycles: 1049395562 heartbeat IPC: 0.320962 cumulative IPC: 0.336399 (Simulation time: 0 hr 18 min 17 sec) 
Heartbeat CPU 0 instructions: 440000000 cycles: 1081672505 heartbeat IPC: 0.309819 cumulative IPC: 0.335552 (Simulation time: 0 hr 18 min 45 sec) 
Heartbeat CPU 0 instructions: 450000002 cycles: 1113876739 heartbeat IPC: 0.310518 cumulative IPC: 0.334781 (Simulation time: 0 hr 19 min 14 sec) 
Heartbeat CPU 0 instructions: 460000000 cycles: 1144950584 heartbeat IPC: 0.321814 cumulative IPC: 0.334407 (Simulation time: 0 hr 19 min 42 sec) 
Heartbeat CPU 0 instructions: 470000000 cycles: 1175579233 heartbeat IPC: 0.326492 cumulative IPC: 0.334188 (Simulation time: 0 hr 20 min 10 sec) 
Heartbeat CPU 0 instructions: 480000000 cycles: 1206422556 heartbeat IPC: 0.324219 cumulative IPC: 0.333918 (Simulation time: 0 hr 20 min 38 sec) 
Heartbeat CPU 0 instructions: 490000000 cycles: 1237025450 heartbeat IPC: 0.326766 cumulative IPC: 0.333731 (Simulation time: 0 hr 21 min 6 sec) 
Heartbeat CPU 0 instructions: 500000000 cycles: 1268041237 heartbeat IPC: 0.322416 cumulative IPC: 0.333438 (Simulation time: 0 hr 21 min 35 sec) 
Heartbeat CPU 0 instructions: 510000000 cycles: 1303772808 heartbeat IPC: 0.279865 cumulative IPC: 0.331888 (Simulation time: 0 hr 22 min 6 sec) 
Heartbeat CPU 0 instructions: 520000000 cycles: 1332249017 heartbeat IPC: 0.35117 cumulative IPC: 0.332323 (Simulation time: 0 hr 22 min 34 sec) 
Heartbeat CPU 0 instructions: 530000001 cycles: 1363228144 heartbeat IPC: 0.322798 cumulative IPC: 0.332095 (Simulation time: 0 hr 23 min 2 sec) 
Heartbeat CPU 0 instructions: 540000000 cycles: 1392662070 heartbeat IPC: 0.339744 cumulative IPC: 0.332265 (Simulation time: 0 hr 23 min 31 sec) 
Heartbeat CPU 0 instructions: 550000001 cycles: 1422380882 heartbeat IPC: 0.336487 cumulative IPC: 0.332358 (Simulation time: 0 hr 24 min 1 sec) 
Heartbeat CPU 0 instructions: 560000000 cycles: 1448296527 heartbeat IPC: 0.385867 cumulative IPC: 0.333363 (Simulation time: 0 hr 24 min 28 sec) 
Heartbeat CPU 0 instructions: 570000000 cycles: 1479168796 heartbeat IPC: 0.323915 cumulative IPC: 0.333156 (Simulation time: 0 hr 24 min 57 sec) 
Heartbeat CPU 0 instructions: 580000000 cycles: 1508425451 heartbeat IPC: 0.341803 cumulative IPC: 0.333332 (Simulation time: 0 hr 25 min 26 sec) 
Heartbeat CPU 0 instructions: 590000001 cycles: 1534036581 heartbeat IPC: 0.390455 cumulative IPC: 0.33433 (Simulation time: 0 hr 25 min 53 sec) 
Heartbeat CPU 0 instructions: 600000000 cycles: 1561930304 heartbeat IPC: 0.358504 cumulative IPC: 0.334781 (Simulation time: 0 hr 26 min 21 sec) 
Finished CPU 0 instructions: 500000000 cycles: 1493512311 cumulative IPC: 0.334781 (Simulation time: 0 hr 26 min 21 sec) 

CPU 0 Branch Prediction Accuracy: 86.4311% MPKI: 26.2662
Number of Branches: 96788573 Number of Mispredictions: 13133102
Number of LOAD Instructions: 164682285
Number of LOAD Instructions (ROI): 164682285
Number of STORE Instructions: 78194750
Number of STORE Instructions (ROI): 78194750
Total Destination Memory Operands: 83268534
Total Destination Memory Operands (ROI): 83268534
Total Source Memory Operands: 164712438
Total Source Memory Operands (ROI): 164712438
Number of DEPENDED LOADS: 7056026
Number of DEPENDED LOADS (ROI): 7056026
Number of SQ_ADDED: 83268522
Number of SQ_ADDED (ROI): 83268522
Number of LQ_ADDED: 236762336
Number of LQ_ADDED (ROI): 236762336
Number of Instructions read from trace: 600000066

ChampSim completed all CPUs

Region of Interest Statistics

CPU 0 cumulative IPC: 0.334781 instructions: 500000000 cycles: 1493512311
ITLB TOTAL     ACCESS:  100532450  HIT:  100328004  MISS:     204446
ITLB LOAD      ACCESS:  100532450  HIT:  100328004  MISS:     204446
ITLB RFO       ACCESS:          0  HIT:          0  MISS:          0
ITLB PREFETCH  ACCESS:          0  HIT:          0  MISS:          0
ITLB WRITEBACK ACCESS:          0  HIT:          0  MISS:          0
ITLB PREFETCH  REQUESTED:          0  ISSUED:          0  USEFUL:          0  USELESS:          0
ITLB TOTAL MSHR MERGED:     172424
ITLB LOAD MSHR MERGED:     172424
ITLB RFO MSHR MERGED:          0
ITLB PREFETCH MSHR MERGED:          0
ITLB WRITEBACK MSHR MERGED:          0
ITLB TOTAL ACCESSES:  100704874 HITS:  100328004 MISSES:     376870
ITLB LOAD ACCESSES:  100704874 HITS:  100328004 MISSES:     376870
ITLB RFO ACCESSES:          0 HITS:          0 MISSES:          0
ITLB PREFETCH ACCESSES:          0 HITS:          0 MISSES:          0
ITLB WRITEBACK ACCESSES:          0 HITS:          0 MISSES:          0
ITLB RQ ACCESS:  500000057
ITLB RQ TO_CACHE:  100704874
ITLB RQ MERGED:  399295183
ITLB RQ FORWARD:          0
ITLB WQ ACCESS:          0
ITLB WQ TO_CACHE:          0
ITLB WQ MERGED:          0
ITLB WQ FORWARD:          0
DTLB TOTAL     ACCESS:  165358080  HIT:  164723728  MISS:     634352
DTLB LOAD      ACCESS:  106304718  HIT:  105734706  MISS:     570012
DTLB RFO       ACCESS:   59053362  HIT:   58989022  MISS:      64340
DTLB PREFETCH  ACCESS:          0  HIT:          0  MISS:          0
DTLB WRITEBACK ACCESS:          0  HIT:          0  MISS:          0
DTLB PREFETCH  REQUESTED:          0  ISSUED:          0  USEFUL:          0  USELESS:          0
DTLB TOTAL MSHR MERGED:      99358
DTLB LOAD MSHR MERGED:      59108
DTLB RFO MSHR MERGED:      40250
DTLB PREFETCH MSHR MERGED:          0
DTLB WRITEBACK MSHR MERGED:          0
DTLB TOTAL ACCESSES:  165457438 HITS:  164723728 MISSES:     733710
DTLB LOAD ACCESSES:  106363826 HITS:  105734706 MISSES:     629120
DTLB RFO ACCESSES:   59093612 HITS:   58989022 MISSES:     104590
DTLB PREFETCH ACCESSES:          0 HITS:          0 MISSES:          0
DTLB WRITEBACK ACCESSES:          0 HITS:          0 MISSES:          0
DTLB RQ ACCESS:  200314882
DTLB RQ TO_CACHE:  165457438
DTLB RQ MERGED:   34857444
DTLB RQ FORWARD:          0
DTLB WQ ACCESS:          0
DTLB WQ TO_CACHE:          0
DTLB WQ MERGED:          0
DTLB WQ FORWARD:          0
L1D TOTAL     ACCESS:  281881815  HIT:  273972361  MISS:    7909454
L1D LOAD      ACCESS:  110434507  HIT:  107154285  MISS:    3280222
L1D RFO       ACCESS:   67137216  HIT:   66247229  MISS:     889987
L1D PREFETCH  ACCESS:  104310092  HIT:  100570847  MISS:    3739245
L1D WRITEBACK ACCESS:          0  HIT:          0  MISS:          0
L1D PREFETCH  REQUESTED:  110837918  ISSUED:  109138446  USEFUL:    1659726  USELESS:    2079483
L1D TOTAL MSHR MERGED:    2872036
L1D LOAD MSHR MERGED:     503593
L1D RFO MSHR MERGED:    1847809
L1D PREFETCH MSHR MERGED:     520634
L1D WRITEBACK MSHR MERGED:          0
L1D TOTAL ACCESSES:  284781295 HITS:  273999805 MISSES:   10781490
L1D LOAD ACCESSES:  110839386 HITS:  107155753 MISSES:    3683633
L1D RFO ACCESSES:   68973763 HITS:   66247229 MISSES:    2726534
L1D PREFETCH ACCESSES:  104968146 HITS:  100596823 MISSES:    4371323
L1D WRITEBACK ACCESSES:          0 HITS:          0 MISSES:          0
L1D RQ ACCESS:  130762279
L1D RQ TO_CACHE:  110837921
L1D RQ MERGED:   19922890
L1D RQ FORWARD:          0
L1D WQ ACCESS:   69552603
L1D WQ TO_CACHE:   68973764
L1D WQ MERGED:     578839
L1D WQ FORWARD:      27444
L1I TOTAL     ACCESS:  126574809  HIT:  122336292  MISS:    4238517
L1I LOAD      ACCESS:  126574809  HIT:  122336292  MISS:    4238517
L1I RFO       ACCESS:          0  HIT:          0  MISS:          0
L1I PREFETCH  ACCESS:          0  HIT:          0  MISS:          0
L1I WRITEBACK ACCESS:          0  HIT:          0  MISS:          0
L1I PREFETCH  REQUESTED:          0  ISSUED:          0  USEFUL:          0  USELESS:          0
L1I TOTAL MSHR MERGED:    1840155
L1I LOAD MSHR MERGED:    1840155
L1I RFO MSHR MERGED:          0
L1I PREFETCH MSHR MERGED:          0
L1I WRITEBACK MSHR MERGED:          0
L1I TOTAL ACCESSES:  128414967 HITS:  122336292 MISSES:    6078675
L1I LOAD ACCESSES:  128414967 HITS:  122336292 MISSES:    6078675
L1I RFO ACCESSES:          0 HITS:          0 MISSES:          0
L1I PREFETCH ACCESSES:          0 HITS:          0 MISSES:          0
L1I WRITEBACK ACCESSES:          0 HITS:          0 MISSES:          0
L1I RQ ACCESS:  500000057
L1I RQ TO_CACHE:  128414967
L1I RQ MERGED:  371585090
L1I RQ FORWARD:          0
L1I WQ ACCESS:          0
L1I WQ TO_CACHE:          0
L1I WQ MERGED:          0
L1I WQ FORWARD:          0
L2C TOTAL     ACCESS:   14905064  HIT:   11158637  MISS:    3746427
L2C LOAD      ACCESS:    7418349  HIT:    5098486  MISS:    2319863
L2C RFO       ACCESS:     878631  HIT:     409970  MISS:     468661
L2C PREFETCH  ACCESS:    4568846  HIT:    3628204  MISS:     940642
L2C WRITEBACK ACCESS:    2039238  HIT:    2021977  MISS:      17261
L2C PREFETCH  REQUESTED:     842776  ISSUED:     842776  USEFUL:     203390  USELESS:     736959
L2C TOTAL MSHR MERGED:       7265
L2C LOAD MSHR MERGED:        891
L2C RFO MSHR MERGED:          0
L2C PREFETCH MSHR MERGED:       6374
L2C WRITEBACK MSHR MERGED:          0
L2C TOTAL ACCESSES:   14913253 HITS:   11159081 MISSES:    3754172
L2C LOAD ACCESSES:    7418557 HITS:    5098694 MISSES:    2319863
L2C RFO ACCESSES:     878725 HITS:     410064 MISSES:     468661
L2C PREFETCH ACCESSES:    4576733 HITS:    3628346 MISSES:     948387
L2C WRITEBACK ACCESSES:    2039238 HITS:    2021977 MISSES:      17261
L2C RQ ACCESS:    8297285
L2C RQ TO_CACHE:    8296983
L2C RQ MERGED:          0
L2C RQ FORWARD:          0
L2C WQ ACCESS:    2039238
L2C WQ TO_CACHE:    2039238
L2C WQ MERGED:          0
L2C WQ FORWARD:        444
LLC TOTAL     ACCESS:    4609783  HIT:    2983097  MISS:    1626686
LLC LOAD      ACCESS:    2318960  HIT:    1243243  MISS:    1075717
LLC RFO       ACCESS:     468657  HIT:     410502  MISS:      58155
LLC PREFETCH  ACCESS:     941895  HIT:     554712  MISS:     387183
LLC WRITEBACK ACCESS:     880271  HIT:     774640  MISS:     105631
LLC PREFETCH  REQUESTED:          0  ISSUED:          0  USEFUL:      11041  USELESS:     375551
LLC TOTAL MSHR MERGED:        104
LLC LOAD MSHR MERGED:         35
LLC RFO MSHR MERGED:          0
LLC PREFETCH MSHR MERGED:         69
LLC WRITEBACK MSHR MERGED:          0
LLC TOTAL ACCESSES:    4609913 HITS:    2983123 MISSES:    1626790
LLC LOAD ACCESSES:    2318972 HITS:    1243255 MISSES:    1075717
LLC RFO ACCESSES:     468661 HITS:     410506 MISSES:      58155
LLC PREFETCH ACCESSES:     942009 HITS:     554722 MISSES:     387287
LLC WRITEBACK ACCESSES:     880271 HITS:     774640 MISSES:     105631
LLC 0 RQ ACCESS:    2787633
LLC 0 RQ TO_CACHE:    2787617
LLC 0 RQ MERGED:          0
LLC 0 RQ FORWARD:          0
LLC WQ ACCESS:     880271
LLC WQ TO_CACHE:     880271
LLC WQ MERGED:          0
LLC WQ FORWARD:         26
Major fault: 0 Minor fault: 12862
CPU 0 L1D next line prefetcher final stats
CPU 0 L2C PC-based stride prefetcher final stats
All Misses: 1880108
All Hits: 3546681
SD Algo Stats - Switches: 0 SRR-Repls: 1211749 BRR-Repls: 0

DRAM Statistics
 CHANNEL 0
 RQ ROW_BUFFER_HIT:     446078  ROW_BUFFER_MISS:    1070624
 DBUS_CONGESTED:     551002
 WQ ROW_BUFFER_HIT:      11051  ROW_BUFFER_MISS:     187632  FULL:          0

 AVG_CONGESTED_CYCLE: 13
LOADS RETIRED: 136549171
INSTR RETIRED: 500000000
