
*** ChampSim Multicore Out-of-Order Simulator ***

Warmup Instructions: 100000000
Simulation Instructions: 500000000
Number of CPUs: 1
LLC sets: 2048
LLC ways: 16
Clean RRIP Policies: 2213230122132301 Dirty RRIP Policies: 2203132122031321 PSEL Width: 10 Track Set: 4294967295 PSEL Mask: 1 Demote Mask: 3044100030441000DS Algo: 0Window size: 0
Off-chip DRAM Size: 4096 MB Channels: 1 Width: 64-bit Data Rate: 1600 MT/s

CPU 0 runs /mnt/beegfs/iconst01/spec2017/Fotonik3d.trace.gz
NOT SORTED
TRACE STRING: /mnt/beegfs/iconst01/spec2017/Fotonik3d.trace.gz
SORTED
TRACE STRING: /mnt/beegfs/iconst01/spec2017/Fotonik3d.trace.gz
INITIAL
TRACE STRING: /mnt/beegfs/iconst01/spec2017/Fotonik3d.trace.gz

champsim_seed used: 881

CPU 0 L1D next line prefetcher
CPU 0 L2C IP-based stride prefetcher
Initialize DRRIP state
Assign rand_sets[0]: 454  LLC: 2048
rand_sets[0]: 454
Assign rand_sets[1]: 1662  LLC: 2048
rand_sets[1]: 1662
Assign rand_sets[2]: 1921  LLC: 2048
rand_sets[2]: 1921
Assign rand_sets[3]: 1131  LLC: 2048
rand_sets[3]: 1131
Assign rand_sets[4]: 331  LLC: 2048
rand_sets[4]: 331
Assign rand_sets[5]: 1531  LLC: 2048
rand_sets[5]: 1531
Assign rand_sets[6]: 482  LLC: 2048
rand_sets[6]: 482
Assign rand_sets[7]: 1275  LLC: 2048
rand_sets[7]: 1275
Assign rand_sets[8]: 1876  LLC: 2048
rand_sets[8]: 1876
Assign rand_sets[9]: 2038  LLC: 2048
rand_sets[9]: 2038
Assign rand_sets[10]: 701  LLC: 2048
rand_sets[10]: 701
Assign rand_sets[11]: 479  LLC: 2048
rand_sets[11]: 479
Assign rand_sets[12]: 892  LLC: 2048
rand_sets[12]: 892
Assign rand_sets[13]: 1820  LLC: 2048
rand_sets[13]: 1820
Assign rand_sets[14]: 1505  LLC: 2048
rand_sets[14]: 1505
Assign rand_sets[15]: 1159  LLC: 2048
rand_sets[15]: 1159
Assign rand_sets[16]: 513  LLC: 2048
rand_sets[16]: 513
Assign rand_sets[17]: 703  LLC: 2048
rand_sets[17]: 703
Assign rand_sets[18]: 561  LLC: 2048
rand_sets[18]: 561
Assign rand_sets[19]: 990  LLC: 2048
rand_sets[19]: 990
Assign rand_sets[20]: 342  LLC: 2048
rand_sets[20]: 342
Assign rand_sets[21]: 882  LLC: 2048
rand_sets[21]: 882
Assign rand_sets[22]: 15  LLC: 2048
rand_sets[22]: 15
Assign rand_sets[23]: 71  LLC: 2048
rand_sets[23]: 71
Assign rand_sets[24]: 1127  LLC: 2048
rand_sets[24]: 1127
Assign rand_sets[25]: 1382  LLC: 2048
rand_sets[25]: 1382
Assign rand_sets[26]: 647  LLC: 2048
rand_sets[26]: 647
Assign rand_sets[27]: 857  LLC: 2048
rand_sets[27]: 857
Assign rand_sets[28]: 1450  LLC: 2048
rand_sets[28]: 1450
Assign rand_sets[29]: 1160  LLC: 2048
rand_sets[29]: 1160
Assign rand_sets[30]: 1852  LLC: 2048
rand_sets[30]: 1852
Assign rand_sets[31]: 1881  LLC: 2048
rand_sets[31]: 1881
Assign rand_sets[32]: 1770  LLC: 2048
rand_sets[32]: 1770
Assign rand_sets[33]: 1622  LLC: 2048
rand_sets[33]: 1622
Assign rand_sets[34]: 275  LLC: 2048
rand_sets[34]: 275
Assign rand_sets[35]: 635  LLC: 2048
rand_sets[35]: 635
Assign rand_sets[36]: 466  LLC: 2048
rand_sets[36]: 466
Assign rand_sets[37]: 1413  LLC: 2048
rand_sets[37]: 1413
Assign rand_sets[38]: 417  LLC: 2048
rand_sets[38]: 417
Assign rand_sets[39]: 472  LLC: 2048
rand_sets[39]: 472
Assign rand_sets[40]: 1340  LLC: 2048
rand_sets[40]: 1340
Assign rand_sets[41]: 852  LLC: 2048
rand_sets[41]: 852
Assign rand_sets[42]: 1365  LLC: 2048
rand_sets[42]: 1365
Assign rand_sets[43]: 47  LLC: 2048
rand_sets[43]: 47
Assign rand_sets[44]: 823  LLC: 2048
rand_sets[44]: 823
Assign rand_sets[45]: 686  LLC: 2048
rand_sets[45]: 686
Assign rand_sets[46]: 1637  LLC: 2048
rand_sets[46]: 1637
Assign rand_sets[47]: 1115  LLC: 2048
rand_sets[47]: 1115
Assign rand_sets[48]: 986  LLC: 2048
rand_sets[48]: 986
Assign rand_sets[49]: 258  LLC: 2048
rand_sets[49]: 258
Assign rand_sets[50]: 633  LLC: 2048
rand_sets[50]: 633
Assign rand_sets[51]: 920  LLC: 2048
rand_sets[51]: 920
Assign rand_sets[52]: 204  LLC: 2048
rand_sets[52]: 204
Assign rand_sets[53]: 227  LLC: 2048
rand_sets[53]: 227
Assign rand_sets[54]: 1818  LLC: 2048
rand_sets[54]: 1818
Assign rand_sets[55]: 886  LLC: 2048
rand_sets[55]: 886
Assign rand_sets[56]: 1422  LLC: 2048
rand_sets[56]: 1422
Assign rand_sets[57]: 607  LLC: 2048
rand_sets[57]: 607
Assign rand_sets[58]: 217  LLC: 2048
rand_sets[58]: 217
Assign rand_sets[59]: 1945  LLC: 2048
rand_sets[59]: 1945
Assign rand_sets[60]: 143  LLC: 2048
rand_sets[60]: 143
Assign rand_sets[61]: 1311  LLC: 2048
rand_sets[61]: 1311
Assign rand_sets[62]: 319  LLC: 2048
rand_sets[62]: 319
Assign rand_sets[63]: 1846  LLC: 2048
rand_sets[63]: 1846
 CLEAN-RRIP-POLICY-1: 2-2-1-3-2-3-0-1- CLEAN-RRIP-POLICY-2: 2-2-1-3-2-3-0-1-
 DIRTY-RRIP-POLICY-1: 2-2-0-3-1-3-2-1- DIRTY-RRIP-POLICY-2: 2-2-0-3-1-3-2-1-
 PSEL width: 10
Heartbeat CPU 0 instructions: 10000002 cycles: 7306716 heartbeat IPC: 1.3686 cumulative IPC: 1.3686 (Simulation time: 0 hr 0 min 24 sec) 
Heartbeat CPU 0 instructions: 20000000 cycles: 14613526 heartbeat IPC: 1.36859 cumulative IPC: 1.3686 (Simulation time: 0 hr 0 min 49 sec) 
Heartbeat CPU 0 instructions: 30000001 cycles: 21920195 heartbeat IPC: 1.36861 cumulative IPC: 1.3686 (Simulation time: 0 hr 1 min 14 sec) 
Heartbeat CPU 0 instructions: 40000000 cycles: 29226748 heartbeat IPC: 1.36863 cumulative IPC: 1.36861 (Simulation time: 0 hr 1 min 39 sec) 
Heartbeat CPU 0 instructions: 50000001 cycles: 36533296 heartbeat IPC: 1.36864 cumulative IPC: 1.36861 (Simulation time: 0 hr 2 min 3 sec) 
Heartbeat CPU 0 instructions: 60000000 cycles: 43840088 heartbeat IPC: 1.36859 cumulative IPC: 1.36861 (Simulation time: 0 hr 2 min 28 sec) 
Heartbeat CPU 0 instructions: 70000002 cycles: 51146688 heartbeat IPC: 1.36863 cumulative IPC: 1.36861 (Simulation time: 0 hr 2 min 53 sec) 
Heartbeat CPU 0 instructions: 80000000 cycles: 58453282 heartbeat IPC: 1.36863 cumulative IPC: 1.36861 (Simulation time: 0 hr 3 min 18 sec) 
Heartbeat CPU 0 instructions: 90000003 cycles: 65763659 heartbeat IPC: 1.36792 cumulative IPC: 1.36854 (Simulation time: 0 hr 3 min 43 sec) 
Heartbeat CPU 0 instructions: 100000000 cycles: 73074083 heartbeat IPC: 1.36791 cumulative IPC: 1.36847 (Simulation time: 0 hr 4 min 8 sec) 

Warmup complete CPU 0 instructions: 100000002 cycles: 73074095 (Simulation time: 0 hr 4 min 8 sec) 

Heartbeat CPU 0 instructions: 110000001 cycles: 85482480 heartbeat IPC: 0.805906 cumulative IPC: 0.805907 (Simulation time: 0 hr 4 min 38 sec) 
Heartbeat CPU 0 instructions: 120000000 cycles: 97819738 heartbeat IPC: 0.810553 cumulative IPC: 0.808223 (Simulation time: 0 hr 5 min 8 sec) 
Heartbeat CPU 0 instructions: 130000000 cycles: 110196933 heartbeat IPC: 0.807938 cumulative IPC: 0.808128 (Simulation time: 0 hr 5 min 37 sec) 
Heartbeat CPU 0 instructions: 140000000 cycles: 122550426 heartbeat IPC: 0.809488 cumulative IPC: 0.808467 (Simulation time: 0 hr 6 min 7 sec) 
Heartbeat CPU 0 instructions: 150000000 cycles: 134875911 heartbeat IPC: 0.811327 cumulative IPC: 0.809038 (Simulation time: 0 hr 6 min 37 sec) 
Heartbeat CPU 0 instructions: 160000000 cycles: 147237656 heartbeat IPC: 0.808947 cumulative IPC: 0.809023 (Simulation time: 0 hr 7 min 7 sec) 
Heartbeat CPU 0 instructions: 170000001 cycles: 159613807 heartbeat IPC: 0.808006 cumulative IPC: 0.808877 (Simulation time: 0 hr 7 min 36 sec) 
Heartbeat CPU 0 instructions: 180000000 cycles: 171972590 heartbeat IPC: 0.809141 cumulative IPC: 0.80891 (Simulation time: 0 hr 8 min 6 sec) 
Heartbeat CPU 0 instructions: 190000000 cycles: 184359937 heartbeat IPC: 0.807275 cumulative IPC: 0.808728 (Simulation time: 0 hr 8 min 36 sec) 
Heartbeat CPU 0 instructions: 200000000 cycles: 196716891 heartbeat IPC: 0.809261 cumulative IPC: 0.808781 (Simulation time: 0 hr 9 min 5 sec) 
Heartbeat CPU 0 instructions: 210000002 cycles: 209114100 heartbeat IPC: 0.806633 cumulative IPC: 0.808586 (Simulation time: 0 hr 9 min 35 sec) 
Heartbeat CPU 0 instructions: 220000000 cycles: 221517744 heartbeat IPC: 0.806215 cumulative IPC: 0.808388 (Simulation time: 0 hr 10 min 5 sec) 
Heartbeat CPU 0 instructions: 230000002 cycles: 233876827 heartbeat IPC: 0.809122 cumulative IPC: 0.808444 (Simulation time: 0 hr 10 min 35 sec) 
Heartbeat CPU 0 instructions: 240000000 cycles: 246986218 heartbeat IPC: 0.762812 cumulative IPC: 0.805004 (Simulation time: 0 hr 11 min 5 sec) 
Heartbeat CPU 0 instructions: 250000001 cycles: 264300289 heartbeat IPC: 0.577565 cumulative IPC: 0.784411 (Simulation time: 0 hr 11 min 37 sec) 
Heartbeat CPU 0 instructions: 260000000 cycles: 281527832 heartbeat IPC: 0.580466 cumulative IPC: 0.767556 (Simulation time: 0 hr 12 min 9 sec) 
Heartbeat CPU 0 instructions: 270000000 cycles: 298829231 heartbeat IPC: 0.577988 cumulative IPC: 0.753028 (Simulation time: 0 hr 12 min 42 sec) 
Heartbeat CPU 0 instructions: 280000000 cycles: 316077612 heartbeat IPC: 0.579765 cumulative IPC: 0.74073 (Simulation time: 0 hr 13 min 14 sec) 
Heartbeat CPU 0 instructions: 290000000 cycles: 344549445 heartbeat IPC: 0.351224 cumulative IPC: 0.699879 (Simulation time: 0 hr 13 min 54 sec) 
Heartbeat CPU 0 instructions: 300000000 cycles: 381552206 heartbeat IPC: 0.27025 cumulative IPC: 0.648344 (Simulation time: 0 hr 14 min 39 sec) 
Heartbeat CPU 0 instructions: 310000000 cycles: 398155112 heartbeat IPC: 0.602304 cumulative IPC: 0.645993 (Simulation time: 0 hr 15 min 10 sec) 
Heartbeat CPU 0 instructions: 320000000 cycles: 414796848 heartbeat IPC: 0.600899 cumulative IPC: 0.643797 (Simulation time: 0 hr 15 min 41 sec) 
Heartbeat CPU 0 instructions: 330000003 cycles: 431459834 heartbeat IPC: 0.600133 cumulative IPC: 0.641767 (Simulation time: 0 hr 16 min 13 sec) 
Heartbeat CPU 0 instructions: 340000000 cycles: 448076234 heartbeat IPC: 0.601815 cumulative IPC: 0.639996 (Simulation time: 0 hr 16 min 44 sec) 
Heartbeat CPU 0 instructions: 350000001 cycles: 462932429 heartbeat IPC: 0.67312 cumulative IPC: 0.641259 (Simulation time: 0 hr 17 min 13 sec) 
Heartbeat CPU 0 instructions: 360000000 cycles: 474788086 heartbeat IPC: 0.843479 cumulative IPC: 0.647227 (Simulation time: 0 hr 17 min 39 sec) 
Heartbeat CPU 0 instructions: 370000002 cycles: 486472145 heartbeat IPC: 0.855867 cumulative IPC: 0.653124 (Simulation time: 0 hr 18 min 5 sec) 
Heartbeat CPU 0 instructions: 380000000 cycles: 498328804 heartbeat IPC: 0.843408 cumulative IPC: 0.658429 (Simulation time: 0 hr 18 min 32 sec) 
Heartbeat CPU 0 instructions: 390000003 cycles: 511613882 heartbeat IPC: 0.752724 cumulative IPC: 0.661286 (Simulation time: 0 hr 18 min 59 sec) 
Heartbeat CPU 0 instructions: 400000000 cycles: 523866621 heartbeat IPC: 0.816144 cumulative IPC: 0.665495 (Simulation time: 0 hr 19 min 25 sec) 
Heartbeat CPU 0 instructions: 410000003 cycles: 535824591 heartbeat IPC: 0.836263 cumulative IPC: 0.669907 (Simulation time: 0 hr 19 min 52 sec) 
Heartbeat CPU 0 instructions: 420000000 cycles: 548625676 heartbeat IPC: 0.781184 cumulative IPC: 0.672903 (Simulation time: 0 hr 20 min 18 sec) 
Heartbeat CPU 0 instructions: 430000003 cycles: 567033282 heartbeat IPC: 0.543254 cumulative IPC: 0.668071 (Simulation time: 0 hr 20 min 42 sec) 
Heartbeat CPU 0 instructions: 440000000 cycles: 585522971 heartbeat IPC: 0.540842 cumulative IPC: 0.663481 (Simulation time: 0 hr 21 min 6 sec) 
Heartbeat CPU 0 instructions: 450000003 cycles: 603999934 heartbeat IPC: 0.541215 cumulative IPC: 0.659226 (Simulation time: 0 hr 21 min 30 sec) 
Heartbeat CPU 0 instructions: 460000000 cycles: 622457656 heartbeat IPC: 0.541779 cumulative IPC: 0.65528 (Simulation time: 0 hr 21 min 54 sec) 
Heartbeat CPU 0 instructions: 470000003 cycles: 640932382 heartbeat IPC: 0.54128 cumulative IPC: 0.651571 (Simulation time: 0 hr 22 min 18 sec) 
Heartbeat CPU 0 instructions: 480000000 cycles: 659413684 heartbeat IPC: 0.541087 cumulative IPC: 0.648089 (Simulation time: 0 hr 22 min 42 sec) 
Heartbeat CPU 0 instructions: 490000003 cycles: 677912271 heartbeat IPC: 0.540582 cumulative IPC: 0.644801 (Simulation time: 0 hr 23 min 6 sec) 
Heartbeat CPU 0 instructions: 500000000 cycles: 696362106 heartbeat IPC: 0.54201 cumulative IPC: 0.641758 (Simulation time: 0 hr 23 min 30 sec) 
Heartbeat CPU 0 instructions: 510000003 cycles: 714833387 heartbeat IPC: 0.541381 cumulative IPC: 0.638869 (Simulation time: 0 hr 23 min 54 sec) 
Heartbeat CPU 0 instructions: 520000000 cycles: 733292616 heartbeat IPC: 0.541734 cumulative IPC: 0.636153 (Simulation time: 0 hr 24 min 18 sec) 
Heartbeat CPU 0 instructions: 530000001 cycles: 751773676 heartbeat IPC: 0.541095 cumulative IPC: 0.633565 (Simulation time: 0 hr 24 min 42 sec) 
Heartbeat CPU 0 instructions: 540000000 cycles: 770180637 heartbeat IPC: 0.543273 cumulative IPC: 0.63118 (Simulation time: 0 hr 25 min 6 sec) 
Heartbeat CPU 0 instructions: 550000001 cycles: 788596278 heartbeat IPC: 0.543017 cumulative IPC: 0.628911 (Simulation time: 0 hr 25 min 30 sec) 
Heartbeat CPU 0 instructions: 560000000 cycles: 807011432 heartbeat IPC: 0.543031 cumulative IPC: 0.626756 (Simulation time: 0 hr 25 min 54 sec) 
Heartbeat CPU 0 instructions: 570000001 cycles: 825417869 heartbeat IPC: 0.543288 cumulative IPC: 0.624714 (Simulation time: 0 hr 26 min 18 sec) 
Heartbeat CPU 0 instructions: 580000000 cycles: 843772434 heartbeat IPC: 0.544824 cumulative IPC: 0.622812 (Simulation time: 0 hr 26 min 42 sec) 
Heartbeat CPU 0 instructions: 590000001 cycles: 862179160 heartbeat IPC: 0.54328 cumulative IPC: 0.620957 (Simulation time: 0 hr 27 min 5 sec) 
Heartbeat CPU 0 instructions: 600000000 cycles: 880586205 heartbeat IPC: 0.54327 cumulative IPC: 0.619186 (Simulation time: 0 hr 27 min 29 sec) 
Finished CPU 0 instructions: 500000002 cycles: 807512124 cumulative IPC: 0.619186 (Simulation time: 0 hr 27 min 29 sec) 

CPU 0 Branch Prediction Accuracy: 99.5931% MPKI: 0.08288
Number of Branches: 10184133 Number of Mispredictions: 41440
Number of LOAD Instructions: 261155957
Number of LOAD Instructions (ROI): 261155957
Number of STORE Instructions: 57884062
Number of STORE Instructions (ROI): 57884062
Total Destination Memory Operands: 83293336
Total Destination Memory Operands (ROI): 83293336
Total Source Memory Operands: 261155957
Total Source Memory Operands (ROI): 261155957
Number of DEPENDED LOADS: 22254946
Number of DEPENDED LOADS (ROI): 22254946
Number of SQ_ADDED: 83293300
Number of SQ_ADDED (ROI): 83293300
Number of LQ_ADDED: 1763282593
Number of LQ_ADDED (ROI): 1763282593
Number of Instructions read from trace: 600000257

ChampSim completed all CPUs

Region of Interest Statistics

CPU 0 cumulative IPC: 0.619186 instructions: 500000002 cycles: 807512124
ITLB TOTAL     ACCESS:   94648143  HIT:   94648105  MISS:         38
ITLB LOAD      ACCESS:   94648143  HIT:   94648105  MISS:         38
ITLB RFO       ACCESS:          0  HIT:          0  MISS:          0
ITLB PREFETCH  ACCESS:          0  HIT:          0  MISS:          0
ITLB WRITEBACK ACCESS:          0  HIT:          0  MISS:          0
ITLB PREFETCH  REQUESTED:          0  ISSUED:          0  USEFUL:          0  USELESS:          0
ITLB TOTAL MSHR MERGED:         93
ITLB LOAD MSHR MERGED:         93
ITLB RFO MSHR MERGED:          0
ITLB PREFETCH MSHR MERGED:          0
ITLB WRITEBACK MSHR MERGED:          0
ITLB TOTAL ACCESSES:   94648236 HITS:   94648105 MISSES:        131
ITLB LOAD ACCESSES:   94648236 HITS:   94648105 MISSES:        131
ITLB RFO ACCESSES:          0 HITS:          0 MISSES:          0
ITLB PREFETCH ACCESSES:          0 HITS:          0 MISSES:          0
ITLB WRITEBACK ACCESSES:          0 HITS:          0 MISSES:          0
ITLB RQ ACCESS:  500000001
ITLB RQ TO_CACHE:   94648237
ITLB RQ MERGED:  405351764
ITLB RQ FORWARD:          0
ITLB WQ ACCESS:          0
ITLB WQ TO_CACHE:          0
ITLB WQ MERGED:          0
ITLB WQ FORWARD:          0
DTLB TOTAL     ACCESS:  149178131  HIT:  148581171  MISS:     596960
DTLB LOAD      ACCESS:  107305218  HIT:  106708269  MISS:     596949
DTLB RFO       ACCESS:   41872913  HIT:   41872902  MISS:         11
DTLB PREFETCH  ACCESS:          0  HIT:          0  MISS:          0
DTLB WRITEBACK ACCESS:          0  HIT:          0  MISS:          0
DTLB PREFETCH  REQUESTED:          0  ISSUED:          0  USEFUL:          0  USELESS:          0
DTLB TOTAL MSHR MERGED:     134291
DTLB LOAD MSHR MERGED:     134291
DTLB RFO MSHR MERGED:          0
DTLB PREFETCH MSHR MERGED:          0
DTLB WRITEBACK MSHR MERGED:          0
DTLB TOTAL ACCESSES:  149312422 HITS:  148581171 MISSES:     731251
DTLB LOAD ACCESSES:  107439509 HITS:  106708269 MISSES:     731240
DTLB RFO ACCESSES:   41872913 HITS:   41872902 MISSES:         11
DTLB PREFETCH ACCESSES:          0 HITS:          0 MISSES:          0
DTLB WRITEBACK ACCESSES:          0 HITS:          0 MISSES:          0
DTLB RQ ACCESS:  259760948
DTLB RQ TO_CACHE:  149312422
DTLB RQ MERGED:  110448526
DTLB RQ FORWARD:          0
DTLB WQ ACCESS:          0
DTLB WQ TO_CACHE:          0
DTLB WQ MERGED:          0
DTLB WQ FORWARD:          0
L1D TOTAL     ACCESS:  261048148  HIT:  245649658  MISS:   15398490
L1D LOAD      ACCESS:  118071620  HIT:  112567857  MISS:    5503763
L1D RFO       ACCESS:   68946776  HIT:   68932368  MISS:      14408
L1D PREFETCH  ACCESS:   74029752  HIT:   64149433  MISS:    9880319
L1D WRITEBACK ACCESS:          0  HIT:          0  MISS:          0
L1D PREFETCH  REQUESTED:  120659590  ISSUED:  119088333  USEFUL:    8008874  USELESS:    1871467
L1D TOTAL MSHR MERGED:   16515851
L1D LOAD MSHR MERGED:    5002035
L1D RFO MSHR MERGED:      21795
L1D PREFETCH MSHR MERGED:   11492021
L1D WRITEBACK MSHR MERGED:          0
L1D TOTAL ACCESSES:  277674366 HITS:  245760025 MISSES:   31914341
L1D LOAD ACCESSES:  120667119 HITS:  112575386 MISSES:    8091733
L1D RFO ACCESSES:   68968571 HITS:   68932368 MISSES:      36203
L1D PREFETCH ACCESSES:   88038676 HITS:   64252271 MISSES:   23786405
L1D WRITEBACK ACCESSES:          0 HITS:          0 MISSES:          0
L1D RQ ACCESS:  190686632
L1D RQ TO_CACHE:  120659590
L1D RQ MERGED:   70019513
L1D RQ FORWARD:          0
L1D WQ ACCESS:   69074336
L1D WQ TO_CACHE:   68968573
L1D WQ MERGED:     105763
L1D WQ FORWARD:     110367
L1I TOTAL     ACCESS:  121561811  HIT:  121560738  MISS:       1073
L1I LOAD      ACCESS:  121561811  HIT:  121560738  MISS:       1073
L1I RFO       ACCESS:          0  HIT:          0  MISS:          0
L1I PREFETCH  ACCESS:          0  HIT:          0  MISS:          0
L1I WRITEBACK ACCESS:          0  HIT:          0  MISS:          0
L1I PREFETCH  REQUESTED:          0  ISSUED:          0  USEFUL:          0  USELESS:          0
L1I TOTAL MSHR MERGED:       1124
L1I LOAD MSHR MERGED:       1124
L1I RFO MSHR MERGED:          0
L1I PREFETCH MSHR MERGED:          0
L1I WRITEBACK MSHR MERGED:          0
L1I TOTAL ACCESSES:  121562935 HITS:  121560738 MISSES:       2197
L1I LOAD ACCESSES:  121562935 HITS:  121560738 MISSES:       2197
L1I RFO ACCESSES:          0 HITS:          0 MISSES:          0
L1I PREFETCH ACCESSES:          0 HITS:          0 MISSES:          0
L1I WRITEBACK ACCESSES:          0 HITS:          0 MISSES:          0
L1I RQ ACCESS:  500000000
L1I RQ TO_CACHE:  121562935
L1I RQ MERGED:  378437065
L1I RQ FORWARD:          0
L1I WQ ACCESS:          0
L1I WQ TO_CACHE:          0
L1I WQ MERGED:          0
L1I WQ FORWARD:          0
L2C TOTAL     ACCESS:   22472033  HIT:    9152382  MISS:   13319651
L2C LOAD      ACCESS:    3090733  HIT:     417179  MISS:    2673554
L2C RFO       ACCESS:      14408  HIT:      13991  MISS:        417
L2C PREFETCH  ACCESS:   12736942  HIT:    2093066  MISS:   10643876
L2C WRITEBACK ACCESS:    6629950  HIT:    6628146  MISS:       1804
L2C PREFETCH  REQUESTED:     694999  ISSUED:     694999  USEFUL:     186618  USELESS:   10458057
L2C TOTAL MSHR MERGED:      71984
L2C LOAD MSHR MERGED:      22826
L2C RFO MSHR MERGED:          0
L2C PREFETCH MSHR MERGED:      49158
L2C WRITEBACK MSHR MERGED:          0
L2C TOTAL ACCESSES:   22684526 HITS:    9152439 MISSES:   13532087
L2C LOAD ACCESSES:    3090771 HITS:     417217 MISSES:    2673554
L2C RFO ACCESSES:      14408 HITS:      13991 MISSES:        417
L2C PREFETCH ACCESSES:   12949397 HITS:    2093085 MISSES:   10856312
L2C WRITEBACK ACCESSES:    6629950 HITS:    6628146 MISSES:       1804
L2C RQ ACCESS:    3105179
L2C RQ TO_CACHE:    3105141
L2C RQ MERGED:          0
L2C RQ FORWARD:          0
L2C WQ ACCESS:    6629950
L2C WQ TO_CACHE:    6629950
L2C WQ MERGED:          0
L2C WQ FORWARD:         57
LLC TOTAL     ACCESS:   20026939  HIT:    1935433  MISS:   18091506
LLC LOAD      ACCESS:    2650727  HIT:     441249  MISS:    2209478
LLC RFO       ACCESS:        417  HIT:         22  MISS:        395
LLC PREFETCH  ACCESS:   10784551  HIT:     114681  MISS:   10669870
LLC WRITEBACK ACCESS:    6591244  HIT:    1379481  MISS:    5211763
LLC PREFETCH  REQUESTED:          0  ISSUED:          0  USEFUL:      45526  USELESS:   10625492
LLC TOTAL MSHR MERGED:      21168
LLC LOAD MSHR MERGED:       9744
LLC RFO MSHR MERGED:          0
LLC PREFETCH MSHR MERGED:      11424
LLC WRITEBACK MSHR MERGED:          0
LLC TOTAL ACCESSES:   20048109 HITS:    1935435 MISSES:   18112674
LLC LOAD ACCESSES:    2650728 HITS:     441250 MISSES:    2209478
LLC RFO ACCESSES:        417 HITS:         22 MISSES:        395
LLC PREFETCH ACCESSES:   10805720 HITS:     114682 MISSES:   10691038
LLC WRITEBACK ACCESSES:    6591244 HITS:    1379481 MISSES:    5211763
LLC 0 RQ ACCESS:    2651145
LLC 0 RQ TO_CACHE:    2651144
LLC 0 RQ MERGED:          0
LLC 0 RQ FORWARD:          0
LLC WQ ACCESS:    6591244
LLC WQ TO_CACHE:    6591244
LLC WQ MERGED:          0
LLC WQ FORWARD:          2
Major fault: 0 Minor fault: 183991
CPU 0 L1D next line prefetcher final stats
CPU 0 L2C PC-based stride prefetcher final stats
All Misses: 20950022
All Hits: 2007963
SD Algo Stats - Switches: 0 SRR-Repls: 2257640 BRR-Repls: 0

DRAM Statistics
 CHANNEL 0
 RQ ROW_BUFFER_HIT:    7162251  ROW_BUFFER_MISS:    5717492
 DBUS_CONGESTED:   11483952
 WQ ROW_BUFFER_HIT:    1370819  ROW_BUFFER_MISS:    5213282  FULL:          0

 AVG_CONGESTED_CYCLE: 13
LOADS RETIRED: 204440772
INSTR RETIRED: 500000000
