
*** ChampSim Multicore Out-of-Order Simulator ***

Warmup Instructions: 100000000
Simulation Instructions: 500000000
Number of CPUs: 1
LLC sets: 2048
LLC ways: 16
Clean RRIP Policies: 2213230122132301 Dirty RRIP Policies: 2203132122031321 PSEL Width: 10 Track Set: 4294967295 PSEL Mask: 1 Demote Mask: 3044100030441000DS Algo: 0Window size: 0
Off-chip DRAM Size: 4096 MB Channels: 1 Width: 64-bit Data Rate: 1600 MT/s

CPU 0 runs /mnt/beegfs/iconst01/spec2017/Omnetpp.trace.gz
NOT SORTED
TRACE STRING: /mnt/beegfs/iconst01/spec2017/Omnetpp.trace.gz
SORTED
TRACE STRING: /mnt/beegfs/iconst01/spec2017/Omnetpp.trace.gz
INITIAL
TRACE STRING: /mnt/beegfs/iconst01/spec2017/Omnetpp.trace.gz

champsim_seed used: 739

CPU 0 L1D next line prefetcher
CPU 0 L2C IP-based stride prefetcher
Initialize DRRIP state
Assign rand_sets[0]: 454  LLC: 2048
rand_sets[0]: 454
Assign rand_sets[1]: 1662  LLC: 2048
rand_sets[1]: 1662
Assign rand_sets[2]: 1921  LLC: 2048
rand_sets[2]: 1921
Assign rand_sets[3]: 1131  LLC: 2048
rand_sets[3]: 1131
Assign rand_sets[4]: 331  LLC: 2048
rand_sets[4]: 331
Assign rand_sets[5]: 1531  LLC: 2048
rand_sets[5]: 1531
Assign rand_sets[6]: 482  LLC: 2048
rand_sets[6]: 482
Assign rand_sets[7]: 1275  LLC: 2048
rand_sets[7]: 1275
Assign rand_sets[8]: 1876  LLC: 2048
rand_sets[8]: 1876
Assign rand_sets[9]: 2038  LLC: 2048
rand_sets[9]: 2038
Assign rand_sets[10]: 701  LLC: 2048
rand_sets[10]: 701
Assign rand_sets[11]: 479  LLC: 2048
rand_sets[11]: 479
Assign rand_sets[12]: 892  LLC: 2048
rand_sets[12]: 892
Assign rand_sets[13]: 1820  LLC: 2048
rand_sets[13]: 1820
Assign rand_sets[14]: 1505  LLC: 2048
rand_sets[14]: 1505
Assign rand_sets[15]: 1159  LLC: 2048
rand_sets[15]: 1159
Assign rand_sets[16]: 513  LLC: 2048
rand_sets[16]: 513
Assign rand_sets[17]: 703  LLC: 2048
rand_sets[17]: 703
Assign rand_sets[18]: 561  LLC: 2048
rand_sets[18]: 561
Assign rand_sets[19]: 990  LLC: 2048
rand_sets[19]: 990
Assign rand_sets[20]: 342  LLC: 2048
rand_sets[20]: 342
Assign rand_sets[21]: 882  LLC: 2048
rand_sets[21]: 882
Assign rand_sets[22]: 15  LLC: 2048
rand_sets[22]: 15
Assign rand_sets[23]: 71  LLC: 2048
rand_sets[23]: 71
Assign rand_sets[24]: 1127  LLC: 2048
rand_sets[24]: 1127
Assign rand_sets[25]: 1382  LLC: 2048
rand_sets[25]: 1382
Assign rand_sets[26]: 647  LLC: 2048
rand_sets[26]: 647
Assign rand_sets[27]: 857  LLC: 2048
rand_sets[27]: 857
Assign rand_sets[28]: 1450  LLC: 2048
rand_sets[28]: 1450
Assign rand_sets[29]: 1160  LLC: 2048
rand_sets[29]: 1160
Assign rand_sets[30]: 1852  LLC: 2048
rand_sets[30]: 1852
Assign rand_sets[31]: 1881  LLC: 2048
rand_sets[31]: 1881
Assign rand_sets[32]: 1770  LLC: 2048
rand_sets[32]: 1770
Assign rand_sets[33]: 1622  LLC: 2048
rand_sets[33]: 1622
Assign rand_sets[34]: 275  LLC: 2048
rand_sets[34]: 275
Assign rand_sets[35]: 635  LLC: 2048
rand_sets[35]: 635
Assign rand_sets[36]: 466  LLC: 2048
rand_sets[36]: 466
Assign rand_sets[37]: 1413  LLC: 2048
rand_sets[37]: 1413
Assign rand_sets[38]: 417  LLC: 2048
rand_sets[38]: 417
Assign rand_sets[39]: 472  LLC: 2048
rand_sets[39]: 472
Assign rand_sets[40]: 1340  LLC: 2048
rand_sets[40]: 1340
Assign rand_sets[41]: 852  LLC: 2048
rand_sets[41]: 852
Assign rand_sets[42]: 1365  LLC: 2048
rand_sets[42]: 1365
Assign rand_sets[43]: 47  LLC: 2048
rand_sets[43]: 47
Assign rand_sets[44]: 823  LLC: 2048
rand_sets[44]: 823
Assign rand_sets[45]: 686  LLC: 2048
rand_sets[45]: 686
Assign rand_sets[46]: 1637  LLC: 2048
rand_sets[46]: 1637
Assign rand_sets[47]: 1115  LLC: 2048
rand_sets[47]: 1115
Assign rand_sets[48]: 986  LLC: 2048
rand_sets[48]: 986
Assign rand_sets[49]: 258  LLC: 2048
rand_sets[49]: 258
Assign rand_sets[50]: 633  LLC: 2048
rand_sets[50]: 633
Assign rand_sets[51]: 920  LLC: 2048
rand_sets[51]: 920
Assign rand_sets[52]: 204  LLC: 2048
rand_sets[52]: 204
Assign rand_sets[53]: 227  LLC: 2048
rand_sets[53]: 227
Assign rand_sets[54]: 1818  LLC: 2048
rand_sets[54]: 1818
Assign rand_sets[55]: 886  LLC: 2048
rand_sets[55]: 886
Assign rand_sets[56]: 1422  LLC: 2048
rand_sets[56]: 1422
Assign rand_sets[57]: 607  LLC: 2048
rand_sets[57]: 607
Assign rand_sets[58]: 217  LLC: 2048
rand_sets[58]: 217
Assign rand_sets[59]: 1945  LLC: 2048
rand_sets[59]: 1945
Assign rand_sets[60]: 143  LLC: 2048
rand_sets[60]: 143
Assign rand_sets[61]: 1311  LLC: 2048
rand_sets[61]: 1311
Assign rand_sets[62]: 319  LLC: 2048
rand_sets[62]: 319
Assign rand_sets[63]: 1846  LLC: 2048
rand_sets[63]: 1846
 CLEAN-RRIP-POLICY-1: 2-2-1-3-2-3-0-1- CLEAN-RRIP-POLICY-2: 2-2-1-3-2-3-0-1-
 DIRTY-RRIP-POLICY-1: 2-2-0-3-1-3-2-1- DIRTY-RRIP-POLICY-2: 2-2-0-3-1-3-2-1-
 PSEL width: 10
Heartbeat CPU 0 instructions: 10000000 cycles: 7320144 heartbeat IPC: 1.36609 cumulative IPC: 1.36609 (Simulation time: 0 hr 0 min 37 sec) 
Heartbeat CPU 0 instructions: 20000000 cycles: 14624116 heartbeat IPC: 1.36912 cumulative IPC: 1.3676 (Simulation time: 0 hr 1 min 15 sec) 
Heartbeat CPU 0 instructions: 30000003 cycles: 21925866 heartbeat IPC: 1.36954 cumulative IPC: 1.36825 (Simulation time: 0 hr 1 min 52 sec) 
Heartbeat CPU 0 instructions: 40000000 cycles: 29214436 heartbeat IPC: 1.37201 cumulative IPC: 1.36919 (Simulation time: 0 hr 2 min 30 sec) 
Heartbeat CPU 0 instructions: 50000000 cycles: 36491368 heartbeat IPC: 1.37421 cumulative IPC: 1.37019 (Simulation time: 0 hr 3 min 8 sec) 
Heartbeat CPU 0 instructions: 60000000 cycles: 43771758 heartbeat IPC: 1.37355 cumulative IPC: 1.37075 (Simulation time: 0 hr 3 min 46 sec) 
Heartbeat CPU 0 instructions: 70000001 cycles: 51057329 heartbeat IPC: 1.37258 cumulative IPC: 1.37101 (Simulation time: 0 hr 4 min 25 sec) 
Heartbeat CPU 0 instructions: 80000000 cycles: 58332704 heartbeat IPC: 1.3745 cumulative IPC: 1.37144 (Simulation time: 0 hr 5 min 3 sec) 
Heartbeat CPU 0 instructions: 90000000 cycles: 65639425 heartbeat IPC: 1.3686 cumulative IPC: 1.37113 (Simulation time: 0 hr 5 min 41 sec) 
Heartbeat CPU 0 instructions: 100000000 cycles: 72931870 heartbeat IPC: 1.37128 cumulative IPC: 1.37114 (Simulation time: 0 hr 6 min 19 sec) 

Warmup complete CPU 0 instructions: 100000002 cycles: 72931871 (Simulation time: 0 hr 6 min 19 sec) 

Heartbeat CPU 0 instructions: 110000002 cycles: 113508707 heartbeat IPC: 0.246446 cumulative IPC: 0.246446 (Simulation time: 0 hr 7 min 36 sec) 
Heartbeat CPU 0 instructions: 120000000 cycles: 153836373 heartbeat IPC: 0.247969 cumulative IPC: 0.247205 (Simulation time: 0 hr 8 min 53 sec) 
Heartbeat CPU 0 instructions: 130000002 cycles: 194381175 heartbeat IPC: 0.246641 cumulative IPC: 0.247017 (Simulation time: 0 hr 10 min 10 sec) 
Heartbeat CPU 0 instructions: 140000000 cycles: 235047567 heartbeat IPC: 0.245903 cumulative IPC: 0.246737 (Simulation time: 0 hr 11 min 27 sec) 
Heartbeat CPU 0 instructions: 150000002 cycles: 275263401 heartbeat IPC: 0.248658 cumulative IPC: 0.247119 (Simulation time: 0 hr 12 min 44 sec) 
Heartbeat CPU 0 instructions: 160000000 cycles: 315524259 heartbeat IPC: 0.24838 cumulative IPC: 0.247328 (Simulation time: 0 hr 14 min 0 sec) 
Heartbeat CPU 0 instructions: 170000001 cycles: 355038619 heartbeat IPC: 0.253073 cumulative IPC: 0.248133 (Simulation time: 0 hr 15 min 15 sec) 
Heartbeat CPU 0 instructions: 180000000 cycles: 395278147 heartbeat IPC: 0.248512 cumulative IPC: 0.24818 (Simulation time: 0 hr 16 min 31 sec) 
Heartbeat CPU 0 instructions: 190000002 cycles: 435477967 heartbeat IPC: 0.248757 cumulative IPC: 0.248244 (Simulation time: 0 hr 17 min 44 sec) 
Heartbeat CPU 0 instructions: 200000000 cycles: 476876524 heartbeat IPC: 0.241554 cumulative IPC: 0.247559 (Simulation time: 0 hr 18 min 57 sec) 
Heartbeat CPU 0 instructions: 210000003 cycles: 517121437 heartbeat IPC: 0.248479 cumulative IPC: 0.247642 (Simulation time: 0 hr 20 min 9 sec) 
Heartbeat CPU 0 instructions: 220000000 cycles: 557616254 heartbeat IPC: 0.246945 cumulative IPC: 0.247584 (Simulation time: 0 hr 21 min 21 sec) 
Heartbeat CPU 0 instructions: 230000000 cycles: 598062307 heartbeat IPC: 0.247243 cumulative IPC: 0.247558 (Simulation time: 0 hr 22 min 32 sec) 
Heartbeat CPU 0 instructions: 240000000 cycles: 638270832 heartbeat IPC: 0.248703 cumulative IPC: 0.247639 (Simulation time: 0 hr 23 min 44 sec) 
Heartbeat CPU 0 instructions: 250000000 cycles: 678500571 heartbeat IPC: 0.248572 cumulative IPC: 0.247701 (Simulation time: 0 hr 24 min 55 sec) 
Heartbeat CPU 0 instructions: 260000000 cycles: 718847223 heartbeat IPC: 0.247852 cumulative IPC: 0.24771 (Simulation time: 0 hr 26 min 7 sec) 
Heartbeat CPU 0 instructions: 270000000 cycles: 759262494 heartbeat IPC: 0.247431 cumulative IPC: 0.247694 (Simulation time: 0 hr 27 min 19 sec) 
Heartbeat CPU 0 instructions: 280000000 cycles: 800010013 heartbeat IPC: 0.245414 cumulative IPC: 0.247566 (Simulation time: 0 hr 28 min 31 sec) 
Heartbeat CPU 0 instructions: 290000001 cycles: 839961410 heartbeat IPC: 0.250304 cumulative IPC: 0.247709 (Simulation time: 0 hr 29 min 40 sec) 
Heartbeat CPU 0 instructions: 300000000 cycles: 880587020 heartbeat IPC: 0.24615 cumulative IPC: 0.24763 (Simulation time: 0 hr 30 min 49 sec) 
Heartbeat CPU 0 instructions: 310000000 cycles: 921168789 heartbeat IPC: 0.246416 cumulative IPC: 0.247572 (Simulation time: 0 hr 31 min 56 sec) 
Heartbeat CPU 0 instructions: 320000000 cycles: 961468999 heartbeat IPC: 0.248138 cumulative IPC: 0.247598 (Simulation time: 0 hr 33 min 4 sec) 
Heartbeat CPU 0 instructions: 330000000 cycles: 1001773951 heartbeat IPC: 0.248108 cumulative IPC: 0.24762 (Simulation time: 0 hr 34 min 13 sec) 
Heartbeat CPU 0 instructions: 340000000 cycles: 1042699969 heartbeat IPC: 0.244343 cumulative IPC: 0.247482 (Simulation time: 0 hr 35 min 21 sec) 
Heartbeat CPU 0 instructions: 350000001 cycles: 1083096554 heartbeat IPC: 0.247546 cumulative IPC: 0.247484 (Simulation time: 0 hr 36 min 28 sec) 
Heartbeat CPU 0 instructions: 360000000 cycles: 1123726786 heartbeat IPC: 0.246122 cumulative IPC: 0.247432 (Simulation time: 0 hr 37 min 36 sec) 
Heartbeat CPU 0 instructions: 370000000 cycles: 1163449671 heartbeat IPC: 0.251744 cumulative IPC: 0.247589 (Simulation time: 0 hr 38 min 43 sec) 
Heartbeat CPU 0 instructions: 380000000 cycles: 1204075475 heartbeat IPC: 0.246149 cumulative IPC: 0.247537 (Simulation time: 0 hr 39 min 50 sec) 
Heartbeat CPU 0 instructions: 390000001 cycles: 1244263616 heartbeat IPC: 0.24883 cumulative IPC: 0.247581 (Simulation time: 0 hr 40 min 57 sec) 
Heartbeat CPU 0 instructions: 400000000 cycles: 1284530983 heartbeat IPC: 0.24834 cumulative IPC: 0.247607 (Simulation time: 0 hr 42 min 5 sec) 
Heartbeat CPU 0 instructions: 410000000 cycles: 1324640550 heartbeat IPC: 0.249317 cumulative IPC: 0.247661 (Simulation time: 0 hr 43 min 12 sec) 
Heartbeat CPU 0 instructions: 420000000 cycles: 1364769355 heartbeat IPC: 0.249198 cumulative IPC: 0.247709 (Simulation time: 0 hr 44 min 19 sec) 
Heartbeat CPU 0 instructions: 430000000 cycles: 1404975137 heartbeat IPC: 0.24872 cumulative IPC: 0.24774 (Simulation time: 0 hr 45 min 27 sec) 
Heartbeat CPU 0 instructions: 440000000 cycles: 1445237439 heartbeat IPC: 0.248371 cumulative IPC: 0.247758 (Simulation time: 0 hr 46 min 34 sec) 
Heartbeat CPU 0 instructions: 450000002 cycles: 1485368969 heartbeat IPC: 0.249181 cumulative IPC: 0.247799 (Simulation time: 0 hr 47 min 41 sec) 
Heartbeat CPU 0 instructions: 460000000 cycles: 1524909932 heartbeat IPC: 0.252902 cumulative IPC: 0.247938 (Simulation time: 0 hr 48 min 48 sec) 
Heartbeat CPU 0 instructions: 470000000 cycles: 1565331229 heartbeat IPC: 0.247394 cumulative IPC: 0.247923 (Simulation time: 0 hr 49 min 56 sec) 
Heartbeat CPU 0 instructions: 480000000 cycles: 1605406864 heartbeat IPC: 0.249528 cumulative IPC: 0.247965 (Simulation time: 0 hr 51 min 3 sec) 
Heartbeat CPU 0 instructions: 490000001 cycles: 1645629015 heartbeat IPC: 0.248619 cumulative IPC: 0.247982 (Simulation time: 0 hr 52 min 11 sec) 
Heartbeat CPU 0 instructions: 500000000 cycles: 1686054262 heartbeat IPC: 0.24737 cumulative IPC: 0.247966 (Simulation time: 0 hr 53 min 18 sec) 
Heartbeat CPU 0 instructions: 510000000 cycles: 1725908340 heartbeat IPC: 0.250915 cumulative IPC: 0.248037 (Simulation time: 0 hr 54 min 25 sec) 
Heartbeat CPU 0 instructions: 520000000 cycles: 1766576014 heartbeat IPC: 0.245896 cumulative IPC: 0.247986 (Simulation time: 0 hr 55 min 32 sec) 
Heartbeat CPU 0 instructions: 530000000 cycles: 1806675624 heartbeat IPC: 0.249379 cumulative IPC: 0.248018 (Simulation time: 0 hr 56 min 39 sec) 
Heartbeat CPU 0 instructions: 540000000 cycles: 1846510857 heartbeat IPC: 0.251034 cumulative IPC: 0.248086 (Simulation time: 0 hr 57 min 46 sec) 
Heartbeat CPU 0 instructions: 550000001 cycles: 1887084612 heartbeat IPC: 0.246465 cumulative IPC: 0.24805 (Simulation time: 0 hr 58 min 54 sec) 
Heartbeat CPU 0 instructions: 560000000 cycles: 1927740005 heartbeat IPC: 0.24597 cumulative IPC: 0.248004 (Simulation time: 1 hr 0 min 2 sec) 
Heartbeat CPU 0 instructions: 570000003 cycles: 1968377913 heartbeat IPC: 0.246076 cumulative IPC: 0.247963 (Simulation time: 1 hr 1 min 10 sec) 
Heartbeat CPU 0 instructions: 580000000 cycles: 2008845318 heartbeat IPC: 0.247112 cumulative IPC: 0.247945 (Simulation time: 1 hr 2 min 17 sec) 
Heartbeat CPU 0 instructions: 590000001 cycles: 2049746105 heartbeat IPC: 0.244494 cumulative IPC: 0.247874 (Simulation time: 1 hr 3 min 25 sec) 
Heartbeat CPU 0 instructions: 600000000 cycles: 2090377699 heartbeat IPC: 0.246114 cumulative IPC: 0.247838 (Simulation time: 1 hr 4 min 33 sec) 
Finished CPU 0 instructions: 500000000 cycles: 2017445836 cumulative IPC: 0.247838 (Simulation time: 1 hr 4 min 33 sec) 

CPU 0 Branch Prediction Accuracy: 96.2429% MPKI: 5.85335
Number of Branches: 77897976 Number of Mispredictions: 2926674
Number of LOAD Instructions: 193081861
Number of LOAD Instructions (ROI): 193081861
Number of STORE Instructions: 97310749
Number of STORE Instructions (ROI): 97310749
Total Destination Memory Operands: 106368027
Total Destination Memory Operands (ROI): 106368027
Total Source Memory Operands: 193081861
Total Source Memory Operands (ROI): 193081861
Number of DEPENDED LOADS: 6441876
Number of DEPENDED LOADS (ROI): 6441876
Number of SQ_ADDED: 106367982
Number of SQ_ADDED (ROI): 106367982
Number of LQ_ADDED: 427898736
Number of LQ_ADDED (ROI): 427898736
Number of Instructions read from trace: 600000256

ChampSim completed all CPUs

Region of Interest Statistics

CPU 0 cumulative IPC: 0.247838 instructions: 500000000 cycles: 2017445836
ITLB TOTAL     ACCESS:  151239116  HIT:  151223285  MISS:      15831
ITLB LOAD      ACCESS:  151239116  HIT:  151223285  MISS:      15831
ITLB RFO       ACCESS:          0  HIT:          0  MISS:          0
ITLB PREFETCH  ACCESS:          0  HIT:          0  MISS:          0
ITLB WRITEBACK ACCESS:          0  HIT:          0  MISS:          0
ITLB PREFETCH  REQUESTED:          0  ISSUED:          0  USEFUL:          0  USELESS:          0
ITLB TOTAL MSHR MERGED:      17654
ITLB LOAD MSHR MERGED:      17654
ITLB RFO MSHR MERGED:          0
ITLB PREFETCH MSHR MERGED:          0
ITLB WRITEBACK MSHR MERGED:          0
ITLB TOTAL ACCESSES:  151256770 HITS:  151223285 MISSES:      33485
ITLB LOAD ACCESSES:  151256770 HITS:  151223285 MISSES:      33485
ITLB RFO ACCESSES:          0 HITS:          0 MISSES:          0
ITLB PREFETCH ACCESSES:          0 HITS:          0 MISSES:          0
ITLB WRITEBACK ACCESSES:          0 HITS:          0 MISSES:          0
ITLB RQ ACCESS:  500000242
ITLB RQ TO_CACHE:  151256770
ITLB RQ MERGED:  348743472
ITLB RQ FORWARD:          0
ITLB WQ ACCESS:          0
ITLB WQ TO_CACHE:          0
ITLB WQ MERGED:          0
ITLB WQ FORWARD:          0
DTLB TOTAL     ACCESS:  199562404  HIT:  194183340  MISS:    5379064
DTLB LOAD      ACCESS:  123135397  HIT:  118116815  MISS:    5018582
DTLB RFO       ACCESS:   76427007  HIT:   76066525  MISS:     360482
DTLB PREFETCH  ACCESS:          0  HIT:          0  MISS:          0
DTLB WRITEBACK ACCESS:          0  HIT:          0  MISS:          0
DTLB PREFETCH  REQUESTED:          0  ISSUED:          0  USEFUL:          0  USELESS:          0
DTLB TOTAL MSHR MERGED:     917026
DTLB LOAD MSHR MERGED:     807250
DTLB RFO MSHR MERGED:     109776
DTLB PREFETCH MSHR MERGED:          0
DTLB WRITEBACK MSHR MERGED:          0
DTLB TOTAL ACCESSES:  200479430 HITS:  194183340 MISSES:    6296090
DTLB LOAD ACCESSES:  123942647 HITS:  118116815 MISSES:    5825832
DTLB RFO ACCESSES:   76536783 HITS:   76066525 MISSES:     470258
DTLB PREFETCH ACCESSES:          0 HITS:          0 MISSES:          0
DTLB WRITEBACK ACCESSES:          0 HITS:          0 MISSES:          0
DTLB RQ ACCESS:  243883775
DTLB RQ TO_CACHE:  200479430
DTLB RQ MERGED:   43404345
DTLB RQ FORWARD:          0
DTLB WQ ACCESS:          0
DTLB WQ TO_CACHE:          0
DTLB WQ MERGED:          0
DTLB WQ FORWARD:          0
L1D TOTAL     ACCESS:  335609555  HIT:  317513453  MISS:   18096102
L1D LOAD      ACCESS:  127689926  HIT:  118746829  MISS:    8943097
L1D RFO       ACCESS:   87078856  HIT:   86296536  MISS:     782320
L1D PREFETCH  ACCESS:  120840773  HIT:  112470088  MISS:    8370685
L1D WRITEBACK ACCESS:          0  HIT:          0  MISS:          0
L1D PREFETCH  REQUESTED:  128477515  ISSUED:  126879505  USEFUL:    1742338  USELESS:    6628359
L1D TOTAL MSHR MERGED:    3849073
L1D LOAD MSHR MERGED:     951439
L1D RFO MSHR MERGED:    1068171
L1D PREFETCH MSHR MERGED:    1829463
L1D WRITEBACK MSHR MERGED:          0
L1D TOTAL ACCESSES:  339544914 HITS:  317599739 MISSES:   21945175
L1D LOAD ACCESSES:  128478010 HITS:  118747324 MISSES:    9730686
L1D RFO ACCESSES:   88085119 HITS:   86296536 MISSES:    1788583
L1D PREFETCH ACCESSES:  122981785 HITS:  112555879 MISSES:   10425906
L1D WRITEBACK ACCESSES:          0 HITS:          0 MISSES:          0
L1D RQ ACCESS:  155252390
L1D RQ TO_CACHE:  128477515
L1D RQ MERGED:   26774380
L1D RQ FORWARD:          0
L1D WQ ACCESS:   88631385
L1D WQ TO_CACHE:   88085118
L1D WQ MERGED:     546267
L1D WQ FORWARD:      86286
L1I TOTAL     ACCESS:  175545434  HIT:  175278973  MISS:     266461
L1I LOAD      ACCESS:  175545434  HIT:  175278973  MISS:     266461
L1I RFO       ACCESS:          0  HIT:          0  MISS:          0
L1I PREFETCH  ACCESS:          0  HIT:          0  MISS:          0
L1I WRITEBACK ACCESS:          0  HIT:          0  MISS:          0
L1I PREFETCH  REQUESTED:          0  ISSUED:          0  USEFUL:          0  USELESS:          0
L1I TOTAL MSHR MERGED:     213330
L1I LOAD MSHR MERGED:     213330
L1I RFO MSHR MERGED:          0
L1I PREFETCH MSHR MERGED:          0
L1I WRITEBACK MSHR MERGED:          0
L1I TOTAL ACCESSES:  175758764 HITS:  175278973 MISSES:     479791
L1I LOAD ACCESSES:  175758764 HITS:  175278973 MISSES:     479791
L1I RFO ACCESSES:          0 HITS:          0 MISSES:          0
L1I PREFETCH ACCESSES:          0 HITS:          0 MISSES:          0
L1I WRITEBACK ACCESSES:          0 HITS:          0 MISSES:          0
L1I RQ ACCESS:  500000242
L1I RQ TO_CACHE:  175758764
L1I RQ MERGED:  324241478
L1I RQ FORWARD:          0
L1I WQ ACCESS:          0
L1I WQ TO_CACHE:          0
L1I WQ MERGED:          0
L1I WQ FORWARD:          0
L2C TOTAL     ACCESS:   23738665  HIT:   12112872  MISS:   11625793
L2C LOAD      ACCESS:    9044535  HIT:    3564940  MISS:    5479595
L2C RFO       ACCESS:     720355  HIT:     130197  MISS:     590158
L2C PREFETCH  ACCESS:    8613441  HIT:    3086088  MISS:    5527353
L2C WRITEBACK ACCESS:    5360334  HIT:    5331647  MISS:      28687
L2C PREFETCH  REQUESTED:      18046  ISSUED:      18046  USEFUL:     323031  USELESS:    5204497
L2C TOTAL MSHR MERGED:         23
L2C LOAD MSHR MERGED:          2
L2C RFO MSHR MERGED:          0
L2C PREFETCH MSHR MERGED:         21
L2C WRITEBACK MSHR MERGED:          0
L2C TOTAL ACCESSES:   23740481 HITS:   12114659 MISSES:   11625822
L2C LOAD ACCESSES:    9045708 HITS:    3566113 MISSES:    5479595
L2C RFO ACCESSES:     720412 HITS:     130254 MISSES:     590158
L2C PREFETCH ACCESSES:    8614027 HITS:    3086645 MISSES:    5527382
L2C WRITEBACK ACCESSES:    5360334 HITS:    5331647 MISSES:      28687
L2C RQ ACCESS:    9766120
L2C RQ TO_CACHE:    9764890
L2C RQ MERGED:          0
L2C RQ FORWARD:          0
L2C WQ ACCESS:    5360334
L2C WQ TO_CACHE:    5360334
L2C WQ MERGED:          0
L2C WQ FORWARD:       1787
LLC TOTAL     ACCESS:   15448747  HIT:    6380079  MISS:    9068668
LLC LOAD      ACCESS:    5479566  HIT:    1991965  MISS:    3487601
LLC RFO       ACCESS:     590156  HIT:     276304  MISS:     313852
LLC PREFETCH  ACCESS:    5527345  HIT:    1056351  MISS:    4470994
LLC WRITEBACK ACCESS:    3851680  HIT:    3055459  MISS:     796221
LLC PREFETCH  REQUESTED:          0  ISSUED:          0  USEFUL:      23882  USELESS:    4447574
LLC TOTAL MSHR MERGED:          0
LLC LOAD MSHR MERGED:          0
LLC RFO MSHR MERGED:          0
LLC PREFETCH MSHR MERGED:          0
LLC WRITEBACK MSHR MERGED:          0
LLC TOTAL ACCESSES:   15448792 HITS:    6380124 MISSES:    9068668
LLC LOAD ACCESSES:    5479593 HITS:    1991992 MISSES:    3487601
LLC RFO ACCESSES:     590158 HITS:     276306 MISSES:     313852
LLC PREFETCH ACCESSES:    5527361 HITS:    1056367 MISSES:    4470994
LLC WRITEBACK ACCESSES:    3851680 HITS:    3055459 MISSES:     796221
LLC 0 RQ ACCESS:    6069751
LLC 0 RQ TO_CACHE:    6069722
LLC 0 RQ MERGED:          0
LLC 0 RQ FORWARD:          0
LLC WQ ACCESS:    3851680
LLC WQ TO_CACHE:    3851680
LLC WQ MERGED:          0
LLC WQ FORWARD:         45
Major fault: 0 Minor fault: 44814
CPU 0 L1D next line prefetcher final stats
CPU 0 L2C PC-based stride prefetcher final stats
All Misses: 10972583
All Hits: 7648649
SD Algo Stats - Switches: 0 SRR-Repls: 3981347 BRR-Repls: 0

DRAM Statistics
 CHANNEL 0
 RQ ROW_BUFFER_HIT:    1442523  ROW_BUFFER_MISS:    6828178
 DBUS_CONGESTED:    5580201
 WQ ROW_BUFFER_HIT:     181439  ROW_BUFFER_MISS:    2132607  FULL:          0

 AVG_CONGESTED_CYCLE: 13
LOADS RETIRED: 160808997
INSTR RETIRED: 500000000
