
*** ChampSim Multicore Out-of-Order Simulator ***

Warmup Instructions: 100000000
Simulation Instructions: 500000000
Number of CPUs: 1
LLC sets: 2048
LLC ways: 16
Clean RRIP Policies: 1213030112130301 Dirty RRIP Policies: 2213130122131301 PSEL Width: 10 Track Set: 4294967295 PSEL Mask: 1 Demote Mask: 1310201313102013DS Algo: 0Window size: 0
Off-chip DRAM Size: 4096 MB Channels: 1 Width: 64-bit Data Rate: 1600 MT/s

CPU 0 runs /mnt/beegfs/iconst01/spec2017/Blender.trace.gz
NOT SORTED
TRACE STRING: /mnt/beegfs/iconst01/spec2017/Blender.trace.gz
SORTED
TRACE STRING: /mnt/beegfs/iconst01/spec2017/Blender.trace.gz
INITIAL
TRACE STRING: /mnt/beegfs/iconst01/spec2017/Blender.trace.gz

champsim_seed used: 700

CPU 0 L1D next line prefetcher
CPU 0 L2C IP-based stride prefetcher
Initialize DRRIP state
Assign rand_sets[0]: 454  LLC: 2048
rand_sets[0]: 454
Assign rand_sets[1]: 1662  LLC: 2048
rand_sets[1]: 1662
Assign rand_sets[2]: 1921  LLC: 2048
rand_sets[2]: 1921
Assign rand_sets[3]: 1131  LLC: 2048
rand_sets[3]: 1131
Assign rand_sets[4]: 331  LLC: 2048
rand_sets[4]: 331
Assign rand_sets[5]: 1531  LLC: 2048
rand_sets[5]: 1531
Assign rand_sets[6]: 482  LLC: 2048
rand_sets[6]: 482
Assign rand_sets[7]: 1275  LLC: 2048
rand_sets[7]: 1275
Assign rand_sets[8]: 1876  LLC: 2048
rand_sets[8]: 1876
Assign rand_sets[9]: 2038  LLC: 2048
rand_sets[9]: 2038
Assign rand_sets[10]: 701  LLC: 2048
rand_sets[10]: 701
Assign rand_sets[11]: 479  LLC: 2048
rand_sets[11]: 479
Assign rand_sets[12]: 892  LLC: 2048
rand_sets[12]: 892
Assign rand_sets[13]: 1820  LLC: 2048
rand_sets[13]: 1820
Assign rand_sets[14]: 1505  LLC: 2048
rand_sets[14]: 1505
Assign rand_sets[15]: 1159  LLC: 2048
rand_sets[15]: 1159
Assign rand_sets[16]: 513  LLC: 2048
rand_sets[16]: 513
Assign rand_sets[17]: 703  LLC: 2048
rand_sets[17]: 703
Assign rand_sets[18]: 561  LLC: 2048
rand_sets[18]: 561
Assign rand_sets[19]: 990  LLC: 2048
rand_sets[19]: 990
Assign rand_sets[20]: 342  LLC: 2048
rand_sets[20]: 342
Assign rand_sets[21]: 882  LLC: 2048
rand_sets[21]: 882
Assign rand_sets[22]: 15  LLC: 2048
rand_sets[22]: 15
Assign rand_sets[23]: 71  LLC: 2048
rand_sets[23]: 71
Assign rand_sets[24]: 1127  LLC: 2048
rand_sets[24]: 1127
Assign rand_sets[25]: 1382  LLC: 2048
rand_sets[25]: 1382
Assign rand_sets[26]: 647  LLC: 2048
rand_sets[26]: 647
Assign rand_sets[27]: 857  LLC: 2048
rand_sets[27]: 857
Assign rand_sets[28]: 1450  LLC: 2048
rand_sets[28]: 1450
Assign rand_sets[29]: 1160  LLC: 2048
rand_sets[29]: 1160
Assign rand_sets[30]: 1852  LLC: 2048
rand_sets[30]: 1852
Assign rand_sets[31]: 1881  LLC: 2048
rand_sets[31]: 1881
Assign rand_sets[32]: 1770  LLC: 2048
rand_sets[32]: 1770
Assign rand_sets[33]: 1622  LLC: 2048
rand_sets[33]: 1622
Assign rand_sets[34]: 275  LLC: 2048
rand_sets[34]: 275
Assign rand_sets[35]: 635  LLC: 2048
rand_sets[35]: 635
Assign rand_sets[36]: 466  LLC: 2048
rand_sets[36]: 466
Assign rand_sets[37]: 1413  LLC: 2048
rand_sets[37]: 1413
Assign rand_sets[38]: 417  LLC: 2048
rand_sets[38]: 417
Assign rand_sets[39]: 472  LLC: 2048
rand_sets[39]: 472
Assign rand_sets[40]: 1340  LLC: 2048
rand_sets[40]: 1340
Assign rand_sets[41]: 852  LLC: 2048
rand_sets[41]: 852
Assign rand_sets[42]: 1365  LLC: 2048
rand_sets[42]: 1365
Assign rand_sets[43]: 47  LLC: 2048
rand_sets[43]: 47
Assign rand_sets[44]: 823  LLC: 2048
rand_sets[44]: 823
Assign rand_sets[45]: 686  LLC: 2048
rand_sets[45]: 686
Assign rand_sets[46]: 1637  LLC: 2048
rand_sets[46]: 1637
Assign rand_sets[47]: 1115  LLC: 2048
rand_sets[47]: 1115
Assign rand_sets[48]: 986  LLC: 2048
rand_sets[48]: 986
Assign rand_sets[49]: 258  LLC: 2048
rand_sets[49]: 258
Assign rand_sets[50]: 633  LLC: 2048
rand_sets[50]: 633
Assign rand_sets[51]: 920  LLC: 2048
rand_sets[51]: 920
Assign rand_sets[52]: 204  LLC: 2048
rand_sets[52]: 204
Assign rand_sets[53]: 227  LLC: 2048
rand_sets[53]: 227
Assign rand_sets[54]: 1818  LLC: 2048
rand_sets[54]: 1818
Assign rand_sets[55]: 886  LLC: 2048
rand_sets[55]: 886
Assign rand_sets[56]: 1422  LLC: 2048
rand_sets[56]: 1422
Assign rand_sets[57]: 607  LLC: 2048
rand_sets[57]: 607
Assign rand_sets[58]: 217  LLC: 2048
rand_sets[58]: 217
Assign rand_sets[59]: 1945  LLC: 2048
rand_sets[59]: 1945
Assign rand_sets[60]: 143  LLC: 2048
rand_sets[60]: 143
Assign rand_sets[61]: 1311  LLC: 2048
rand_sets[61]: 1311
Assign rand_sets[62]: 319  LLC: 2048
rand_sets[62]: 319
Assign rand_sets[63]: 1846  LLC: 2048
rand_sets[63]: 1846
 CLEAN-RRIP-POLICY-1: 1-2-1-3-0-3-0-1- CLEAN-RRIP-POLICY-2: 1-2-1-3-0-3-0-1-
 DIRTY-RRIP-POLICY-1: 2-2-1-3-1-3-0-1- DIRTY-RRIP-POLICY-2: 2-2-1-3-1-3-0-1-
 PSEL width: 10
Heartbeat CPU 0 instructions: 10000002 cycles: 5480930 heartbeat IPC: 1.82451 cumulative IPC: 1.82451 (Simulation time: 0 hr 0 min 13 sec) 
Heartbeat CPU 0 instructions: 20000000 cycles: 10913521 heartbeat IPC: 1.84074 cumulative IPC: 1.83259 (Simulation time: 0 hr 0 min 26 sec) 
Heartbeat CPU 0 instructions: 30000000 cycles: 16447423 heartbeat IPC: 1.80704 cumulative IPC: 1.82399 (Simulation time: 0 hr 0 min 39 sec) 
Heartbeat CPU 0 instructions: 40000000 cycles: 21898219 heartbeat IPC: 1.83459 cumulative IPC: 1.82663 (Simulation time: 0 hr 0 min 52 sec) 
Heartbeat CPU 0 instructions: 50000000 cycles: 27400195 heartbeat IPC: 1.81753 cumulative IPC: 1.8248 (Simulation time: 0 hr 1 min 5 sec) 
Heartbeat CPU 0 instructions: 60000000 cycles: 32779078 heartbeat IPC: 1.85912 cumulative IPC: 1.83044 (Simulation time: 0 hr 1 min 18 sec) 
Heartbeat CPU 0 instructions: 70000001 cycles: 38335417 heartbeat IPC: 1.79975 cumulative IPC: 1.82599 (Simulation time: 0 hr 1 min 31 sec) 
Heartbeat CPU 0 instructions: 80000000 cycles: 43795612 heartbeat IPC: 1.83144 cumulative IPC: 1.82667 (Simulation time: 0 hr 1 min 44 sec) 
Heartbeat CPU 0 instructions: 90000000 cycles: 49242472 heartbeat IPC: 1.83592 cumulative IPC: 1.82769 (Simulation time: 0 hr 1 min 58 sec) 
Heartbeat CPU 0 instructions: 100000000 cycles: 54787640 heartbeat IPC: 1.80337 cumulative IPC: 1.82523 (Simulation time: 0 hr 2 min 11 sec) 

Warmup complete CPU 0 instructions: 100000002 cycles: 54787641 (Simulation time: 0 hr 2 min 11 sec) 

Heartbeat CPU 0 instructions: 110000001 cycles: 69218427 heartbeat IPC: 0.692963 cumulative IPC: 0.692963 (Simulation time: 0 hr 2 min 30 sec) 
Heartbeat CPU 0 instructions: 120000000 cycles: 84263368 heartbeat IPC: 0.664675 cumulative IPC: 0.678524 (Simulation time: 0 hr 2 min 49 sec) 
Heartbeat CPU 0 instructions: 130000000 cycles: 98790761 heartbeat IPC: 0.688355 cumulative IPC: 0.68177 (Simulation time: 0 hr 3 min 8 sec) 
Heartbeat CPU 0 instructions: 140000000 cycles: 113155552 heartbeat IPC: 0.696147 cumulative IPC: 0.685308 (Simulation time: 0 hr 3 min 27 sec) 
Heartbeat CPU 0 instructions: 150000000 cycles: 127898735 heartbeat IPC: 0.67828 cumulative IPC: 0.683891 (Simulation time: 0 hr 3 min 46 sec) 
Heartbeat CPU 0 instructions: 160000000 cycles: 143053328 heartbeat IPC: 0.659866 cumulative IPC: 0.679766 (Simulation time: 0 hr 4 min 5 sec) 
Heartbeat CPU 0 instructions: 170000001 cycles: 157952871 heartbeat IPC: 0.671162 cumulative IPC: 0.678523 (Simulation time: 0 hr 4 min 24 sec) 
Heartbeat CPU 0 instructions: 180000000 cycles: 172922124 heartbeat IPC: 0.668036 cumulative IPC: 0.677194 (Simulation time: 0 hr 4 min 43 sec) 
Heartbeat CPU 0 instructions: 190000002 cycles: 187422908 heartbeat IPC: 0.689618 cumulative IPC: 0.678553 (Simulation time: 0 hr 5 min 2 sec) 
Heartbeat CPU 0 instructions: 200000000 cycles: 201809717 heartbeat IPC: 0.695081 cumulative IPC: 0.68017 (Simulation time: 0 hr 5 min 22 sec) 
Heartbeat CPU 0 instructions: 210000003 cycles: 216455843 heartbeat IPC: 0.682775 cumulative IPC: 0.680406 (Simulation time: 0 hr 5 min 41 sec) 
Heartbeat CPU 0 instructions: 220000000 cycles: 231174799 heartbeat IPC: 0.679396 cumulative IPC: 0.680322 (Simulation time: 0 hr 6 min 0 sec) 
Heartbeat CPU 0 instructions: 230000001 cycles: 246326713 heartbeat IPC: 0.659983 cumulative IPC: 0.678713 (Simulation time: 0 hr 6 min 19 sec) 
Heartbeat CPU 0 instructions: 240000000 cycles: 261280401 heartbeat IPC: 0.668731 cumulative IPC: 0.67799 (Simulation time: 0 hr 6 min 38 sec) 
Heartbeat CPU 0 instructions: 250000003 cycles: 276135048 heartbeat IPC: 0.67319 cumulative IPC: 0.677668 (Simulation time: 0 hr 6 min 57 sec) 
Heartbeat CPU 0 instructions: 260000000 cycles: 291659120 heartbeat IPC: 0.644161 cumulative IPC: 0.675472 (Simulation time: 0 hr 7 min 17 sec) 
Heartbeat CPU 0 instructions: 270000003 cycles: 306273751 heartbeat IPC: 0.684246 cumulative IPC: 0.675982 (Simulation time: 0 hr 7 min 36 sec) 
Heartbeat CPU 0 instructions: 280000000 cycles: 320794286 heartbeat IPC: 0.68868 cumulative IPC: 0.676675 (Simulation time: 0 hr 7 min 55 sec) 
Heartbeat CPU 0 instructions: 290000002 cycles: 335273149 heartbeat IPC: 0.690662 cumulative IPC: 0.677397 (Simulation time: 0 hr 8 min 14 sec) 
Heartbeat CPU 0 instructions: 300000000 cycles: 350707033 heartbeat IPC: 0.647925 cumulative IPC: 0.67586 (Simulation time: 0 hr 8 min 34 sec) 
Heartbeat CPU 0 instructions: 310000000 cycles: 365714371 heartbeat IPC: 0.666341 cumulative IPC: 0.6754 (Simulation time: 0 hr 8 min 53 sec) 
Heartbeat CPU 0 instructions: 320000000 cycles: 380552208 heartbeat IPC: 0.673953 cumulative IPC: 0.675334 (Simulation time: 0 hr 9 min 11 sec) 
Heartbeat CPU 0 instructions: 330000000 cycles: 396375519 heartbeat IPC: 0.631979 cumulative IPC: 0.673326 (Simulation time: 0 hr 9 min 31 sec) 
Heartbeat CPU 0 instructions: 340000000 cycles: 411033600 heartbeat IPC: 0.682218 cumulative IPC: 0.673692 (Simulation time: 0 hr 9 min 50 sec) 
Heartbeat CPU 0 instructions: 350000000 cycles: 425694511 heartbeat IPC: 0.682086 cumulative IPC: 0.674024 (Simulation time: 0 hr 10 min 9 sec) 
Heartbeat CPU 0 instructions: 360000000 cycles: 440380420 heartbeat IPC: 0.680925 cumulative IPC: 0.674286 (Simulation time: 0 hr 10 min 28 sec) 
Heartbeat CPU 0 instructions: 370000002 cycles: 455842703 heartbeat IPC: 0.646735 cumulative IPC: 0.673224 (Simulation time: 0 hr 10 min 47 sec) 
Heartbeat CPU 0 instructions: 380000000 cycles: 470717803 heartbeat IPC: 0.672264 cumulative IPC: 0.67319 (Simulation time: 0 hr 11 min 6 sec) 
Heartbeat CPU 0 instructions: 390000003 cycles: 485701437 heartbeat IPC: 0.667395 cumulative IPC: 0.672988 (Simulation time: 0 hr 11 min 25 sec) 
Heartbeat CPU 0 instructions: 400000000 cycles: 501592986 heartbeat IPC: 0.629265 cumulative IPC: 0.671433 (Simulation time: 0 hr 11 min 45 sec) 
Heartbeat CPU 0 instructions: 410000001 cycles: 516648845 heartbeat IPC: 0.664193 cumulative IPC: 0.671197 (Simulation time: 0 hr 12 min 4 sec) 
Heartbeat CPU 0 instructions: 420000000 cycles: 531413793 heartbeat IPC: 0.67728 cumulative IPC: 0.671386 (Simulation time: 0 hr 12 min 22 sec) 
Heartbeat CPU 0 instructions: 430000000 cycles: 546856623 heartbeat IPC: 0.64755 cumulative IPC: 0.670638 (Simulation time: 0 hr 12 min 41 sec) 
Heartbeat CPU 0 instructions: 440000000 cycles: 561687909 heartbeat IPC: 0.67425 cumulative IPC: 0.670743 (Simulation time: 0 hr 13 min 0 sec) 
Heartbeat CPU 0 instructions: 450000000 cycles: 576692480 heartbeat IPC: 0.666464 cumulative IPC: 0.67062 (Simulation time: 0 hr 13 min 19 sec) 
Heartbeat CPU 0 instructions: 460000000 cycles: 592474368 heartbeat IPC: 0.633638 cumulative IPC: 0.669535 (Simulation time: 0 hr 13 min 38 sec) 
Heartbeat CPU 0 instructions: 470000000 cycles: 607581065 heartbeat IPC: 0.661958 cumulative IPC: 0.669328 (Simulation time: 0 hr 13 min 56 sec) 
Heartbeat CPU 0 instructions: 480000000 cycles: 622475376 heartbeat IPC: 0.671397 cumulative IPC: 0.669382 (Simulation time: 0 hr 14 min 15 sec) 
Heartbeat CPU 0 instructions: 490000002 cycles: 637776198 heartbeat IPC: 0.65356 cumulative IPC: 0.668967 (Simulation time: 0 hr 14 min 34 sec) 
Heartbeat CPU 0 instructions: 500000000 cycles: 652678299 heartbeat IPC: 0.671046 cumulative IPC: 0.669019 (Simulation time: 0 hr 14 min 53 sec) 
Heartbeat CPU 0 instructions: 510000001 cycles: 667812985 heartbeat IPC: 0.660734 cumulative IPC: 0.668814 (Simulation time: 0 hr 15 min 12 sec) 
Heartbeat CPU 0 instructions: 520000000 cycles: 683318037 heartbeat IPC: 0.644951 cumulative IPC: 0.668225 (Simulation time: 0 hr 15 min 31 sec) 
Heartbeat CPU 0 instructions: 530000001 cycles: 698776546 heartbeat IPC: 0.646893 cumulative IPC: 0.667713 (Simulation time: 0 hr 15 min 50 sec) 
Heartbeat CPU 0 instructions: 540000000 cycles: 713391622 heartbeat IPC: 0.684225 cumulative IPC: 0.66808 (Simulation time: 0 hr 16 min 8 sec) 
Heartbeat CPU 0 instructions: 550000001 cycles: 728677778 heartbeat IPC: 0.654187 cumulative IPC: 0.667765 (Simulation time: 0 hr 16 min 27 sec) 
Heartbeat CPU 0 instructions: 560000000 cycles: 743507297 heartbeat IPC: 0.674331 cumulative IPC: 0.667906 (Simulation time: 0 hr 16 min 46 sec) 
Heartbeat CPU 0 instructions: 570000002 cycles: 758688902 heartbeat IPC: 0.658692 cumulative IPC: 0.667707 (Simulation time: 0 hr 17 min 5 sec) 
Heartbeat CPU 0 instructions: 580000000 cycles: 773741319 heartbeat IPC: 0.664345 cumulative IPC: 0.667637 (Simulation time: 0 hr 17 min 23 sec) 
Heartbeat CPU 0 instructions: 590000001 cycles: 788764627 heartbeat IPC: 0.665632 cumulative IPC: 0.667596 (Simulation time: 0 hr 17 min 42 sec) 
Heartbeat CPU 0 instructions: 600000000 cycles: 803445336 heartbeat IPC: 0.681166 cumulative IPC: 0.667862 (Simulation time: 0 hr 18 min 1 sec) 
Finished CPU 0 instructions: 500000000 cycles: 748657703 cumulative IPC: 0.667862 (Simulation time: 0 hr 18 min 1 sec) 

CPU 0 Branch Prediction Accuracy: 93.7783% MPKI: 10.0718
Number of Branches: 80940586 Number of Mispredictions: 5035908
Number of LOAD Instructions: 184238101
Number of LOAD Instructions (ROI): 184238101
Number of STORE Instructions: 33143298
Number of STORE Instructions (ROI): 33143298
Total Destination Memory Operands: 33324321
Total Destination Memory Operands (ROI): 33324321
Total Source Memory Operands: 184238101
Total Source Memory Operands (ROI): 184238101
Number of DEPENDED LOADS: 4461399
Number of DEPENDED LOADS (ROI): 4461399
Number of SQ_ADDED: 33324292
Number of SQ_ADDED (ROI): 33324292
Number of LQ_ADDED: 184867355
Number of LQ_ADDED (ROI): 184867355
Number of Instructions read from trace: 600000256

ChampSim completed all CPUs

Region of Interest Statistics

CPU 0 cumulative IPC: 0.667862 instructions: 500000000 cycles: 748657703
ITLB TOTAL     ACCESS:   77746459  HIT:   77746459  MISS:          0
ITLB LOAD      ACCESS:   77746459  HIT:   77746459  MISS:          0
ITLB RFO       ACCESS:          0  HIT:          0  MISS:          0
ITLB PREFETCH  ACCESS:          0  HIT:          0  MISS:          0
ITLB WRITEBACK ACCESS:          0  HIT:          0  MISS:          0
ITLB PREFETCH  REQUESTED:          0  ISSUED:          0  USEFUL:          0  USELESS:          0
ITLB TOTAL MSHR MERGED:          0
ITLB LOAD MSHR MERGED:          0
ITLB RFO MSHR MERGED:          0
ITLB PREFETCH MSHR MERGED:          0
ITLB WRITEBACK MSHR MERGED:          0
ITLB TOTAL ACCESSES:   77746459 HITS:   77746459 MISSES:          0
ITLB LOAD ACCESSES:   77746459 HITS:   77746459 MISSES:          0
ITLB RFO ACCESSES:          0 HITS:          0 MISSES:          0
ITLB PREFETCH ACCESSES:          0 HITS:          0 MISSES:          0
ITLB WRITEBACK ACCESSES:          0 HITS:          0 MISSES:          0
ITLB RQ ACCESS:  500000245
ITLB RQ TO_CACHE:   77746459
ITLB RQ MERGED:  422253786
ITLB RQ FORWARD:          0
ITLB WQ ACCESS:          0
ITLB WQ TO_CACHE:          0
ITLB WQ MERGED:          0
ITLB WQ FORWARD:          0
DTLB TOTAL     ACCESS:   88437424  HIT:   87300574  MISS:    1136850
DTLB LOAD      ACCESS:   66310829  HIT:   65178219  MISS:    1132610
DTLB RFO       ACCESS:   22126595  HIT:   22122355  MISS:       4240
DTLB PREFETCH  ACCESS:          0  HIT:          0  MISS:          0
DTLB WRITEBACK ACCESS:          0  HIT:          0  MISS:          0
DTLB PREFETCH  REQUESTED:          0  ISSUED:          0  USEFUL:          0  USELESS:          0
DTLB TOTAL MSHR MERGED:     135534
DTLB LOAD MSHR MERGED:     133717
DTLB RFO MSHR MERGED:       1817
DTLB PREFETCH MSHR MERGED:          0
DTLB WRITEBACK MSHR MERGED:          0
DTLB TOTAL ACCESSES:   88572958 HITS:   87300574 MISSES:    1272384
DTLB LOAD ACCESSES:   66444546 HITS:   65178219 MISSES:    1266327
DTLB RFO ACCESSES:   22128412 HITS:   22122355 MISSES:       6057
DTLB PREFETCH ACCESSES:          0 HITS:          0 MISSES:          0
DTLB WRITEBACK ACCESSES:          0 HITS:          0 MISSES:          0
DTLB RQ ACCESS:  177579352
DTLB RQ TO_CACHE:   88572958
DTLB RQ MERGED:   89006394
DTLB RQ FORWARD:          0
DTLB WQ ACCESS:          0
DTLB WQ TO_CACHE:          0
DTLB WQ MERGED:          0
DTLB WQ FORWARD:          0
L1D TOTAL     ACCESS:  142084593  HIT:  136525538  MISS:    5559055
L1D LOAD      ACCESS:   61384983  HIT:   58276941  MISS:    3108042
L1D RFO       ACCESS:   27668257  HIT:   27586454  MISS:      81803
L1D PREFETCH  ACCESS:   53031353  HIT:   50662143  MISS:    2369210
L1D WRITEBACK ACCESS:          0  HIT:          0  MISS:          0
L1D PREFETCH  REQUESTED:   61671707  ISSUED:   60753482  USEFUL:     662326  USELESS:    1706889
L1D TOTAL MSHR MERGED:    1197382
L1D LOAD MSHR MERGED:     389135
L1D RFO MSHR MERGED:     164825
L1D PREFETCH MSHR MERGED:     643422
L1D WRITEBACK MSHR MERGED:          0
L1D TOTAL ACCESSES:  143379587 HITS:  136623150 MISSES:    6756437
L1D LOAD ACCESSES:   61671718 HITS:   58276952 MISSES:    3394766
L1D RFO ACCESSES:   27829287 HITS:   27586454 MISSES:     242833
L1D PREFETCH ACCESSES:   53878582 HITS:   50759744 MISSES:    3118838
L1D WRITEBACK ACCESSES:          0 HITS:          0 MISSES:          0
L1D RQ ACCESS:  149746386
L1D RQ TO_CACHE:   61671707
L1D RQ MERGED:   88074668
L1D RQ FORWARD:          0
L1D WQ ACCESS:   27832966
L1D WQ TO_CACHE:   27829287
L1D WQ MERGED:       3679
L1D WQ FORWARD:      97612
L1I TOTAL     ACCESS:   96223749  HIT:   96064491  MISS:     159258
L1I LOAD      ACCESS:   96223749  HIT:   96064491  MISS:     159258
L1I RFO       ACCESS:          0  HIT:          0  MISS:          0
L1I PREFETCH  ACCESS:          0  HIT:          0  MISS:          0
L1I WRITEBACK ACCESS:          0  HIT:          0  MISS:          0
L1I PREFETCH  REQUESTED:          0  ISSUED:          0  USEFUL:          0  USELESS:          0
L1I TOTAL MSHR MERGED:     130284
L1I LOAD MSHR MERGED:     130284
L1I RFO MSHR MERGED:          0
L1I PREFETCH MSHR MERGED:          0
L1I WRITEBACK MSHR MERGED:          0
L1I TOTAL ACCESSES:   96354033 HITS:   96064491 MISSES:     289542
L1I LOAD ACCESSES:   96354033 HITS:   96064491 MISSES:     289542
L1I RFO ACCESSES:          0 HITS:          0 MISSES:          0
L1I PREFETCH ACCESSES:          0 HITS:          0 MISSES:          0
L1I WRITEBACK ACCESSES:          0 HITS:          0 MISSES:          0
L1I RQ ACCESS:  500000245
L1I RQ TO_CACHE:   96354033
L1I RQ MERGED:  403646212
L1I RQ FORWARD:          0
L1I WQ ACCESS:          0
L1I WQ TO_CACHE:          0
L1I WQ MERGED:          0
L1I WQ FORWARD:          0
L2C TOTAL     ACCESS:    5910935  HIT:    3062271  MISS:    2848664
L2C LOAD      ACCESS:    3164879  HIT:    1583072  MISS:    1581807
L2C RFO       ACCESS:      77931  HIT:      45080  MISS:      32851
L2C PREFETCH  ACCESS:    2524597  HIT:    1296174  MISS:    1228423
L2C WRITEBACK ACCESS:     143528  HIT:     137945  MISS:       5583
L2C PREFETCH  REQUESTED:      52724  ISSUED:      52724  USEFUL:      18732  USELESS:    1209731
L2C TOTAL MSHR MERGED:       2612
L2C LOAD MSHR MERGED:        877
L2C RFO MSHR MERGED:          0
L2C PREFETCH MSHR MERGED:       1735
L2C WRITEBACK MSHR MERGED:          0
L2C TOTAL ACCESSES:    5913639 HITS:    3062358 MISSES:    2851281
L2C LOAD ACCESSES:    3164889 HITS:    1583082 MISSES:    1581807
L2C RFO ACCESSES:      78008 HITS:      45157 MISSES:      32851
L2C PREFETCH ACCESSES:    2527214 HITS:    1296174 MISSES:    1231040
L2C WRITEBACK ACCESSES:     143528 HITS:     137945 MISSES:       5583
L2C RQ ACCESS:    3242897
L2C RQ TO_CACHE:    3242810
L2C RQ MERGED:          0
L2C RQ FORWARD:          0
L2C WQ ACCESS:     143528
L2C WQ TO_CACHE:     143528
L2C WQ MERGED:          0
L2C WQ FORWARD:         87
LLC TOTAL     ACCESS:    2892622  HIT:    1799712  MISS:    1092910
LLC LOAD      ACCESS:    1580930  HIT:    1123346  MISS:     457584
LLC RFO       ACCESS:      32842  HIT:      31888  MISS:        954
LLC PREFETCH  ACCESS:    1229305  HIT:     596758  MISS:     632547
LLC WRITEBACK ACCESS:      49545  HIT:      47720  MISS:       1825
LLC PREFETCH  REQUESTED:          0  ISSUED:          0  USEFUL:       3067  USELESS:     629505
LLC TOTAL MSHR MERGED:          0
LLC LOAD MSHR MERGED:          0
LLC RFO MSHR MERGED:          0
LLC PREFETCH MSHR MERGED:          0
LLC WRITEBACK MSHR MERGED:          0
LLC TOTAL ACCESSES:    2892631 HITS:    1799721 MISSES:    1092910
LLC LOAD ACCESSES:    1580930 HITS:    1123346 MISSES:     457584
LLC RFO ACCESSES:      32851 HITS:      31897 MISSES:        954
LLC PREFETCH ACCESSES:    1229305 HITS:     596758 MISSES:     632547
LLC WRITEBACK ACCESSES:      49545 HITS:      47720 MISSES:       1825
LLC 0 RQ ACCESS:    1613781
LLC 0 RQ TO_CACHE:    1613772
LLC 0 RQ MERGED:          0
LLC 0 RQ FORWARD:          0
LLC WQ ACCESS:      49545
LLC WQ TO_CACHE:      49545
LLC WQ MERGED:          0
LLC WQ FORWARD:          9
Major fault: 0 Minor fault: 8460
CPU 0 L1D next line prefetcher final stats
CPU 0 L2C PC-based stride prefetcher final stats
All Misses: 1326989
All Hits: 2102229
SD Algo Stats - Switches: 0 SRR-Repls: 530011 BRR-Repls: 0

DRAM Statistics
 CHANNEL 0
 RQ ROW_BUFFER_HIT:     370239  ROW_BUFFER_MISS:     719902
 DBUS_CONGESTED:     334270
 WQ ROW_BUFFER_HIT:        445  ROW_BUFFER_MISS:       1751  FULL:          0

 AVG_CONGESTED_CYCLE: 12
LOADS RETIRED: 153532848
INSTR RETIRED: 500000000
