
*** ChampSim Multicore Out-of-Order Simulator ***

Warmup Instructions: 100000000
Simulation Instructions: 500000000
Number of CPUs: 1
LLC sets: 2048
LLC ways: 16
Clean RRIP Policies: 2213230222132302 Dirty RRIP Policies: 1203130212031302 PSEL Width: 10 Track Set: 4294967295 PSEL Mask: 1 Demote Mask: 40100000401000DS Algo: 0Window size: 0
Off-chip DRAM Size: 4096 MB Channels: 1 Width: 64-bit Data Rate: 1600 MT/s

CPU 0 runs /mnt/beegfs/iconst01/spec2017/Roms.trace.gz
NOT SORTED
TRACE STRING: /mnt/beegfs/iconst01/spec2017/Roms.trace.gz
SORTED
TRACE STRING: /mnt/beegfs/iconst01/spec2017/Roms.trace.gz
INITIAL
TRACE STRING: /mnt/beegfs/iconst01/spec2017/Roms.trace.gz

champsim_seed used: 417

CPU 0 L1D next line prefetcher
CPU 0 L2C IP-based stride prefetcher
Initialize DRRIP state
Assign rand_sets[0]: 454  LLC: 2048
rand_sets[0]: 454
Assign rand_sets[1]: 1662  LLC: 2048
rand_sets[1]: 1662
Assign rand_sets[2]: 1921  LLC: 2048
rand_sets[2]: 1921
Assign rand_sets[3]: 1131  LLC: 2048
rand_sets[3]: 1131
Assign rand_sets[4]: 331  LLC: 2048
rand_sets[4]: 331
Assign rand_sets[5]: 1531  LLC: 2048
rand_sets[5]: 1531
Assign rand_sets[6]: 482  LLC: 2048
rand_sets[6]: 482
Assign rand_sets[7]: 1275  LLC: 2048
rand_sets[7]: 1275
Assign rand_sets[8]: 1876  LLC: 2048
rand_sets[8]: 1876
Assign rand_sets[9]: 2038  LLC: 2048
rand_sets[9]: 2038
Assign rand_sets[10]: 701  LLC: 2048
rand_sets[10]: 701
Assign rand_sets[11]: 479  LLC: 2048
rand_sets[11]: 479
Assign rand_sets[12]: 892  LLC: 2048
rand_sets[12]: 892
Assign rand_sets[13]: 1820  LLC: 2048
rand_sets[13]: 1820
Assign rand_sets[14]: 1505  LLC: 2048
rand_sets[14]: 1505
Assign rand_sets[15]: 1159  LLC: 2048
rand_sets[15]: 1159
Assign rand_sets[16]: 513  LLC: 2048
rand_sets[16]: 513
Assign rand_sets[17]: 703  LLC: 2048
rand_sets[17]: 703
Assign rand_sets[18]: 561  LLC: 2048
rand_sets[18]: 561
Assign rand_sets[19]: 990  LLC: 2048
rand_sets[19]: 990
Assign rand_sets[20]: 342  LLC: 2048
rand_sets[20]: 342
Assign rand_sets[21]: 882  LLC: 2048
rand_sets[21]: 882
Assign rand_sets[22]: 15  LLC: 2048
rand_sets[22]: 15
Assign rand_sets[23]: 71  LLC: 2048
rand_sets[23]: 71
Assign rand_sets[24]: 1127  LLC: 2048
rand_sets[24]: 1127
Assign rand_sets[25]: 1382  LLC: 2048
rand_sets[25]: 1382
Assign rand_sets[26]: 647  LLC: 2048
rand_sets[26]: 647
Assign rand_sets[27]: 857  LLC: 2048
rand_sets[27]: 857
Assign rand_sets[28]: 1450  LLC: 2048
rand_sets[28]: 1450
Assign rand_sets[29]: 1160  LLC: 2048
rand_sets[29]: 1160
Assign rand_sets[30]: 1852  LLC: 2048
rand_sets[30]: 1852
Assign rand_sets[31]: 1881  LLC: 2048
rand_sets[31]: 1881
Assign rand_sets[32]: 1770  LLC: 2048
rand_sets[32]: 1770
Assign rand_sets[33]: 1622  LLC: 2048
rand_sets[33]: 1622
Assign rand_sets[34]: 275  LLC: 2048
rand_sets[34]: 275
Assign rand_sets[35]: 635  LLC: 2048
rand_sets[35]: 635
Assign rand_sets[36]: 466  LLC: 2048
rand_sets[36]: 466
Assign rand_sets[37]: 1413  LLC: 2048
rand_sets[37]: 1413
Assign rand_sets[38]: 417  LLC: 2048
rand_sets[38]: 417
Assign rand_sets[39]: 472  LLC: 2048
rand_sets[39]: 472
Assign rand_sets[40]: 1340  LLC: 2048
rand_sets[40]: 1340
Assign rand_sets[41]: 852  LLC: 2048
rand_sets[41]: 852
Assign rand_sets[42]: 1365  LLC: 2048
rand_sets[42]: 1365
Assign rand_sets[43]: 47  LLC: 2048
rand_sets[43]: 47
Assign rand_sets[44]: 823  LLC: 2048
rand_sets[44]: 823
Assign rand_sets[45]: 686  LLC: 2048
rand_sets[45]: 686
Assign rand_sets[46]: 1637  LLC: 2048
rand_sets[46]: 1637
Assign rand_sets[47]: 1115  LLC: 2048
rand_sets[47]: 1115
Assign rand_sets[48]: 986  LLC: 2048
rand_sets[48]: 986
Assign rand_sets[49]: 258  LLC: 2048
rand_sets[49]: 258
Assign rand_sets[50]: 633  LLC: 2048
rand_sets[50]: 633
Assign rand_sets[51]: 920  LLC: 2048
rand_sets[51]: 920
Assign rand_sets[52]: 204  LLC: 2048
rand_sets[52]: 204
Assign rand_sets[53]: 227  LLC: 2048
rand_sets[53]: 227
Assign rand_sets[54]: 1818  LLC: 2048
rand_sets[54]: 1818
Assign rand_sets[55]: 886  LLC: 2048
rand_sets[55]: 886
Assign rand_sets[56]: 1422  LLC: 2048
rand_sets[56]: 1422
Assign rand_sets[57]: 607  LLC: 2048
rand_sets[57]: 607
Assign rand_sets[58]: 217  LLC: 2048
rand_sets[58]: 217
Assign rand_sets[59]: 1945  LLC: 2048
rand_sets[59]: 1945
Assign rand_sets[60]: 143  LLC: 2048
rand_sets[60]: 143
Assign rand_sets[61]: 1311  LLC: 2048
rand_sets[61]: 1311
Assign rand_sets[62]: 319  LLC: 2048
rand_sets[62]: 319
Assign rand_sets[63]: 1846  LLC: 2048
rand_sets[63]: 1846
 CLEAN-RRIP-POLICY-1: 2-2-1-3-2-3-0-2- CLEAN-RRIP-POLICY-2: 2-2-1-3-2-3-0-2-
 DIRTY-RRIP-POLICY-1: 1-2-0-3-1-3-0-2- DIRTY-RRIP-POLICY-2: 1-2-0-3-1-3-0-2-
 PSEL width: 10
Heartbeat CPU 0 instructions: 10000000 cycles: 4688066 heartbeat IPC: 2.13308 cumulative IPC: 2.13308 (Simulation time: 0 hr 0 min 18 sec) 
Heartbeat CPU 0 instructions: 20000000 cycles: 9325334 heartbeat IPC: 2.15644 cumulative IPC: 2.1447 (Simulation time: 0 hr 0 min 35 sec) 
Heartbeat CPU 0 instructions: 30000003 cycles: 14019722 heartbeat IPC: 2.1302 cumulative IPC: 2.13984 (Simulation time: 0 hr 0 min 52 sec) 
Heartbeat CPU 0 instructions: 40000000 cycles: 18670140 heartbeat IPC: 2.15034 cumulative IPC: 2.14246 (Simulation time: 0 hr 1 min 9 sec) 
Heartbeat CPU 0 instructions: 50000003 cycles: 23323497 heartbeat IPC: 2.14899 cumulative IPC: 2.14376 (Simulation time: 0 hr 1 min 26 sec) 
Heartbeat CPU 0 instructions: 60000000 cycles: 27976128 heartbeat IPC: 2.14932 cumulative IPC: 2.14469 (Simulation time: 0 hr 1 min 43 sec) 
Heartbeat CPU 0 instructions: 70000002 cycles: 32367263 heartbeat IPC: 2.27732 cumulative IPC: 2.16268 (Simulation time: 0 hr 1 min 58 sec) 
Heartbeat CPU 0 instructions: 80000000 cycles: 36304042 heartbeat IPC: 2.54015 cumulative IPC: 2.20361 (Simulation time: 0 hr 2 min 10 sec) 
Heartbeat CPU 0 instructions: 90000000 cycles: 40249280 heartbeat IPC: 2.5347 cumulative IPC: 2.23606 (Simulation time: 0 hr 2 min 22 sec) 
Heartbeat CPU 0 instructions: 100000000 cycles: 44211551 heartbeat IPC: 2.52381 cumulative IPC: 2.26185 (Simulation time: 0 hr 2 min 34 sec) 

Warmup complete CPU 0 instructions: 100000002 cycles: 44211552 (Simulation time: 0 hr 2 min 34 sec) 

Heartbeat CPU 0 instructions: 110000000 cycles: 52784612 heartbeat IPC: 1.16644 cumulative IPC: 1.16644 (Simulation time: 0 hr 2 min 52 sec) 
Heartbeat CPU 0 instructions: 120000000 cycles: 61403121 heartbeat IPC: 1.16029 cumulative IPC: 1.16336 (Simulation time: 0 hr 3 min 11 sec) 
Heartbeat CPU 0 instructions: 130000002 cycles: 70075433 heartbeat IPC: 1.1531 cumulative IPC: 1.15992 (Simulation time: 0 hr 3 min 30 sec) 
Heartbeat CPU 0 instructions: 140000000 cycles: 78624782 heartbeat IPC: 1.16968 cumulative IPC: 1.16234 (Simulation time: 0 hr 3 min 49 sec) 
Heartbeat CPU 0 instructions: 150000003 cycles: 87318982 heartbeat IPC: 1.15019 cumulative IPC: 1.15989 (Simulation time: 0 hr 4 min 8 sec) 
Heartbeat CPU 0 instructions: 160000000 cycles: 97578283 heartbeat IPC: 0.974725 cumulative IPC: 1.1243 (Simulation time: 0 hr 4 min 28 sec) 
Heartbeat CPU 0 instructions: 170000000 cycles: 110031922 heartbeat IPC: 0.802978 cumulative IPC: 1.0635 (Simulation time: 0 hr 4 min 52 sec) 
Heartbeat CPU 0 instructions: 180000000 cycles: 122507190 heartbeat IPC: 0.801586 cumulative IPC: 1.02177 (Simulation time: 0 hr 5 min 16 sec) 
Heartbeat CPU 0 instructions: 190000000 cycles: 135238149 heartbeat IPC: 0.785487 cumulative IPC: 0.988722 (Simulation time: 0 hr 5 min 40 sec) 
Heartbeat CPU 0 instructions: 200000000 cycles: 149090089 heartbeat IPC: 0.721921 cumulative IPC: 0.953484 (Simulation time: 0 hr 6 min 4 sec) 
Heartbeat CPU 0 instructions: 210000001 cycles: 162985211 heartbeat IPC: 0.719677 cumulative IPC: 0.926131 (Simulation time: 0 hr 6 min 27 sec) 
Heartbeat CPU 0 instructions: 220000000 cycles: 176700076 heartbeat IPC: 0.729136 cumulative IPC: 0.905739 (Simulation time: 0 hr 6 min 52 sec) 
Heartbeat CPU 0 instructions: 230000000 cycles: 190222884 heartbeat IPC: 0.739491 cumulative IPC: 0.890342 (Simulation time: 0 hr 7 min 16 sec) 
Heartbeat CPU 0 instructions: 240000000 cycles: 203829145 heartbeat IPC: 0.734956 cumulative IPC: 0.877096 (Simulation time: 0 hr 7 min 41 sec) 
Heartbeat CPU 0 instructions: 250000003 cycles: 214892116 heartbeat IPC: 0.903917 cumulative IPC: 0.878835 (Simulation time: 0 hr 8 min 4 sec) 
Heartbeat CPU 0 instructions: 260000000 cycles: 222737003 heartbeat IPC: 1.27472 cumulative IPC: 0.896231 (Simulation time: 0 hr 8 min 24 sec) 
Heartbeat CPU 0 instructions: 270000003 cycles: 231016356 heartbeat IPC: 1.20782 cumulative IPC: 0.910041 (Simulation time: 0 hr 8 min 44 sec) 
Heartbeat CPU 0 instructions: 280000000 cycles: 239446744 heartbeat IPC: 1.18618 cumulative IPC: 0.921965 (Simulation time: 0 hr 9 min 4 sec) 
Heartbeat CPU 0 instructions: 290000000 cycles: 248041576 heartbeat IPC: 1.16349 cumulative IPC: 0.932149 (Simulation time: 0 hr 9 min 25 sec) 
Heartbeat CPU 0 instructions: 300000000 cycles: 256659156 heartbeat IPC: 1.16042 cumulative IPC: 0.941409 (Simulation time: 0 hr 9 min 45 sec) 
Heartbeat CPU 0 instructions: 310000000 cycles: 265340524 heartbeat IPC: 1.15189 cumulative IPC: 0.949672 (Simulation time: 0 hr 10 min 7 sec) 
Heartbeat CPU 0 instructions: 320000000 cycles: 274071284 heartbeat IPC: 1.14538 cumulative IPC: 0.957105 (Simulation time: 0 hr 10 min 28 sec) 
Heartbeat CPU 0 instructions: 330000002 cycles: 282762127 heartbeat IPC: 1.15064 cumulative IPC: 0.964156 (Simulation time: 0 hr 10 min 50 sec) 
Heartbeat CPU 0 instructions: 340000000 cycles: 292684757 heartbeat IPC: 1.0078 cumulative IPC: 0.965899 (Simulation time: 0 hr 11 min 12 sec) 
Heartbeat CPU 0 instructions: 350000001 cycles: 301030948 heartbeat IPC: 1.19815 cumulative IPC: 0.973447 (Simulation time: 0 hr 11 min 33 sec) 
Heartbeat CPU 0 instructions: 360000000 cycles: 309426116 heartbeat IPC: 1.19116 cumulative IPC: 0.980338 (Simulation time: 0 hr 11 min 54 sec) 
Heartbeat CPU 0 instructions: 370000001 cycles: 317815209 heartbeat IPC: 1.19202 cumulative IPC: 0.986829 (Simulation time: 0 hr 12 min 14 sec) 
Heartbeat CPU 0 instructions: 380000000 cycles: 326178346 heartbeat IPC: 1.19572 cumulative IPC: 0.993025 (Simulation time: 0 hr 12 min 35 sec) 
Heartbeat CPU 0 instructions: 390000001 cycles: 334363882 heartbeat IPC: 1.22167 cumulative IPC: 0.999475 (Simulation time: 0 hr 12 min 55 sec) 
Heartbeat CPU 0 instructions: 400000000 cycles: 342635068 heartbeat IPC: 1.20902 cumulative IPC: 1.00528 (Simulation time: 0 hr 13 min 15 sec) 
Heartbeat CPU 0 instructions: 410000003 cycles: 350831610 heartbeat IPC: 1.22003 cumulative IPC: 1.01102 (Simulation time: 0 hr 13 min 36 sec) 
Heartbeat CPU 0 instructions: 420000000 cycles: 359112812 heartbeat IPC: 1.20755 cumulative IPC: 1.01619 (Simulation time: 0 hr 13 min 56 sec) 
Heartbeat CPU 0 instructions: 430000001 cycles: 367315840 heartbeat IPC: 1.21906 cumulative IPC: 1.02134 (Simulation time: 0 hr 14 min 16 sec) 
Heartbeat CPU 0 instructions: 440000000 cycles: 375480510 heartbeat IPC: 1.22479 cumulative IPC: 1.02636 (Simulation time: 0 hr 14 min 37 sec) 
Heartbeat CPU 0 instructions: 450000001 cycles: 384890367 heartbeat IPC: 1.06272 cumulative IPC: 1.02736 (Simulation time: 0 hr 14 min 59 sec) 
Heartbeat CPU 0 instructions: 460000000 cycles: 393099742 heartbeat IPC: 1.21812 cumulative IPC: 1.03185 (Simulation time: 0 hr 15 min 19 sec) 
Heartbeat CPU 0 instructions: 470000003 cycles: 401176054 heartbeat IPC: 1.23819 cumulative IPC: 1.03652 (Simulation time: 0 hr 15 min 39 sec) 
Heartbeat CPU 0 instructions: 480000000 cycles: 409287718 heartbeat IPC: 1.23279 cumulative IPC: 1.04088 (Simulation time: 0 hr 15 min 59 sec) 
Heartbeat CPU 0 instructions: 490000000 cycles: 417380154 heartbeat IPC: 1.23572 cumulative IPC: 1.0451 (Simulation time: 0 hr 16 min 20 sec) 
Heartbeat CPU 0 instructions: 500000000 cycles: 425480169 heartbeat IPC: 1.23457 cumulative IPC: 1.04913 (Simulation time: 0 hr 16 min 40 sec) 
Heartbeat CPU 0 instructions: 510000001 cycles: 433532124 heartbeat IPC: 1.24193 cumulative IPC: 1.05312 (Simulation time: 0 hr 17 min 0 sec) 
Heartbeat CPU 0 instructions: 520000000 cycles: 441626392 heartbeat IPC: 1.23544 cumulative IPC: 1.05683 (Simulation time: 0 hr 17 min 20 sec) 
Heartbeat CPU 0 instructions: 530000001 cycles: 449717974 heartbeat IPC: 1.23585 cumulative IPC: 1.0604 (Simulation time: 0 hr 17 min 40 sec) 
Heartbeat CPU 0 instructions: 540000000 cycles: 457976581 heartbeat IPC: 1.21086 cumulative IPC: 1.06341 (Simulation time: 0 hr 18 min 0 sec) 
Heartbeat CPU 0 instructions: 550000000 cycles: 466303960 heartbeat IPC: 1.20086 cumulative IPC: 1.06612 (Simulation time: 0 hr 18 min 21 sec) 
Heartbeat CPU 0 instructions: 560000000 cycles: 474393805 heartbeat IPC: 1.23612 cumulative IPC: 1.06931 (Simulation time: 0 hr 18 min 41 sec) 
Heartbeat CPU 0 instructions: 570000001 cycles: 485456544 heartbeat IPC: 0.903935 cumulative IPC: 1.06517 (Simulation time: 0 hr 19 min 3 sec) 
Heartbeat CPU 0 instructions: 580000000 cycles: 496236637 heartbeat IPC: 0.927636 cumulative IPC: 1.06189 (Simulation time: 0 hr 19 min 25 sec) 
Heartbeat CPU 0 instructions: 590000001 cycles: 507269615 heartbeat IPC: 0.906374 cumulative IPC: 1.05818 (Simulation time: 0 hr 19 min 47 sec) 
Heartbeat CPU 0 instructions: 600000000 cycles: 518030321 heartbeat IPC: 0.929307 cumulative IPC: 1.05526 (Simulation time: 0 hr 20 min 9 sec) 
Finished CPU 0 instructions: 500000001 cycles: 473818782 cumulative IPC: 1.05526 (Simulation time: 0 hr 20 min 9 sec) 

CPU 0 Branch Prediction Accuracy: 99.7422% MPKI: 0.173296
Number of Branches: 33608403 Number of Mispredictions: 86648
Number of LOAD Instructions: 180215231
Number of LOAD Instructions (ROI): 180215231
Number of STORE Instructions: 36067263
Number of STORE Instructions (ROI): 36067263
Total Destination Memory Operands: 38428915
Total Destination Memory Operands (ROI): 38428915
Total Source Memory Operands: 180215231
Total Source Memory Operands (ROI): 180215231
Number of DEPENDED LOADS: 3041364
Number of DEPENDED LOADS (ROI): 3041364
Number of SQ_ADDED: 38428892
Number of SQ_ADDED (ROI): 38428892
Number of LQ_ADDED: 207560632
Number of LQ_ADDED (ROI): 207560632
Number of Instructions read from trace: 600000257

ChampSim completed all CPUs

Region of Interest Statistics

CPU 0 cumulative IPC: 1.05526 instructions: 500000001 cycles: 473818782
ITLB TOTAL     ACCESS:   91783371  HIT:   91783352  MISS:         19
ITLB LOAD      ACCESS:   91783371  HIT:   91783352  MISS:         19
ITLB RFO       ACCESS:          0  HIT:          0  MISS:          0
ITLB PREFETCH  ACCESS:          0  HIT:          0  MISS:          0
ITLB WRITEBACK ACCESS:          0  HIT:          0  MISS:          0
ITLB PREFETCH  REQUESTED:          0  ISSUED:          0  USEFUL:          0  USELESS:          0
ITLB TOTAL MSHR MERGED:         40
ITLB LOAD MSHR MERGED:         40
ITLB RFO MSHR MERGED:          0
ITLB PREFETCH MSHR MERGED:          0
ITLB WRITEBACK MSHR MERGED:          0
ITLB TOTAL ACCESSES:   91783411 HITS:   91783352 MISSES:         59
ITLB LOAD ACCESSES:   91783411 HITS:   91783352 MISSES:         59
ITLB RFO ACCESSES:          0 HITS:          0 MISSES:          0
ITLB PREFETCH ACCESSES:          0 HITS:          0 MISSES:          0
ITLB WRITEBACK ACCESSES:          0 HITS:          0 MISSES:          0
ITLB RQ ACCESS:  500000003
ITLB RQ TO_CACHE:   91783411
ITLB RQ MERGED:  408216592
ITLB RQ FORWARD:          0
ITLB WQ ACCESS:          0
ITLB WQ TO_CACHE:          0
ITLB WQ MERGED:          0
ITLB WQ FORWARD:          0
DTLB TOTAL     ACCESS:  142064180  HIT:  141697718  MISS:     366462
DTLB LOAD      ACCESS:  119423031  HIT:  119109445  MISS:     313586
DTLB RFO       ACCESS:   22641149  HIT:   22588273  MISS:      52876
DTLB PREFETCH  ACCESS:          0  HIT:          0  MISS:          0
DTLB WRITEBACK ACCESS:          0  HIT:          0  MISS:          0
DTLB PREFETCH  REQUESTED:          0  ISSUED:          0  USEFUL:          0  USELESS:          0
DTLB TOTAL MSHR MERGED:     288670
DTLB LOAD MSHR MERGED:     240733
DTLB RFO MSHR MERGED:      47937
DTLB PREFETCH MSHR MERGED:          0
DTLB WRITEBACK MSHR MERGED:          0
DTLB TOTAL ACCESSES:  142352850 HITS:  141697718 MISSES:     655132
DTLB LOAD ACCESSES:  119663764 HITS:  119109445 MISSES:     554319
DTLB RFO ACCESSES:   22689086 HITS:   22588273 MISSES:     100813
DTLB PREFETCH ACCESSES:          0 HITS:          0 MISSES:          0
DTLB WRITEBACK ACCESSES:          0 HITS:          0 MISSES:          0
DTLB RQ ACCESS:  184791613
DTLB RQ TO_CACHE:  142352850
DTLB RQ MERGED:   42438763
DTLB RQ FORWARD:          0
DTLB WQ ACCESS:          0
DTLB WQ TO_CACHE:          0
DTLB WQ MERGED:          0
DTLB WQ FORWARD:          0
L1D TOTAL     ACCESS:  190447643  HIT:  176995682  MISS:   13451961
L1D LOAD      ACCESS:  111978932  HIT:  108741303  MISS:    3237629
L1D RFO       ACCESS:   19116626  HIT:   16334881  MISS:    2781745
L1D PREFETCH  ACCESS:   59352085  HIT:   51919498  MISS:    7432587
L1D WRITEBACK ACCESS:          0  HIT:          0  MISS:          0
L1D PREFETCH  REQUESTED:  116516406  ISSUED:  115155744  USEFUL:    7222855  USELESS:     209732
L1D TOTAL MSHR MERGED:   31200875
L1D LOAD MSHR MERGED:    7218830
L1D RFO MSHR MERGED:    9136153
L1D PREFETCH MSHR MERGED:   14845892
L1D WRITEBACK MSHR MERGED:          0
L1D TOTAL ACCESSES:  221648935 HITS:  176996098 MISSES:   44652837
L1D LOAD ACCESSES:  116516428 HITS:  108741325 MISSES:    7775103
L1D RFO ACCESSES:   28252729 HITS:   16334881 MISSES:   11917848
L1D PREFETCH ACCESSES:   76879778 HITS:   51919892 MISSES:   24959886
L1D WRITEBACK ACCESSES:          0 HITS:          0 MISSES:          0
L1D RQ ACCESS:  156535547
L1D RQ TO_CACHE:  116516409
L1D RQ MERGED:   40019116
L1D RQ FORWARD:          0
L1D WQ ACCESS:   28256066
L1D WQ TO_CACHE:   28252729
L1D WQ MERGED:       3337
L1D WQ FORWARD:        416
L1I TOTAL     ACCESS:  115772887  HIT:  115771939  MISS:        948
L1I LOAD      ACCESS:  115772887  HIT:  115771939  MISS:        948
L1I RFO       ACCESS:          0  HIT:          0  MISS:          0
L1I PREFETCH  ACCESS:          0  HIT:          0  MISS:          0
L1I WRITEBACK ACCESS:          0  HIT:          0  MISS:          0
L1I PREFETCH  REQUESTED:          0  ISSUED:          0  USEFUL:          0  USELESS:          0
L1I TOTAL MSHR MERGED:       1599
L1I LOAD MSHR MERGED:       1599
L1I RFO MSHR MERGED:          0
L1I PREFETCH MSHR MERGED:          0
L1I WRITEBACK MSHR MERGED:          0
L1I TOTAL ACCESSES:  115774486 HITS:  115771939 MISSES:       2547
L1I LOAD ACCESSES:  115774486 HITS:  115771939 MISSES:       2547
L1I RFO ACCESSES:          0 HITS:          0 MISSES:          0
L1I PREFETCH ACCESSES:          0 HITS:          0 MISSES:          0
L1I WRITEBACK ACCESSES:          0 HITS:          0 MISSES:          0
L1I RQ ACCESS:  500000007
L1I RQ TO_CACHE:  115774486
L1I RQ MERGED:  384225521
L1I RQ FORWARD:          0
L1I WQ ACCESS:          0
L1I WQ TO_CACHE:          0
L1I WQ MERGED:          0
L1I WQ FORWARD:          0
L2C TOTAL     ACCESS:   16697833  HIT:    4853105  MISS:   11844728
L2C LOAD      ACCESS:     557190  HIT:      95607  MISS:     461583
L2C RFO       ACCESS:    2781695  HIT:     266665  MISS:    2515030
L2C PREFETCH  ACCESS:   10138296  HIT:    1272460  MISS:    8865836
L2C WRITEBACK ACCESS:    3220652  HIT:    3218373  MISS:       2279
L2C PREFETCH  REQUESTED:      26303  ISSUED:      26303  USEFUL:      92990  USELESS:    8770895
L2C TOTAL MSHR MERGED:        498
L2C LOAD MSHR MERGED:          5
L2C RFO MSHR MERGED:          0
L2C PREFETCH MSHR MERGED:        493
L2C WRITEBACK MSHR MERGED:          0
L2C TOTAL ACCESSES:   16698455 HITS:    4853159 MISSES:   11845296
L2C LOAD ACCESSES:     557221 HITS:      95638 MISSES:     461583
L2C RFO ACCESSES:    2781695 HITS:     266665 MISSES:    2515030
L2C PREFETCH ACCESSES:   10138887 HITS:    1272483 MISSES:    8866404
L2C WRITEBACK ACCESSES:    3220652 HITS:    3218373 MISSES:       2279
L2C RQ ACCESS:    3338916
L2C RQ TO_CACHE:    3338885
L2C RQ MERGED:          0
L2C RQ FORWARD:          0
L2C WQ ACCESS:    3220652
L2C WQ TO_CACHE:    3220652
L2C WQ MERGED:          0
L2C WQ FORWARD:         54
LLC TOTAL     ACCESS:   14742700  HIT:    7717265  MISS:    7025435
LLC LOAD      ACCESS:     461575  HIT:     235545  MISS:     226030
LLC RFO       ACCESS:    2515011  HIT:    1914088  MISS:     600923
LLC PREFETCH  ACCESS:    8865853  HIT:    3338718  MISS:    5527135
LLC WRITEBACK ACCESS:    2900261  HIT:    2228914  MISS:     671347
LLC PREFETCH  REQUESTED:          0  ISSUED:          0  USEFUL:       3195  USELESS:    5530471
LLC TOTAL MSHR MERGED:          3
LLC LOAD MSHR MERGED:          0
LLC RFO MSHR MERGED:          0
LLC PREFETCH MSHR MERGED:          3
LLC WRITEBACK MSHR MERGED:          0
LLC TOTAL ACCESSES:   14742774 HITS:    7717335 MISSES:    7025439
LLC LOAD ACCESSES:     461578 HITS:     235548 MISSES:     226030
LLC RFO ACCESSES:    2515030 HITS:    1914107 MISSES:     600923
LLC PREFETCH ACCESSES:    8865905 HITS:    3338766 MISSES:    5527139
LLC WRITEBACK ACCESSES:    2900261 HITS:    2228914 MISSES:     671347
LLC 0 RQ ACCESS:    2976608
LLC 0 RQ TO_CACHE:    2976586
LLC 0 RQ MERGED:          0
LLC 0 RQ FORWARD:          0
LLC WQ ACCESS:    2900261
LLC WQ TO_CACHE:    2900261
LLC WQ MERGED:          0
LLC WQ FORWARD:         70
Major fault: 0 Minor fault: 57518
CPU 0 L1D next line prefetcher final stats
CPU 0 L2C PC-based stride prefetcher final stats
All Misses: 7618537
All Hits: 8620344
SD Algo Stats - Switches: 0 SRR-Repls: 232404 BRR-Repls: 0

DRAM Statistics
 CHANNEL 0
 RQ ROW_BUFFER_HIT:    3656295  ROW_BUFFER_MISS:    2695362
 DBUS_CONGESTED:    2857433
 WQ ROW_BUFFER_HIT:      89422  ROW_BUFFER_MISS:     778470  FULL:          0

 AVG_CONGESTED_CYCLE: 12
LOADS RETIRED: 157818985
INSTR RETIRED: 500000000
