
*** ChampSim Multicore Out-of-Order Simulator ***

Warmup Instructions: 100000000
Simulation Instructions: 500000000
Number of CPUs: 1
LLC sets: 2048
LLC ways: 16
Clean RRIP Policies: 1213030112130301 Dirty RRIP Policies: 2213130122131301 PSEL Width: 10 Track Set: 4294967295 PSEL Mask: 1 Demote Mask: 3040241030402410DS Algo: 0Window size: 0
Off-chip DRAM Size: 4096 MB Channels: 1 Width: 64-bit Data Rate: 1600 MT/s

CPU 0 runs /mnt/beegfs/iconst01/spec2017/Blender.trace.gz
NOT SORTED
TRACE STRING: /mnt/beegfs/iconst01/spec2017/Blender.trace.gz
SORTED
TRACE STRING: /mnt/beegfs/iconst01/spec2017/Blender.trace.gz
INITIAL
TRACE STRING: /mnt/beegfs/iconst01/spec2017/Blender.trace.gz

champsim_seed used: 700

CPU 0 L1D next line prefetcher
CPU 0 L2C IP-based stride prefetcher
Initialize DRRIP state
Assign rand_sets[0]: 454  LLC: 2048
rand_sets[0]: 454
Assign rand_sets[1]: 1662  LLC: 2048
rand_sets[1]: 1662
Assign rand_sets[2]: 1921  LLC: 2048
rand_sets[2]: 1921
Assign rand_sets[3]: 1131  LLC: 2048
rand_sets[3]: 1131
Assign rand_sets[4]: 331  LLC: 2048
rand_sets[4]: 331
Assign rand_sets[5]: 1531  LLC: 2048
rand_sets[5]: 1531
Assign rand_sets[6]: 482  LLC: 2048
rand_sets[6]: 482
Assign rand_sets[7]: 1275  LLC: 2048
rand_sets[7]: 1275
Assign rand_sets[8]: 1876  LLC: 2048
rand_sets[8]: 1876
Assign rand_sets[9]: 2038  LLC: 2048
rand_sets[9]: 2038
Assign rand_sets[10]: 701  LLC: 2048
rand_sets[10]: 701
Assign rand_sets[11]: 479  LLC: 2048
rand_sets[11]: 479
Assign rand_sets[12]: 892  LLC: 2048
rand_sets[12]: 892
Assign rand_sets[13]: 1820  LLC: 2048
rand_sets[13]: 1820
Assign rand_sets[14]: 1505  LLC: 2048
rand_sets[14]: 1505
Assign rand_sets[15]: 1159  LLC: 2048
rand_sets[15]: 1159
Assign rand_sets[16]: 513  LLC: 2048
rand_sets[16]: 513
Assign rand_sets[17]: 703  LLC: 2048
rand_sets[17]: 703
Assign rand_sets[18]: 561  LLC: 2048
rand_sets[18]: 561
Assign rand_sets[19]: 990  LLC: 2048
rand_sets[19]: 990
Assign rand_sets[20]: 342  LLC: 2048
rand_sets[20]: 342
Assign rand_sets[21]: 882  LLC: 2048
rand_sets[21]: 882
Assign rand_sets[22]: 15  LLC: 2048
rand_sets[22]: 15
Assign rand_sets[23]: 71  LLC: 2048
rand_sets[23]: 71
Assign rand_sets[24]: 1127  LLC: 2048
rand_sets[24]: 1127
Assign rand_sets[25]: 1382  LLC: 2048
rand_sets[25]: 1382
Assign rand_sets[26]: 647  LLC: 2048
rand_sets[26]: 647
Assign rand_sets[27]: 857  LLC: 2048
rand_sets[27]: 857
Assign rand_sets[28]: 1450  LLC: 2048
rand_sets[28]: 1450
Assign rand_sets[29]: 1160  LLC: 2048
rand_sets[29]: 1160
Assign rand_sets[30]: 1852  LLC: 2048
rand_sets[30]: 1852
Assign rand_sets[31]: 1881  LLC: 2048
rand_sets[31]: 1881
Assign rand_sets[32]: 1770  LLC: 2048
rand_sets[32]: 1770
Assign rand_sets[33]: 1622  LLC: 2048
rand_sets[33]: 1622
Assign rand_sets[34]: 275  LLC: 2048
rand_sets[34]: 275
Assign rand_sets[35]: 635  LLC: 2048
rand_sets[35]: 635
Assign rand_sets[36]: 466  LLC: 2048
rand_sets[36]: 466
Assign rand_sets[37]: 1413  LLC: 2048
rand_sets[37]: 1413
Assign rand_sets[38]: 417  LLC: 2048
rand_sets[38]: 417
Assign rand_sets[39]: 472  LLC: 2048
rand_sets[39]: 472
Assign rand_sets[40]: 1340  LLC: 2048
rand_sets[40]: 1340
Assign rand_sets[41]: 852  LLC: 2048
rand_sets[41]: 852
Assign rand_sets[42]: 1365  LLC: 2048
rand_sets[42]: 1365
Assign rand_sets[43]: 47  LLC: 2048
rand_sets[43]: 47
Assign rand_sets[44]: 823  LLC: 2048
rand_sets[44]: 823
Assign rand_sets[45]: 686  LLC: 2048
rand_sets[45]: 686
Assign rand_sets[46]: 1637  LLC: 2048
rand_sets[46]: 1637
Assign rand_sets[47]: 1115  LLC: 2048
rand_sets[47]: 1115
Assign rand_sets[48]: 986  LLC: 2048
rand_sets[48]: 986
Assign rand_sets[49]: 258  LLC: 2048
rand_sets[49]: 258
Assign rand_sets[50]: 633  LLC: 2048
rand_sets[50]: 633
Assign rand_sets[51]: 920  LLC: 2048
rand_sets[51]: 920
Assign rand_sets[52]: 204  LLC: 2048
rand_sets[52]: 204
Assign rand_sets[53]: 227  LLC: 2048
rand_sets[53]: 227
Assign rand_sets[54]: 1818  LLC: 2048
rand_sets[54]: 1818
Assign rand_sets[55]: 886  LLC: 2048
rand_sets[55]: 886
Assign rand_sets[56]: 1422  LLC: 2048
rand_sets[56]: 1422
Assign rand_sets[57]: 607  LLC: 2048
rand_sets[57]: 607
Assign rand_sets[58]: 217  LLC: 2048
rand_sets[58]: 217
Assign rand_sets[59]: 1945  LLC: 2048
rand_sets[59]: 1945
Assign rand_sets[60]: 143  LLC: 2048
rand_sets[60]: 143
Assign rand_sets[61]: 1311  LLC: 2048
rand_sets[61]: 1311
Assign rand_sets[62]: 319  LLC: 2048
rand_sets[62]: 319
Assign rand_sets[63]: 1846  LLC: 2048
rand_sets[63]: 1846
 CLEAN-RRIP-POLICY-1: 1-2-1-3-0-3-0-1- CLEAN-RRIP-POLICY-2: 1-2-1-3-0-3-0-1-
 DIRTY-RRIP-POLICY-1: 2-2-1-3-1-3-0-1- DIRTY-RRIP-POLICY-2: 2-2-1-3-1-3-0-1-
 PSEL width: 10
Heartbeat CPU 0 instructions: 10000002 cycles: 5480930 heartbeat IPC: 1.82451 cumulative IPC: 1.82451 (Simulation time: 0 hr 0 min 12 sec) 
Heartbeat CPU 0 instructions: 20000000 cycles: 10913520 heartbeat IPC: 1.84074 cumulative IPC: 1.83259 (Simulation time: 0 hr 0 min 25 sec) 
Heartbeat CPU 0 instructions: 30000000 cycles: 16447384 heartbeat IPC: 1.80706 cumulative IPC: 1.824 (Simulation time: 0 hr 0 min 38 sec) 
Heartbeat CPU 0 instructions: 40000000 cycles: 21898150 heartbeat IPC: 1.8346 cumulative IPC: 1.82664 (Simulation time: 0 hr 0 min 50 sec) 
Heartbeat CPU 0 instructions: 50000000 cycles: 27400044 heartbeat IPC: 1.81756 cumulative IPC: 1.82481 (Simulation time: 0 hr 1 min 3 sec) 
Heartbeat CPU 0 instructions: 60000000 cycles: 32778881 heartbeat IPC: 1.85914 cumulative IPC: 1.83045 (Simulation time: 0 hr 1 min 16 sec) 
Heartbeat CPU 0 instructions: 70000001 cycles: 38335186 heartbeat IPC: 1.79976 cumulative IPC: 1.826 (Simulation time: 0 hr 1 min 29 sec) 
Heartbeat CPU 0 instructions: 80000000 cycles: 43795368 heartbeat IPC: 1.83144 cumulative IPC: 1.82668 (Simulation time: 0 hr 1 min 41 sec) 
Heartbeat CPU 0 instructions: 90000000 cycles: 49242076 heartbeat IPC: 1.83597 cumulative IPC: 1.82771 (Simulation time: 0 hr 1 min 54 sec) 
Heartbeat CPU 0 instructions: 100000000 cycles: 54787165 heartbeat IPC: 1.8034 cumulative IPC: 1.82525 (Simulation time: 0 hr 2 min 7 sec) 

Warmup complete CPU 0 instructions: 100000002 cycles: 54787166 (Simulation time: 0 hr 2 min 7 sec) 

Heartbeat CPU 0 instructions: 110000001 cycles: 69185854 heartbeat IPC: 0.694508 cumulative IPC: 0.694508 (Simulation time: 0 hr 2 min 25 sec) 
Heartbeat CPU 0 instructions: 120000000 cycles: 84191892 heartbeat IPC: 0.666398 cumulative IPC: 0.680163 (Simulation time: 0 hr 2 min 44 sec) 
Heartbeat CPU 0 instructions: 130000000 cycles: 98692936 heartbeat IPC: 0.689606 cumulative IPC: 0.683281 (Simulation time: 0 hr 3 min 2 sec) 
Heartbeat CPU 0 instructions: 140000000 cycles: 113034122 heartbeat IPC: 0.697292 cumulative IPC: 0.686731 (Simulation time: 0 hr 3 min 21 sec) 
Heartbeat CPU 0 instructions: 150000000 cycles: 127746217 heartbeat IPC: 0.679713 cumulative IPC: 0.685316 (Simulation time: 0 hr 3 min 39 sec) 
Heartbeat CPU 0 instructions: 160000000 cycles: 142866415 heartbeat IPC: 0.661367 cumulative IPC: 0.681205 (Simulation time: 0 hr 3 min 58 sec) 
Heartbeat CPU 0 instructions: 170000001 cycles: 157727843 heartbeat IPC: 0.672883 cumulative IPC: 0.680003 (Simulation time: 0 hr 4 min 15 sec) 
Heartbeat CPU 0 instructions: 180000000 cycles: 172657145 heartbeat IPC: 0.669824 cumulative IPC: 0.678714 (Simulation time: 0 hr 4 min 34 sec) 
Heartbeat CPU 0 instructions: 190000002 cycles: 187139370 heartbeat IPC: 0.690502 cumulative IPC: 0.680004 (Simulation time: 0 hr 4 min 52 sec) 
Heartbeat CPU 0 instructions: 200000000 cycles: 201498165 heartbeat IPC: 0.696437 cumulative IPC: 0.681612 (Simulation time: 0 hr 5 min 10 sec) 
Heartbeat CPU 0 instructions: 210000003 cycles: 216121863 heartbeat IPC: 0.683822 cumulative IPC: 0.681812 (Simulation time: 0 hr 5 min 29 sec) 
Heartbeat CPU 0 instructions: 220000000 cycles: 230820467 heartbeat IPC: 0.680337 cumulative IPC: 0.681689 (Simulation time: 0 hr 5 min 47 sec) 
Heartbeat CPU 0 instructions: 230000001 cycles: 245936684 heartbeat IPC: 0.661541 cumulative IPC: 0.680096 (Simulation time: 0 hr 6 min 6 sec) 
Heartbeat CPU 0 instructions: 240000000 cycles: 260853775 heartbeat IPC: 0.670372 cumulative IPC: 0.679392 (Simulation time: 0 hr 6 min 24 sec) 
Heartbeat CPU 0 instructions: 250000003 cycles: 275678077 heartbeat IPC: 0.674568 cumulative IPC: 0.679068 (Simulation time: 0 hr 6 min 42 sec) 
Heartbeat CPU 0 instructions: 260000000 cycles: 291162749 heartbeat IPC: 0.6458 cumulative IPC: 0.676889 (Simulation time: 0 hr 7 min 0 sec) 
Heartbeat CPU 0 instructions: 270000003 cycles: 305755939 heartbeat IPC: 0.685251 cumulative IPC: 0.677375 (Simulation time: 0 hr 7 min 19 sec) 
Heartbeat CPU 0 instructions: 280000000 cycles: 320247669 heartbeat IPC: 0.690049 cumulative IPC: 0.678067 (Simulation time: 0 hr 7 min 37 sec) 
Heartbeat CPU 0 instructions: 290000002 cycles: 334697061 heartbeat IPC: 0.692071 cumulative IPC: 0.67879 (Simulation time: 0 hr 7 min 55 sec) 
Heartbeat CPU 0 instructions: 300000000 cycles: 350089002 heartbeat IPC: 0.649691 cumulative IPC: 0.677273 (Simulation time: 0 hr 8 min 14 sec) 
Heartbeat CPU 0 instructions: 310000000 cycles: 365059861 heartbeat IPC: 0.667964 cumulative IPC: 0.676824 (Simulation time: 0 hr 8 min 32 sec) 
Heartbeat CPU 0 instructions: 320000000 cycles: 379871320 heartbeat IPC: 0.675153 cumulative IPC: 0.676748 (Simulation time: 0 hr 8 min 50 sec) 
Heartbeat CPU 0 instructions: 330000000 cycles: 395641950 heartbeat IPC: 0.63409 cumulative IPC: 0.674774 (Simulation time: 0 hr 9 min 9 sec) 
Heartbeat CPU 0 instructions: 340000000 cycles: 410283454 heartbeat IPC: 0.68299 cumulative IPC: 0.675113 (Simulation time: 0 hr 9 min 27 sec) 
Heartbeat CPU 0 instructions: 350000000 cycles: 424920089 heartbeat IPC: 0.683217 cumulative IPC: 0.675433 (Simulation time: 0 hr 9 min 45 sec) 
Heartbeat CPU 0 instructions: 360000000 cycles: 439586566 heartbeat IPC: 0.681827 cumulative IPC: 0.675677 (Simulation time: 0 hr 10 min 3 sec) 
Heartbeat CPU 0 instructions: 370000002 cycles: 455004482 heartbeat IPC: 0.648596 cumulative IPC: 0.674634 (Simulation time: 0 hr 10 min 22 sec) 
Heartbeat CPU 0 instructions: 380000000 cycles: 469857656 heartbeat IPC: 0.673257 cumulative IPC: 0.674584 (Simulation time: 0 hr 10 min 40 sec) 
Heartbeat CPU 0 instructions: 390000003 cycles: 484815977 heartbeat IPC: 0.668524 cumulative IPC: 0.674373 (Simulation time: 0 hr 10 min 59 sec) 
Heartbeat CPU 0 instructions: 400000000 cycles: 500658358 heartbeat IPC: 0.631218 cumulative IPC: 0.67284 (Simulation time: 0 hr 11 min 17 sec) 
Heartbeat CPU 0 instructions: 410000001 cycles: 515679063 heartbeat IPC: 0.665748 cumulative IPC: 0.672609 (Simulation time: 0 hr 11 min 35 sec) 
Heartbeat CPU 0 instructions: 420000000 cycles: 530407839 heartbeat IPC: 0.678943 cumulative IPC: 0.672805 (Simulation time: 0 hr 11 min 53 sec) 
Heartbeat CPU 0 instructions: 430000000 cycles: 545829850 heartbeat IPC: 0.648424 cumulative IPC: 0.672039 (Simulation time: 0 hr 12 min 12 sec) 
Heartbeat CPU 0 instructions: 440000000 cycles: 560632183 heartbeat IPC: 0.675569 cumulative IPC: 0.672143 (Simulation time: 0 hr 12 min 30 sec) 
Heartbeat CPU 0 instructions: 450000000 cycles: 575610294 heartbeat IPC: 0.667641 cumulative IPC: 0.672013 (Simulation time: 0 hr 12 min 48 sec) 
Heartbeat CPU 0 instructions: 460000000 cycles: 591346187 heartbeat IPC: 0.63549 cumulative IPC: 0.670942 (Simulation time: 0 hr 13 min 6 sec) 
Heartbeat CPU 0 instructions: 470000000 cycles: 606420631 heartbeat IPC: 0.663374 cumulative IPC: 0.670735 (Simulation time: 0 hr 13 min 24 sec) 
Heartbeat CPU 0 instructions: 480000000 cycles: 621295898 heartbeat IPC: 0.672257 cumulative IPC: 0.670775 (Simulation time: 0 hr 13 min 42 sec) 
Heartbeat CPU 0 instructions: 490000002 cycles: 636559411 heartbeat IPC: 0.655157 cumulative IPC: 0.670365 (Simulation time: 0 hr 14 min 0 sec) 
Heartbeat CPU 0 instructions: 500000000 cycles: 651430795 heartbeat IPC: 0.672432 cumulative IPC: 0.670417 (Simulation time: 0 hr 14 min 18 sec) 
Heartbeat CPU 0 instructions: 510000001 cycles: 666538494 heartbeat IPC: 0.661914 cumulative IPC: 0.670207 (Simulation time: 0 hr 14 min 36 sec) 
Heartbeat CPU 0 instructions: 520000000 cycles: 682004570 heartbeat IPC: 0.646576 cumulative IPC: 0.669624 (Simulation time: 0 hr 14 min 54 sec) 
Heartbeat CPU 0 instructions: 530000001 cycles: 697430085 heartbeat IPC: 0.648277 cumulative IPC: 0.669112 (Simulation time: 0 hr 15 min 12 sec) 
Heartbeat CPU 0 instructions: 540000000 cycles: 712018151 heartbeat IPC: 0.685492 cumulative IPC: 0.669475 (Simulation time: 0 hr 15 min 30 sec) 
Heartbeat CPU 0 instructions: 550000001 cycles: 727278812 heartbeat IPC: 0.65528 cumulative IPC: 0.669153 (Simulation time: 0 hr 15 min 48 sec) 
Heartbeat CPU 0 instructions: 560000000 cycles: 742084104 heartbeat IPC: 0.675434 cumulative IPC: 0.669289 (Simulation time: 0 hr 16 min 6 sec) 
Heartbeat CPU 0 instructions: 570000002 cycles: 757238225 heartbeat IPC: 0.659887 cumulative IPC: 0.669086 (Simulation time: 0 hr 16 min 24 sec) 
Heartbeat CPU 0 instructions: 580000000 cycles: 772248006 heartbeat IPC: 0.666232 cumulative IPC: 0.669026 (Simulation time: 0 hr 16 min 42 sec) 
Heartbeat CPU 0 instructions: 590000001 cycles: 787251533 heartbeat IPC: 0.66651 cumulative IPC: 0.668975 (Simulation time: 0 hr 17 min 0 sec) 
Heartbeat CPU 0 instructions: 600000000 cycles: 801909949 heartbeat IPC: 0.682202 cumulative IPC: 0.669234 (Simulation time: 0 hr 17 min 18 sec) 
Finished CPU 0 instructions: 500000000 cycles: 747122791 cumulative IPC: 0.669234 (Simulation time: 0 hr 17 min 18 sec) 

CPU 0 Branch Prediction Accuracy: 93.7783% MPKI: 10.0718
Number of Branches: 80940586 Number of Mispredictions: 5035908
Number of LOAD Instructions: 184238101
Number of LOAD Instructions (ROI): 184238101
Number of STORE Instructions: 33143298
Number of STORE Instructions (ROI): 33143298
Total Destination Memory Operands: 33324321
Total Destination Memory Operands (ROI): 33324321
Total Source Memory Operands: 184238101
Total Source Memory Operands (ROI): 184238101
Number of DEPENDED LOADS: 4461489
Number of DEPENDED LOADS (ROI): 4461489
Number of SQ_ADDED: 33324292
Number of SQ_ADDED (ROI): 33324292
Number of LQ_ADDED: 184867872
Number of LQ_ADDED (ROI): 184867872
Number of Instructions read from trace: 600000256

ChampSim completed all CPUs

Region of Interest Statistics

CPU 0 cumulative IPC: 0.669234 instructions: 500000000 cycles: 747122791
ITLB TOTAL     ACCESS:   77746131  HIT:   77746131  MISS:          0
ITLB LOAD      ACCESS:   77746131  HIT:   77746131  MISS:          0
ITLB RFO       ACCESS:          0  HIT:          0  MISS:          0
ITLB PREFETCH  ACCESS:          0  HIT:          0  MISS:          0
ITLB WRITEBACK ACCESS:          0  HIT:          0  MISS:          0
ITLB PREFETCH  REQUESTED:          0  ISSUED:          0  USEFUL:          0  USELESS:          0
ITLB TOTAL MSHR MERGED:          0
ITLB LOAD MSHR MERGED:          0
ITLB RFO MSHR MERGED:          0
ITLB PREFETCH MSHR MERGED:          0
ITLB WRITEBACK MSHR MERGED:          0
ITLB TOTAL ACCESSES:   77746131 HITS:   77746131 MISSES:          0
ITLB LOAD ACCESSES:   77746131 HITS:   77746131 MISSES:          0
ITLB RFO ACCESSES:          0 HITS:          0 MISSES:          0
ITLB PREFETCH ACCESSES:          0 HITS:          0 MISSES:          0
ITLB WRITEBACK ACCESSES:          0 HITS:          0 MISSES:          0
ITLB RQ ACCESS:  500000245
ITLB RQ TO_CACHE:   77746131
ITLB RQ MERGED:  422254114
ITLB RQ FORWARD:          0
ITLB WQ ACCESS:          0
ITLB WQ TO_CACHE:          0
ITLB WQ MERGED:          0
ITLB WQ FORWARD:          0
DTLB TOTAL     ACCESS:   88436884  HIT:   87300034  MISS:    1136850
DTLB LOAD      ACCESS:   66310251  HIT:   65177641  MISS:    1132610
DTLB RFO       ACCESS:   22126633  HIT:   22122393  MISS:       4240
DTLB PREFETCH  ACCESS:          0  HIT:          0  MISS:          0
DTLB WRITEBACK ACCESS:          0  HIT:          0  MISS:          0
DTLB PREFETCH  REQUESTED:          0  ISSUED:          0  USEFUL:          0  USELESS:          0
DTLB TOTAL MSHR MERGED:     135524
DTLB LOAD MSHR MERGED:     133707
DTLB RFO MSHR MERGED:       1817
DTLB PREFETCH MSHR MERGED:          0
DTLB WRITEBACK MSHR MERGED:          0
DTLB TOTAL ACCESSES:   88572408 HITS:   87300034 MISSES:    1272374
DTLB LOAD ACCESSES:   66443958 HITS:   65177641 MISSES:    1266317
DTLB RFO ACCESSES:   22128450 HITS:   22122393 MISSES:       6057
DTLB PREFETCH ACCESSES:          0 HITS:          0 MISSES:          0
DTLB WRITEBACK ACCESSES:          0 HITS:          0 MISSES:          0
DTLB RQ ACCESS:  177579242
DTLB RQ TO_CACHE:   88572408
DTLB RQ MERGED:   89006834
DTLB RQ FORWARD:          0
DTLB WQ ACCESS:          0
DTLB WQ TO_CACHE:          0
DTLB WQ MERGED:          0
DTLB WQ FORWARD:          0
L1D TOTAL     ACCESS:  142075450  HIT:  136516405  MISS:    5559045
L1D LOAD      ACCESS:   61384161  HIT:   58274670  MISS:    3109491
L1D RFO       ACCESS:   27668395  HIT:   27586588  MISS:      81807
L1D PREFETCH  ACCESS:   53022894  HIT:   50655147  MISS:    2367747
L1D WRITEBACK ACCESS:          0  HIT:          0  MISS:          0
L1D PREFETCH  REQUESTED:   61670622  ISSUED:   60752451  USEFUL:     660873  USELESS:    1706879
L1D TOTAL MSHR MERGED:    1204745
L1D LOAD MSHR MERGED:     390310
L1D RFO MSHR MERGED:     164689
L1D PREFETCH MSHR MERGED:     649746
L1D WRITEBACK MSHR MERGED:          0
L1D TOTAL ACCESSES:  143377809 HITS:  136614019 MISSES:    6763790
L1D LOAD ACCESSES:   61670632 HITS:   58274680 MISSES:    3395952
L1D RFO ACCESSES:   27829287 HITS:   27586588 MISSES:     242699
L1D PREFETCH ACCESSES:   53877890 HITS:   50752751 MISSES:    3125139
L1D WRITEBACK ACCESSES:          0 HITS:          0 MISSES:          0
L1D RQ ACCESS:  149746276
L1D RQ TO_CACHE:   61670622
L1D RQ MERGED:   88075644
L1D RQ FORWARD:          0
L1D WQ ACCESS:   27832966
L1D WQ TO_CACHE:   27829287
L1D WQ MERGED:       3679
L1D WQ FORWARD:      97614
L1I TOTAL     ACCESS:   96223468  HIT:   96064202  MISS:     159266
L1I LOAD      ACCESS:   96223468  HIT:   96064202  MISS:     159266
L1I RFO       ACCESS:          0  HIT:          0  MISS:          0
L1I PREFETCH  ACCESS:          0  HIT:          0  MISS:          0
L1I WRITEBACK ACCESS:          0  HIT:          0  MISS:          0
L1I PREFETCH  REQUESTED:          0  ISSUED:          0  USEFUL:          0  USELESS:          0
L1I TOTAL MSHR MERGED:     130250
L1I LOAD MSHR MERGED:     130250
L1I RFO MSHR MERGED:          0
L1I PREFETCH MSHR MERGED:          0
L1I WRITEBACK MSHR MERGED:          0
L1I TOTAL ACCESSES:   96353718 HITS:   96064202 MISSES:     289516
L1I LOAD ACCESSES:   96353718 HITS:   96064202 MISSES:     289516
L1I RFO ACCESSES:          0 HITS:          0 MISSES:          0
L1I PREFETCH ACCESSES:          0 HITS:          0 MISSES:          0
L1I WRITEBACK ACCESSES:          0 HITS:          0 MISSES:          0
L1I RQ ACCESS:  500000245
L1I RQ TO_CACHE:   96353718
L1I RQ MERGED:  403646527
L1I RQ FORWARD:          0
L1I WQ ACCESS:          0
L1I WQ TO_CACHE:          0
L1I WQ MERGED:          0
L1I WQ FORWARD:          0
L2C TOTAL     ACCESS:    5910879  HIT:    3062204  MISS:    2848675
L2C LOAD      ACCESS:    3164898  HIT:    1583001  MISS:    1581897
L2C RFO       ACCESS:      77935  HIT:      45085  MISS:      32850
L2C PREFETCH  ACCESS:    2524519  HIT:    1296175  MISS:    1228344
L2C WRITEBACK ACCESS:     143527  HIT:     137943  MISS:       5584
L2C PREFETCH  REQUESTED:      52724  ISSUED:      52724  USEFUL:      18653  USELESS:    1209731
L2C TOTAL MSHR MERGED:       2667
L2C LOAD MSHR MERGED:        957
L2C RFO MSHR MERGED:          0
L2C PREFETCH MSHR MERGED:       1710
L2C WRITEBACK MSHR MERGED:          0
L2C TOTAL ACCESSES:    5913636 HITS:    3062289 MISSES:    2851347
L2C LOAD ACCESSES:    3164908 HITS:    1583011 MISSES:    1581897
L2C RFO ACCESSES:      78010 HITS:      45160 MISSES:      32850
L2C PREFETCH ACCESSES:    2527191 HITS:    1296175 MISSES:    1231016
L2C WRITEBACK ACCESSES:     143527 HITS:     137943 MISSES:       5584
L2C RQ ACCESS:    3242918
L2C RQ TO_CACHE:    3242833
L2C RQ MERGED:          0
L2C RQ FORWARD:          0
L2C WQ ACCESS:     143527
L2C WQ TO_CACHE:     143527
L2C WQ MERGED:          0
L2C WQ FORWARD:         85
LLC TOTAL     ACCESS:    2892633  HIT:    1791740  MISS:    1100893
LLC LOAD      ACCESS:    1580940  HIT:    1134225  MISS:     446715
LLC RFO       ACCESS:      32841  HIT:      31761  MISS:       1080
LLC PREFETCH  ACCESS:    1229306  HIT:     578451  MISS:     650855
LLC WRITEBACK ACCESS:      49546  HIT:      47303  MISS:       2243
LLC PREFETCH  REQUESTED:          0  ISSUED:          0  USEFUL:       3017  USELESS:     647807
LLC TOTAL MSHR MERGED:          0
LLC LOAD MSHR MERGED:          0
LLC RFO MSHR MERGED:          0
LLC PREFETCH MSHR MERGED:          0
LLC WRITEBACK MSHR MERGED:          0
LLC TOTAL ACCESSES:    2892642 HITS:    1791749 MISSES:    1100893
LLC LOAD ACCESSES:    1580940 HITS:    1134225 MISSES:     446715
LLC RFO ACCESSES:      32850 HITS:      31770 MISSES:       1080
LLC PREFETCH ACCESSES:    1229306 HITS:     578451 MISSES:     650855
LLC WRITEBACK ACCESSES:      49546 HITS:      47303 MISSES:       2243
LLC 0 RQ ACCESS:    1613790
LLC 0 RQ TO_CACHE:    1613781
LLC 0 RQ MERGED:          0
LLC 0 RQ FORWARD:          0
LLC WQ ACCESS:      49546
LLC WQ TO_CACHE:      49546
LLC WQ MERGED:          0
LLC WQ FORWARD:          9
Major fault: 0 Minor fault: 8460
CPU 0 L1D next line prefetcher final stats
CPU 0 L2C PC-based stride prefetcher final stats
All Misses: 1334339
All Hits: 2094890
SD Algo Stats - Switches: 0 SRR-Repls: 517897 BRR-Repls: 0

DRAM Statistics
 CHANNEL 0
 RQ ROW_BUFFER_HIT:     373763  ROW_BUFFER_MISS:     723826
 DBUS_CONGESTED:     332871
 WQ ROW_BUFFER_HIT:        498  ROW_BUFFER_MISS:       1798  FULL:          0

 AVG_CONGESTED_CYCLE: 12
LOADS RETIRED: 153532848
INSTR RETIRED: 500000000
