
*** ChampSim Multicore Out-of-Order Simulator ***

Warmup Instructions: 100000000
Simulation Instructions: 500000000
Number of CPUs: 1
LLC sets: 2048
LLC ways: 16
Clean RRIP Policies: 1213030112130301 Dirty RRIP Policies: 2213130122131301 PSEL Width: 10 Track Set: 4294967295 PSEL Mask: 1 Demote Mask: 3040241030402410DS Algo: 0Window size: 0
Off-chip DRAM Size: 4096 MB Channels: 1 Width: 64-bit Data Rate: 1600 MT/s

CPU 0 runs /mnt/beegfs/iconst01/spec2017/Mcf.trace.gz
NOT SORTED
TRACE STRING: /mnt/beegfs/iconst01/spec2017/Mcf.trace.gz
SORTED
TRACE STRING: /mnt/beegfs/iconst01/spec2017/Mcf.trace.gz
INITIAL
TRACE STRING: /mnt/beegfs/iconst01/spec2017/Mcf.trace.gz

champsim_seed used: 278

CPU 0 L1D next line prefetcher
CPU 0 L2C IP-based stride prefetcher
Initialize DRRIP state
Assign rand_sets[0]: 454  LLC: 2048
rand_sets[0]: 454
Assign rand_sets[1]: 1662  LLC: 2048
rand_sets[1]: 1662
Assign rand_sets[2]: 1921  LLC: 2048
rand_sets[2]: 1921
Assign rand_sets[3]: 1131  LLC: 2048
rand_sets[3]: 1131
Assign rand_sets[4]: 331  LLC: 2048
rand_sets[4]: 331
Assign rand_sets[5]: 1531  LLC: 2048
rand_sets[5]: 1531
Assign rand_sets[6]: 482  LLC: 2048
rand_sets[6]: 482
Assign rand_sets[7]: 1275  LLC: 2048
rand_sets[7]: 1275
Assign rand_sets[8]: 1876  LLC: 2048
rand_sets[8]: 1876
Assign rand_sets[9]: 2038  LLC: 2048
rand_sets[9]: 2038
Assign rand_sets[10]: 701  LLC: 2048
rand_sets[10]: 701
Assign rand_sets[11]: 479  LLC: 2048
rand_sets[11]: 479
Assign rand_sets[12]: 892  LLC: 2048
rand_sets[12]: 892
Assign rand_sets[13]: 1820  LLC: 2048
rand_sets[13]: 1820
Assign rand_sets[14]: 1505  LLC: 2048
rand_sets[14]: 1505
Assign rand_sets[15]: 1159  LLC: 2048
rand_sets[15]: 1159
Assign rand_sets[16]: 513  LLC: 2048
rand_sets[16]: 513
Assign rand_sets[17]: 703  LLC: 2048
rand_sets[17]: 703
Assign rand_sets[18]: 561  LLC: 2048
rand_sets[18]: 561
Assign rand_sets[19]: 990  LLC: 2048
rand_sets[19]: 990
Assign rand_sets[20]: 342  LLC: 2048
rand_sets[20]: 342
Assign rand_sets[21]: 882  LLC: 2048
rand_sets[21]: 882
Assign rand_sets[22]: 15  LLC: 2048
rand_sets[22]: 15
Assign rand_sets[23]: 71  LLC: 2048
rand_sets[23]: 71
Assign rand_sets[24]: 1127  LLC: 2048
rand_sets[24]: 1127
Assign rand_sets[25]: 1382  LLC: 2048
rand_sets[25]: 1382
Assign rand_sets[26]: 647  LLC: 2048
rand_sets[26]: 647
Assign rand_sets[27]: 857  LLC: 2048
rand_sets[27]: 857
Assign rand_sets[28]: 1450  LLC: 2048
rand_sets[28]: 1450
Assign rand_sets[29]: 1160  LLC: 2048
rand_sets[29]: 1160
Assign rand_sets[30]: 1852  LLC: 2048
rand_sets[30]: 1852
Assign rand_sets[31]: 1881  LLC: 2048
rand_sets[31]: 1881
Assign rand_sets[32]: 1770  LLC: 2048
rand_sets[32]: 1770
Assign rand_sets[33]: 1622  LLC: 2048
rand_sets[33]: 1622
Assign rand_sets[34]: 275  LLC: 2048
rand_sets[34]: 275
Assign rand_sets[35]: 635  LLC: 2048
rand_sets[35]: 635
Assign rand_sets[36]: 466  LLC: 2048
rand_sets[36]: 466
Assign rand_sets[37]: 1413  LLC: 2048
rand_sets[37]: 1413
Assign rand_sets[38]: 417  LLC: 2048
rand_sets[38]: 417
Assign rand_sets[39]: 472  LLC: 2048
rand_sets[39]: 472
Assign rand_sets[40]: 1340  LLC: 2048
rand_sets[40]: 1340
Assign rand_sets[41]: 852  LLC: 2048
rand_sets[41]: 852
Assign rand_sets[42]: 1365  LLC: 2048
rand_sets[42]: 1365
Assign rand_sets[43]: 47  LLC: 2048
rand_sets[43]: 47
Assign rand_sets[44]: 823  LLC: 2048
rand_sets[44]: 823
Assign rand_sets[45]: 686  LLC: 2048
rand_sets[45]: 686
Assign rand_sets[46]: 1637  LLC: 2048
rand_sets[46]: 1637
Assign rand_sets[47]: 1115  LLC: 2048
rand_sets[47]: 1115
Assign rand_sets[48]: 986  LLC: 2048
rand_sets[48]: 986
Assign rand_sets[49]: 258  LLC: 2048
rand_sets[49]: 258
Assign rand_sets[50]: 633  LLC: 2048
rand_sets[50]: 633
Assign rand_sets[51]: 920  LLC: 2048
rand_sets[51]: 920
Assign rand_sets[52]: 204  LLC: 2048
rand_sets[52]: 204
Assign rand_sets[53]: 227  LLC: 2048
rand_sets[53]: 227
Assign rand_sets[54]: 1818  LLC: 2048
rand_sets[54]: 1818
Assign rand_sets[55]: 886  LLC: 2048
rand_sets[55]: 886
Assign rand_sets[56]: 1422  LLC: 2048
rand_sets[56]: 1422
Assign rand_sets[57]: 607  LLC: 2048
rand_sets[57]: 607
Assign rand_sets[58]: 217  LLC: 2048
rand_sets[58]: 217
Assign rand_sets[59]: 1945  LLC: 2048
rand_sets[59]: 1945
Assign rand_sets[60]: 143  LLC: 2048
rand_sets[60]: 143
Assign rand_sets[61]: 1311  LLC: 2048
rand_sets[61]: 1311
Assign rand_sets[62]: 319  LLC: 2048
rand_sets[62]: 319
Assign rand_sets[63]: 1846  LLC: 2048
rand_sets[63]: 1846
 CLEAN-RRIP-POLICY-1: 1-2-1-3-0-3-0-1- CLEAN-RRIP-POLICY-2: 1-2-1-3-0-3-0-1-
 DIRTY-RRIP-POLICY-1: 2-2-1-3-1-3-0-1- DIRTY-RRIP-POLICY-2: 2-2-1-3-1-3-0-1-
 PSEL width: 10
Heartbeat CPU 0 instructions: 10000002 cycles: 6248501 heartbeat IPC: 1.60038 cumulative IPC: 1.60038 (Simulation time: 0 hr 0 min 12 sec) 
Heartbeat CPU 0 instructions: 20000000 cycles: 12469277 heartbeat IPC: 1.60752 cumulative IPC: 1.60394 (Simulation time: 0 hr 0 min 24 sec) 
Heartbeat CPU 0 instructions: 30000000 cycles: 18679613 heartbeat IPC: 1.61022 cumulative IPC: 1.60603 (Simulation time: 0 hr 0 min 37 sec) 
Heartbeat CPU 0 instructions: 40000000 cycles: 24890168 heartbeat IPC: 1.61016 cumulative IPC: 1.60706 (Simulation time: 0 hr 0 min 49 sec) 
Heartbeat CPU 0 instructions: 50000003 cycles: 31102550 heartbeat IPC: 1.60969 cumulative IPC: 1.60759 (Simulation time: 0 hr 1 min 1 sec) 
Heartbeat CPU 0 instructions: 60000000 cycles: 37298664 heartbeat IPC: 1.61391 cumulative IPC: 1.60864 (Simulation time: 0 hr 1 min 14 sec) 
Heartbeat CPU 0 instructions: 70000003 cycles: 43517032 heartbeat IPC: 1.60814 cumulative IPC: 1.60857 (Simulation time: 0 hr 1 min 26 sec) 
Heartbeat CPU 0 instructions: 80000000 cycles: 49747473 heartbeat IPC: 1.60502 cumulative IPC: 1.60812 (Simulation time: 0 hr 1 min 39 sec) 
Heartbeat CPU 0 instructions: 90000000 cycles: 55976396 heartbeat IPC: 1.60541 cumulative IPC: 1.60782 (Simulation time: 0 hr 1 min 51 sec) 
Heartbeat CPU 0 instructions: 100000000 cycles: 62195344 heartbeat IPC: 1.60799 cumulative IPC: 1.60784 (Simulation time: 0 hr 2 min 4 sec) 

Warmup complete CPU 0 instructions: 100000001 cycles: 62195345 (Simulation time: 0 hr 2 min 4 sec) 

Heartbeat CPU 0 instructions: 110000000 cycles: 86892799 heartbeat IPC: 0.4049 cumulative IPC: 0.4049 (Simulation time: 0 hr 2 min 27 sec) 
Heartbeat CPU 0 instructions: 120000000 cycles: 111706418 heartbeat IPC: 0.403004 cumulative IPC: 0.40395 (Simulation time: 0 hr 2 min 50 sec) 
Heartbeat CPU 0 instructions: 130000000 cycles: 136586164 heartbeat IPC: 0.401933 cumulative IPC: 0.403276 (Simulation time: 0 hr 3 min 14 sec) 
Heartbeat CPU 0 instructions: 140000000 cycles: 161420633 heartbeat IPC: 0.402666 cumulative IPC: 0.403123 (Simulation time: 0 hr 3 min 37 sec) 
Heartbeat CPU 0 instructions: 150000003 cycles: 186153472 heartbeat IPC: 0.404321 cumulative IPC: 0.403362 (Simulation time: 0 hr 4 min 1 sec) 
Heartbeat CPU 0 instructions: 160000000 cycles: 211165808 heartbeat IPC: 0.399803 cumulative IPC: 0.402764 (Simulation time: 0 hr 4 min 24 sec) 
Heartbeat CPU 0 instructions: 170000001 cycles: 236037170 heartbeat IPC: 0.402069 cumulative IPC: 0.402665 (Simulation time: 0 hr 4 min 48 sec) 
Heartbeat CPU 0 instructions: 180000000 cycles: 260891049 heartbeat IPC: 0.402352 cumulative IPC: 0.402626 (Simulation time: 0 hr 5 min 11 sec) 
Heartbeat CPU 0 instructions: 190000003 cycles: 285711181 heartbeat IPC: 0.402899 cumulative IPC: 0.402656 (Simulation time: 0 hr 5 min 34 sec) 
Heartbeat CPU 0 instructions: 200000000 cycles: 310582227 heartbeat IPC: 0.402074 cumulative IPC: 0.402598 (Simulation time: 0 hr 5 min 58 sec) 
Heartbeat CPU 0 instructions: 210000003 cycles: 335513219 heartbeat IPC: 0.401107 cumulative IPC: 0.402462 (Simulation time: 0 hr 6 min 21 sec) 
Heartbeat CPU 0 instructions: 220000000 cycles: 360636586 heartbeat IPC: 0.398036 cumulative IPC: 0.402089 (Simulation time: 0 hr 6 min 45 sec) 
Heartbeat CPU 0 instructions: 230000002 cycles: 385401762 heartbeat IPC: 0.403793 cumulative IPC: 0.40222 (Simulation time: 0 hr 7 min 8 sec) 
Heartbeat CPU 0 instructions: 240000000 cycles: 410479112 heartbeat IPC: 0.398766 cumulative IPC: 0.401971 (Simulation time: 0 hr 7 min 32 sec) 
Heartbeat CPU 0 instructions: 250000000 cycles: 435374199 heartbeat IPC: 0.401686 cumulative IPC: 0.401952 (Simulation time: 0 hr 7 min 55 sec) 
Heartbeat CPU 0 instructions: 260000000 cycles: 460241482 heartbeat IPC: 0.402135 cumulative IPC: 0.401963 (Simulation time: 0 hr 8 min 18 sec) 
Heartbeat CPU 0 instructions: 270000001 cycles: 485189949 heartbeat IPC: 0.400826 cumulative IPC: 0.401896 (Simulation time: 0 hr 8 min 42 sec) 
Heartbeat CPU 0 instructions: 280000000 cycles: 510075707 heartbeat IPC: 0.401836 cumulative IPC: 0.401893 (Simulation time: 0 hr 9 min 6 sec) 
Heartbeat CPU 0 instructions: 290000001 cycles: 535035021 heartbeat IPC: 0.400652 cumulative IPC: 0.401828 (Simulation time: 0 hr 9 min 29 sec) 
Heartbeat CPU 0 instructions: 300000000 cycles: 560184529 heartbeat IPC: 0.397622 cumulative IPC: 0.401615 (Simulation time: 0 hr 9 min 53 sec) 
Heartbeat CPU 0 instructions: 310000003 cycles: 584971280 heartbeat IPC: 0.403441 cumulative IPC: 0.401702 (Simulation time: 0 hr 10 min 16 sec) 
Heartbeat CPU 0 instructions: 320000000 cycles: 610122998 heartbeat IPC: 0.397587 cumulative IPC: 0.401513 (Simulation time: 0 hr 10 min 40 sec) 
Heartbeat CPU 0 instructions: 330000003 cycles: 635000832 heartbeat IPC: 0.401964 cumulative IPC: 0.401532 (Simulation time: 0 hr 11 min 4 sec) 
Heartbeat CPU 0 instructions: 340000000 cycles: 660180380 heartbeat IPC: 0.397148 cumulative IPC: 0.401348 (Simulation time: 0 hr 11 min 27 sec) 
Heartbeat CPU 0 instructions: 350000002 cycles: 685328357 heartbeat IPC: 0.397646 cumulative IPC: 0.401198 (Simulation time: 0 hr 11 min 51 sec) 
Heartbeat CPU 0 instructions: 360000000 cycles: 710661309 heartbeat IPC: 0.394743 cumulative IPC: 0.400946 (Simulation time: 0 hr 12 min 14 sec) 
Heartbeat CPU 0 instructions: 370000000 cycles: 735750605 heartbeat IPC: 0.398576 cumulative IPC: 0.400858 (Simulation time: 0 hr 12 min 38 sec) 
Heartbeat CPU 0 instructions: 380000000 cycles: 760630488 heartbeat IPC: 0.401931 cumulative IPC: 0.400896 (Simulation time: 0 hr 13 min 1 sec) 
Heartbeat CPU 0 instructions: 390000002 cycles: 785530536 heartbeat IPC: 0.401606 cumulative IPC: 0.400921 (Simulation time: 0 hr 13 min 24 sec) 
Heartbeat CPU 0 instructions: 400000000 cycles: 810596807 heartbeat IPC: 0.398942 cumulative IPC: 0.400854 (Simulation time: 0 hr 13 min 48 sec) 
Heartbeat CPU 0 instructions: 410000002 cycles: 835569567 heartbeat IPC: 0.400436 cumulative IPC: 0.400841 (Simulation time: 0 hr 14 min 11 sec) 
Heartbeat CPU 0 instructions: 420000000 cycles: 860373227 heartbeat IPC: 0.403166 cumulative IPC: 0.400913 (Simulation time: 0 hr 14 min 35 sec) 
Heartbeat CPU 0 instructions: 430000000 cycles: 885397464 heartbeat IPC: 0.399613 cumulative IPC: 0.400874 (Simulation time: 0 hr 14 min 58 sec) 
Heartbeat CPU 0 instructions: 440000000 cycles: 910129291 heartbeat IPC: 0.404337 cumulative IPC: 0.400975 (Simulation time: 0 hr 15 min 21 sec) 
Heartbeat CPU 0 instructions: 450000000 cycles: 935372825 heartbeat IPC: 0.396141 cumulative IPC: 0.400835 (Simulation time: 0 hr 15 min 46 sec) 
Heartbeat CPU 0 instructions: 460000000 cycles: 960487327 heartbeat IPC: 0.398176 cumulative IPC: 0.400761 (Simulation time: 0 hr 16 min 10 sec) 
Heartbeat CPU 0 instructions: 470000001 cycles: 985403157 heartbeat IPC: 0.401351 cumulative IPC: 0.400777 (Simulation time: 0 hr 16 min 35 sec) 
Heartbeat CPU 0 instructions: 480000000 cycles: 1010471994 heartbeat IPC: 0.398902 cumulative IPC: 0.400727 (Simulation time: 0 hr 16 min 59 sec) 
Heartbeat CPU 0 instructions: 490000000 cycles: 1035663151 heartbeat IPC: 0.396965 cumulative IPC: 0.40063 (Simulation time: 0 hr 17 min 24 sec) 
Heartbeat CPU 0 instructions: 500000000 cycles: 1061166455 heartbeat IPC: 0.392106 cumulative IPC: 0.400412 (Simulation time: 0 hr 17 min 48 sec) 
Heartbeat CPU 0 instructions: 510000003 cycles: 1086523289 heartbeat IPC: 0.394371 cumulative IPC: 0.400262 (Simulation time: 0 hr 18 min 12 sec) 
Heartbeat CPU 0 instructions: 520000000 cycles: 1112049325 heartbeat IPC: 0.391757 cumulative IPC: 0.400056 (Simulation time: 0 hr 18 min 37 sec) 
Heartbeat CPU 0 instructions: 530000003 cycles: 1137602173 heartbeat IPC: 0.391346 cumulative IPC: 0.399849 (Simulation time: 0 hr 19 min 1 sec) 
Heartbeat CPU 0 instructions: 540000000 cycles: 1163065010 heartbeat IPC: 0.392729 cumulative IPC: 0.399684 (Simulation time: 0 hr 19 min 25 sec) 
Heartbeat CPU 0 instructions: 550000000 cycles: 1188540622 heartbeat IPC: 0.392532 cumulative IPC: 0.399522 (Simulation time: 0 hr 19 min 50 sec) 
Heartbeat CPU 0 instructions: 560000000 cycles: 1214348074 heartbeat IPC: 0.387485 cumulative IPC: 0.399253 (Simulation time: 0 hr 20 min 14 sec) 
Heartbeat CPU 0 instructions: 570000001 cycles: 1240068347 heartbeat IPC: 0.388798 cumulative IPC: 0.399024 (Simulation time: 0 hr 20 min 39 sec) 
Heartbeat CPU 0 instructions: 580000000 cycles: 1265801950 heartbeat IPC: 0.388597 cumulative IPC: 0.398801 (Simulation time: 0 hr 21 min 3 sec) 
Heartbeat CPU 0 instructions: 590000000 cycles: 1291707757 heartbeat IPC: 0.386014 cumulative IPC: 0.398532 (Simulation time: 0 hr 21 min 28 sec) 
Heartbeat CPU 0 instructions: 600000000 cycles: 1317680794 heartbeat IPC: 0.385015 cumulative IPC: 0.398252 (Simulation time: 0 hr 21 min 53 sec) 
Finished CPU 0 instructions: 500000003 cycles: 1255485462 cumulative IPC: 0.398252 (Simulation time: 0 hr 21 min 53 sec) 

CPU 0 Branch Prediction Accuracy: 91.1342% MPKI: 18.7968
Number of Branches: 106006945 Number of Mispredictions: 9398408
Number of LOAD Instructions: 207894007
Number of LOAD Instructions (ROI): 207894007
Number of STORE Instructions: 54285997
Number of STORE Instructions (ROI): 54285997
Total Destination Memory Operands: 57463404
Total Destination Memory Operands (ROI): 57463404
Total Source Memory Operands: 207894007
Total Source Memory Operands (ROI): 207894007
Number of DEPENDED LOADS: 18116708
Number of DEPENDED LOADS (ROI): 18116708
Number of SQ_ADDED: 57463404
Number of SQ_ADDED (ROI): 57463404
Number of LQ_ADDED: 209255344
Number of LQ_ADDED (ROI): 209255344
Number of Instructions read from trace: 600000039

ChampSim completed all CPUs

Region of Interest Statistics

CPU 0 cumulative IPC: 0.398252 instructions: 500000003 cycles: 1255485462
ITLB TOTAL     ACCESS:   96393143  HIT:   96393143  MISS:          0
ITLB LOAD      ACCESS:   96393143  HIT:   96393143  MISS:          0
ITLB RFO       ACCESS:          0  HIT:          0  MISS:          0
ITLB PREFETCH  ACCESS:          0  HIT:          0  MISS:          0
ITLB WRITEBACK ACCESS:          0  HIT:          0  MISS:          0
ITLB PREFETCH  REQUESTED:          0  ISSUED:          0  USEFUL:          0  USELESS:          0
ITLB TOTAL MSHR MERGED:          0
ITLB LOAD MSHR MERGED:          0
ITLB RFO MSHR MERGED:          0
ITLB PREFETCH MSHR MERGED:          0
ITLB WRITEBACK MSHR MERGED:          0
ITLB TOTAL ACCESSES:   96393143 HITS:   96393143 MISSES:          0
ITLB LOAD ACCESSES:   96393143 HITS:   96393143 MISSES:          0
ITLB RFO ACCESSES:          0 HITS:          0 MISSES:          0
ITLB PREFETCH ACCESSES:          0 HITS:          0 MISSES:          0
ITLB WRITEBACK ACCESSES:          0 HITS:          0 MISSES:          0
ITLB RQ ACCESS:  499999980
ITLB RQ TO_CACHE:   96393143
ITLB RQ MERGED:  403606837
ITLB RQ FORWARD:          0
ITLB WQ ACCESS:          0
ITLB WQ TO_CACHE:          0
ITLB WQ MERGED:          0
ITLB WQ FORWARD:          0
DTLB TOTAL     ACCESS:  155161095  HIT:  150248960  MISS:    4912135
DTLB LOAD      ACCESS:  117709541  HIT:  113319085  MISS:    4390456
DTLB RFO       ACCESS:   37451554  HIT:   36929875  MISS:     521679
DTLB PREFETCH  ACCESS:          0  HIT:          0  MISS:          0
DTLB WRITEBACK ACCESS:          0  HIT:          0  MISS:          0
DTLB PREFETCH  REQUESTED:          0  ISSUED:          0  USEFUL:          0  USELESS:          0
DTLB TOTAL MSHR MERGED:     452485
DTLB LOAD MSHR MERGED:     161084
DTLB RFO MSHR MERGED:     291401
DTLB PREFETCH MSHR MERGED:          0
DTLB WRITEBACK MSHR MERGED:          0
DTLB TOTAL ACCESSES:  155613580 HITS:  150248960 MISSES:    5364620
DTLB LOAD ACCESSES:  117870625 HITS:  113319085 MISSES:    4551540
DTLB RFO ACCESSES:   37742955 HITS:   36929875 MISSES:     813080
DTLB PREFETCH ACCESSES:          0 HITS:          0 MISSES:          0
DTLB WRITEBACK ACCESSES:          0 HITS:          0 MISSES:          0
DTLB RQ ACCESS:  205966566
DTLB RQ TO_CACHE:  155613580
DTLB RQ MERGED:   50352986
DTLB RQ FORWARD:          0
DTLB WQ ACCESS:          0
DTLB WQ TO_CACHE:          0
DTLB WQ MERGED:          0
DTLB WQ FORWARD:          0
L1D TOTAL     ACCESS:  277100075  HIT:  242278078  MISS:   34821997
L1D LOAD      ACCESS:  125399059  HIT:  107754661  MISS:   17644398
L1D RFO       ACCESS:   41127194  HIT:   38815386  MISS:    2311808
L1D PREFETCH  ACCESS:  110573822  HIT:   95708031  MISS:   14865791
L1D WRITEBACK ACCESS:          0  HIT:          0  MISS:          0
L1D PREFETCH  REQUESTED:  126255097  ISSUED:  124736001  USEFUL:    2700020  USELESS:   12165797
L1D TOTAL MSHR MERGED:    8524997
L1D LOAD MSHR MERGED:    1548869
L1D RFO MSHR MERGED:    3775768
L1D PREFETCH MSHR MERGED:    3200360
L1D WRITEBACK MSHR MERGED:          0
L1D TOTAL ACCESSES:  285712388 HITS:  242365392 MISSES:   43346996
L1D LOAD ACCESSES:  126255133 HITS:  107754697 MISSES:   18500436
L1D RFO ACCESSES:   44902467 HITS:   38815386 MISSES:    6087081
L1D PREFETCH ACCESSES:  114554788 HITS:   95795309 MISSES:   18759479
L1D WRITEBACK ACCESSES:          0 HITS:          0 MISSES:          0
L1D RQ ACCESS:  158419685
L1D RQ TO_CACHE:  126255097
L1D RQ MERGED:   32164552
L1D RQ FORWARD:          0
L1D WQ ACCESS:   47546882
L1D WQ TO_CACHE:   44902467
L1D WQ MERGED:    2644415
L1D WQ FORWARD:      87314
L1I TOTAL     ACCESS:  132797667  HIT:  132797667  MISS:          0
L1I LOAD      ACCESS:  132797667  HIT:  132797667  MISS:          0
L1I RFO       ACCESS:          0  HIT:          0  MISS:          0
L1I PREFETCH  ACCESS:          0  HIT:          0  MISS:          0
L1I WRITEBACK ACCESS:          0  HIT:          0  MISS:          0
L1I PREFETCH  REQUESTED:          0  ISSUED:          0  USEFUL:          0  USELESS:          0
L1I TOTAL MSHR MERGED:          0
L1I LOAD MSHR MERGED:          0
L1I RFO MSHR MERGED:          0
L1I PREFETCH MSHR MERGED:          0
L1I WRITEBACK MSHR MERGED:          0
L1I TOTAL ACCESSES:  132797667 HITS:  132797667 MISSES:          0
L1I LOAD ACCESSES:  132797667 HITS:  132797667 MISSES:          0
L1I RFO ACCESSES:          0 HITS:          0 MISSES:          0
L1I PREFETCH ACCESSES:          0 HITS:          0 MISSES:          0
L1I WRITEBACK ACCESSES:          0 HITS:          0 MISSES:          0
L1I RQ ACCESS:  499999980
L1I RQ TO_CACHE:  132797667
L1I RQ MERGED:  367202313
L1I RQ FORWARD:          0
L1I WQ ACCESS:          0
L1I WQ TO_CACHE:          0
L1I WQ MERGED:          0
L1I WQ FORWARD:          0
L2C TOTAL     ACCESS:   39596944  HIT:   20627849  MISS:   18969095
L2C LOAD      ACCESS:   16951505  HIT:    8567404  MISS:    8384101
L2C RFO       ACCESS:    2311264  HIT:     630823  MISS:    1680441
L2C PREFETCH  ACCESS:   17111756  HIT:    8210953  MISS:    8900803
L2C WRITEBACK ACCESS:    3222419  HIT:    3218669  MISS:       3750
L2C PREFETCH  REQUESTED:    2893645  ISSUED:    2893645  USEFUL:    1306813  USELESS:    7593734
L2C TOTAL MSHR MERGED:     538251
L2C LOAD MSHR MERGED:      92662
L2C RFO MSHR MERGED:          0
L2C PREFETCH MSHR MERGED:     445589
L2C WRITEBACK MSHR MERGED:          0
L2C TOTAL ACCESSES:   40263186 HITS:   20628010 MISSES:   19635176
L2C LOAD ACCESSES:   16951567 HITS:    8567466 MISSES:    8384101
L2C RFO ACCESSES:    2311313 HITS:     630872 MISSES:    1680441
L2C PREFETCH ACCESSES:   17777887 HITS:    8211003 MISSES:    9566884
L2C WRITEBACK ACCESSES:    3222419 HITS:    3218669 MISSES:       3750
L2C RQ ACCESS:   19262880
L2C RQ TO_CACHE:   19262769
L2C RQ MERGED:          0
L2C RQ FORWARD:          0
L2C WQ ACCESS:    3222419
L2C WQ TO_CACHE:    3222419
L2C WQ MERGED:          0
L2C WQ FORWARD:        161
LLC TOTAL     ACCESS:   21203625  HIT:   13604879  MISS:    7598746
LLC LOAD      ACCESS:    8291415  HIT:    5731068  MISS:    2560347
LLC RFO       ACCESS:    1680354  HIT:    1603636  MISS:      76718
LLC PREFETCH  ACCESS:    9056214  HIT:    4166827  MISS:    4889387
LLC WRITEBACK ACCESS:    2175642  HIT:    2103348  MISS:      72294
LLC PREFETCH  REQUESTED:          0  ISSUED:          0  USEFUL:     192442  USELESS:    4698961
LLC TOTAL MSHR MERGED:      55043
LLC LOAD MSHR MERGED:      17426
LLC RFO MSHR MERGED:          0
LLC PREFETCH MSHR MERGED:      37617
LLC WRITEBACK MSHR MERGED:          0
LLC TOTAL ACCESSES:   21258811 HITS:   13605021 MISSES:    7653790
LLC LOAD ACCESSES:    8291439 HITS:    5731092 MISSES:    2560347
LLC RFO ACCESSES:    1680441 HITS:    1603723 MISSES:      76718
LLC PREFETCH ACCESSES:    9111289 HITS:    4166858 MISSES:    4944431
LLC WRITEBACK ACCESSES:    2175642 HITS:    2103348 MISSES:      72294
LLC 0 RQ ACCESS:    9971880
LLC 0 RQ TO_CACHE:    9971769
LLC 0 RQ MERGED:          0
LLC 0 RQ FORWARD:          0
LLC WQ ACCESS:    2175644
LLC WQ TO_CACHE:    2175644
LLC WQ MERGED:          0
LLC WQ FORWARD:        142
Major fault: 0 Minor fault: 56391
CPU 0 L1D next line prefetcher final stats
CPU 0 L2C PC-based stride prefetcher final stats
All Misses: 8906986
All Hits: 15673478
SD Algo Stats - Switches: 0 SRR-Repls: 2687812 BRR-Repls: 0

DRAM Statistics
 CHANNEL 0
 RQ ROW_BUFFER_HIT:    4612410  ROW_BUFFER_MISS:    2870060
 DBUS_CONGESTED:    3545022
 WQ ROW_BUFFER_HIT:      12214  ROW_BUFFER_MISS:     140947  FULL:          0

 AVG_CONGESTED_CYCLE: 12
LOADS RETIRED: 173631671
INSTR RETIRED: 500000000
