
*** ChampSim Multicore Out-of-Order Simulator ***

Warmup Instructions: 100000000
Simulation Instructions: 500000000
Number of CPUs: 1
LLC sets: 2048
LLC ways: 16
Clean RRIP Policies: 1213030112130301 Dirty RRIP Policies: 2213130122131301 PSEL Width: 10 Track Set: 4294967295 PSEL Mask: 1 Demote Mask: 3040241030402410DS Algo: 0Window size: 0
Off-chip DRAM Size: 4096 MB Channels: 1 Width: 64-bit Data Rate: 1600 MT/s

CPU 0 runs /mnt/beegfs/iconst01/spec2017/Wrf.trace.gz
NOT SORTED
TRACE STRING: /mnt/beegfs/iconst01/spec2017/Wrf.trace.gz
SORTED
TRACE STRING: /mnt/beegfs/iconst01/spec2017/Wrf.trace.gz
INITIAL
TRACE STRING: /mnt/beegfs/iconst01/spec2017/Wrf.trace.gz

champsim_seed used: 303

CPU 0 L1D next line prefetcher
CPU 0 L2C IP-based stride prefetcher
Initialize DRRIP state
Assign rand_sets[0]: 454  LLC: 2048
rand_sets[0]: 454
Assign rand_sets[1]: 1662  LLC: 2048
rand_sets[1]: 1662
Assign rand_sets[2]: 1921  LLC: 2048
rand_sets[2]: 1921
Assign rand_sets[3]: 1131  LLC: 2048
rand_sets[3]: 1131
Assign rand_sets[4]: 331  LLC: 2048
rand_sets[4]: 331
Assign rand_sets[5]: 1531  LLC: 2048
rand_sets[5]: 1531
Assign rand_sets[6]: 482  LLC: 2048
rand_sets[6]: 482
Assign rand_sets[7]: 1275  LLC: 2048
rand_sets[7]: 1275
Assign rand_sets[8]: 1876  LLC: 2048
rand_sets[8]: 1876
Assign rand_sets[9]: 2038  LLC: 2048
rand_sets[9]: 2038
Assign rand_sets[10]: 701  LLC: 2048
rand_sets[10]: 701
Assign rand_sets[11]: 479  LLC: 2048
rand_sets[11]: 479
Assign rand_sets[12]: 892  LLC: 2048
rand_sets[12]: 892
Assign rand_sets[13]: 1820  LLC: 2048
rand_sets[13]: 1820
Assign rand_sets[14]: 1505  LLC: 2048
rand_sets[14]: 1505
Assign rand_sets[15]: 1159  LLC: 2048
rand_sets[15]: 1159
Assign rand_sets[16]: 513  LLC: 2048
rand_sets[16]: 513
Assign rand_sets[17]: 703  LLC: 2048
rand_sets[17]: 703
Assign rand_sets[18]: 561  LLC: 2048
rand_sets[18]: 561
Assign rand_sets[19]: 990  LLC: 2048
rand_sets[19]: 990
Assign rand_sets[20]: 342  LLC: 2048
rand_sets[20]: 342
Assign rand_sets[21]: 882  LLC: 2048
rand_sets[21]: 882
Assign rand_sets[22]: 15  LLC: 2048
rand_sets[22]: 15
Assign rand_sets[23]: 71  LLC: 2048
rand_sets[23]: 71
Assign rand_sets[24]: 1127  LLC: 2048
rand_sets[24]: 1127
Assign rand_sets[25]: 1382  LLC: 2048
rand_sets[25]: 1382
Assign rand_sets[26]: 647  LLC: 2048
rand_sets[26]: 647
Assign rand_sets[27]: 857  LLC: 2048
rand_sets[27]: 857
Assign rand_sets[28]: 1450  LLC: 2048
rand_sets[28]: 1450
Assign rand_sets[29]: 1160  LLC: 2048
rand_sets[29]: 1160
Assign rand_sets[30]: 1852  LLC: 2048
rand_sets[30]: 1852
Assign rand_sets[31]: 1881  LLC: 2048
rand_sets[31]: 1881
Assign rand_sets[32]: 1770  LLC: 2048
rand_sets[32]: 1770
Assign rand_sets[33]: 1622  LLC: 2048
rand_sets[33]: 1622
Assign rand_sets[34]: 275  LLC: 2048
rand_sets[34]: 275
Assign rand_sets[35]: 635  LLC: 2048
rand_sets[35]: 635
Assign rand_sets[36]: 466  LLC: 2048
rand_sets[36]: 466
Assign rand_sets[37]: 1413  LLC: 2048
rand_sets[37]: 1413
Assign rand_sets[38]: 417  LLC: 2048
rand_sets[38]: 417
Assign rand_sets[39]: 472  LLC: 2048
rand_sets[39]: 472
Assign rand_sets[40]: 1340  LLC: 2048
rand_sets[40]: 1340
Assign rand_sets[41]: 852  LLC: 2048
rand_sets[41]: 852
Assign rand_sets[42]: 1365  LLC: 2048
rand_sets[42]: 1365
Assign rand_sets[43]: 47  LLC: 2048
rand_sets[43]: 47
Assign rand_sets[44]: 823  LLC: 2048
rand_sets[44]: 823
Assign rand_sets[45]: 686  LLC: 2048
rand_sets[45]: 686
Assign rand_sets[46]: 1637  LLC: 2048
rand_sets[46]: 1637
Assign rand_sets[47]: 1115  LLC: 2048
rand_sets[47]: 1115
Assign rand_sets[48]: 986  LLC: 2048
rand_sets[48]: 986
Assign rand_sets[49]: 258  LLC: 2048
rand_sets[49]: 258
Assign rand_sets[50]: 633  LLC: 2048
rand_sets[50]: 633
Assign rand_sets[51]: 920  LLC: 2048
rand_sets[51]: 920
Assign rand_sets[52]: 204  LLC: 2048
rand_sets[52]: 204
Assign rand_sets[53]: 227  LLC: 2048
rand_sets[53]: 227
Assign rand_sets[54]: 1818  LLC: 2048
rand_sets[54]: 1818
Assign rand_sets[55]: 886  LLC: 2048
rand_sets[55]: 886
Assign rand_sets[56]: 1422  LLC: 2048
rand_sets[56]: 1422
Assign rand_sets[57]: 607  LLC: 2048
rand_sets[57]: 607
Assign rand_sets[58]: 217  LLC: 2048
rand_sets[58]: 217
Assign rand_sets[59]: 1945  LLC: 2048
rand_sets[59]: 1945
Assign rand_sets[60]: 143  LLC: 2048
rand_sets[60]: 143
Assign rand_sets[61]: 1311  LLC: 2048
rand_sets[61]: 1311
Assign rand_sets[62]: 319  LLC: 2048
rand_sets[62]: 319
Assign rand_sets[63]: 1846  LLC: 2048
rand_sets[63]: 1846
 CLEAN-RRIP-POLICY-1: 1-2-1-3-0-3-0-1- CLEAN-RRIP-POLICY-2: 1-2-1-3-0-3-0-1-
 DIRTY-RRIP-POLICY-1: 2-2-1-3-1-3-0-1- DIRTY-RRIP-POLICY-2: 2-2-1-3-1-3-0-1-
 PSEL width: 10
Heartbeat CPU 0 instructions: 10000002 cycles: 6559549 heartbeat IPC: 1.5245 cumulative IPC: 1.5245 (Simulation time: 0 hr 0 min 22 sec) 
Heartbeat CPU 0 instructions: 20000000 cycles: 12222119 heartbeat IPC: 1.76598 cumulative IPC: 1.63638 (Simulation time: 0 hr 0 min 41 sec) 
Heartbeat CPU 0 instructions: 30000003 cycles: 18203894 heartbeat IPC: 1.67175 cumulative IPC: 1.648 (Simulation time: 0 hr 1 min 2 sec) 
Heartbeat CPU 0 instructions: 40000000 cycles: 24059233 heartbeat IPC: 1.70784 cumulative IPC: 1.66256 (Simulation time: 0 hr 1 min 22 sec) 
Heartbeat CPU 0 instructions: 50000000 cycles: 29527592 heartbeat IPC: 1.8287 cumulative IPC: 1.69333 (Simulation time: 0 hr 1 min 42 sec) 
Heartbeat CPU 0 instructions: 60000000 cycles: 35640362 heartbeat IPC: 1.63592 cumulative IPC: 1.68348 (Simulation time: 0 hr 2 min 3 sec) 
Heartbeat CPU 0 instructions: 70000000 cycles: 41359997 heartbeat IPC: 1.74836 cumulative IPC: 1.69246 (Simulation time: 0 hr 2 min 23 sec) 
Heartbeat CPU 0 instructions: 80000000 cycles: 47230909 heartbeat IPC: 1.70331 cumulative IPC: 1.69381 (Simulation time: 0 hr 2 min 43 sec) 
Heartbeat CPU 0 instructions: 90000000 cycles: 52984420 heartbeat IPC: 1.73807 cumulative IPC: 1.69861 (Simulation time: 0 hr 3 min 4 sec) 
Heartbeat CPU 0 instructions: 100000000 cycles: 58537175 heartbeat IPC: 1.80091 cumulative IPC: 1.70832 (Simulation time: 0 hr 3 min 24 sec) 

Warmup complete CPU 0 instructions: 100000004 cycles: 58537177 (Simulation time: 0 hr 3 min 24 sec) 

Heartbeat CPU 0 instructions: 110000001 cycles: 72682656 heartbeat IPC: 0.70694 cumulative IPC: 0.706939 (Simulation time: 0 hr 3 min 49 sec) 
Heartbeat CPU 0 instructions: 120000000 cycles: 83726719 heartbeat IPC: 0.905464 cumulative IPC: 0.79398 (Simulation time: 0 hr 4 min 13 sec) 
Heartbeat CPU 0 instructions: 130000000 cycles: 93659057 heartbeat IPC: 1.00681 cumulative IPC: 0.854168 (Simulation time: 0 hr 4 min 35 sec) 
Heartbeat CPU 0 instructions: 140000000 cycles: 104575383 heartbeat IPC: 0.916059 cumulative IPC: 0.868843 (Simulation time: 0 hr 4 min 58 sec) 
Heartbeat CPU 0 instructions: 150000002 cycles: 115732141 heartbeat IPC: 0.896318 cumulative IPC: 0.874203 (Simulation time: 0 hr 5 min 22 sec) 
Heartbeat CPU 0 instructions: 160000000 cycles: 124579084 heartbeat IPC: 1.13033 cumulative IPC: 0.908514 (Simulation time: 0 hr 5 min 44 sec) 
Heartbeat CPU 0 instructions: 170000003 cycles: 135082257 heartbeat IPC: 0.952094 cumulative IPC: 0.914494 (Simulation time: 0 hr 6 min 6 sec) 
Heartbeat CPU 0 instructions: 180000000 cycles: 147702989 heartbeat IPC: 0.792347 cumulative IPC: 0.897205 (Simulation time: 0 hr 6 min 31 sec) 
Heartbeat CPU 0 instructions: 190000000 cycles: 162777604 heartbeat IPC: 0.663367 cumulative IPC: 0.863389 (Simulation time: 0 hr 6 min 54 sec) 
Heartbeat CPU 0 instructions: 200000000 cycles: 177810061 heartbeat IPC: 0.665227 cumulative IPC: 0.838413 (Simulation time: 0 hr 7 min 18 sec) 
Heartbeat CPU 0 instructions: 210000000 cycles: 192847660 heartbeat IPC: 0.665 cumulative IPC: 0.818998 (Simulation time: 0 hr 7 min 42 sec) 
Heartbeat CPU 0 instructions: 220000000 cycles: 208848790 heartbeat IPC: 0.624956 cumulative IPC: 0.798341 (Simulation time: 0 hr 8 min 8 sec) 
Heartbeat CPU 0 instructions: 230000003 cycles: 227291519 heartbeat IPC: 0.542219 cumulative IPC: 0.770351 (Simulation time: 0 hr 8 min 36 sec) 
Heartbeat CPU 0 instructions: 240000000 cycles: 236541191 heartbeat IPC: 1.08112 cumulative IPC: 0.786499 (Simulation time: 0 hr 8 min 57 sec) 
Heartbeat CPU 0 instructions: 250000000 cycles: 245299458 heartbeat IPC: 1.14178 cumulative IPC: 0.80316 (Simulation time: 0 hr 9 min 19 sec) 
Heartbeat CPU 0 instructions: 260000000 cycles: 254424577 heartbeat IPC: 1.09588 cumulative IPC: 0.816796 (Simulation time: 0 hr 9 min 40 sec) 
Heartbeat CPU 0 instructions: 270000000 cycles: 264055059 heartbeat IPC: 1.03837 cumulative IPC: 0.827179 (Simulation time: 0 hr 10 min 2 sec) 
Heartbeat CPU 0 instructions: 280000000 cycles: 273929793 heartbeat IPC: 1.01269 cumulative IPC: 0.835683 (Simulation time: 0 hr 10 min 26 sec) 
Heartbeat CPU 0 instructions: 290000000 cycles: 284157105 heartbeat IPC: 0.977774 cumulative IPC: 0.842124 (Simulation time: 0 hr 10 min 50 sec) 
Heartbeat CPU 0 instructions: 300000000 cycles: 293290243 heartbeat IPC: 1.09491 cumulative IPC: 0.851959 (Simulation time: 0 hr 11 min 12 sec) 
Heartbeat CPU 0 instructions: 310000002 cycles: 308103061 heartbeat IPC: 0.675091 cumulative IPC: 0.841461 (Simulation time: 0 hr 11 min 39 sec) 
Heartbeat CPU 0 instructions: 320000000 cycles: 324190610 heartbeat IPC: 0.621599 cumulative IPC: 0.828147 (Simulation time: 0 hr 12 min 7 sec) 
Heartbeat CPU 0 instructions: 330000002 cycles: 334949395 heartbeat IPC: 0.929473 cumulative IPC: 0.832091 (Simulation time: 0 hr 12 min 30 sec) 
Heartbeat CPU 0 instructions: 340000000 cycles: 345683198 heartbeat IPC: 0.931636 cumulative IPC: 0.835812 (Simulation time: 0 hr 12 min 54 sec) 
Heartbeat CPU 0 instructions: 350000002 cycles: 359169595 heartbeat IPC: 0.741488 cumulative IPC: 0.83158 (Simulation time: 0 hr 13 min 20 sec) 
Heartbeat CPU 0 instructions: 360000000 cycles: 370490462 heartbeat IPC: 0.883324 cumulative IPC: 0.833458 (Simulation time: 0 hr 13 min 44 sec) 
Heartbeat CPU 0 instructions: 370000000 cycles: 381515434 heartbeat IPC: 0.907032 cumulative IPC: 0.83597 (Simulation time: 0 hr 14 min 8 sec) 
Heartbeat CPU 0 instructions: 380000000 cycles: 392224222 heartbeat IPC: 0.933812 cumulative IPC: 0.83911 (Simulation time: 0 hr 14 min 32 sec) 
Heartbeat CPU 0 instructions: 390000003 cycles: 410126199 heartbeat IPC: 0.558598 cumulative IPC: 0.824827 (Simulation time: 0 hr 15 min 1 sec) 
Heartbeat CPU 0 instructions: 400000000 cycles: 421181901 heartbeat IPC: 0.90451 cumulative IPC: 0.827256 (Simulation time: 0 hr 15 min 24 sec) 
Heartbeat CPU 0 instructions: 410000002 cycles: 431445670 heartbeat IPC: 0.974301 cumulative IPC: 0.831303 (Simulation time: 0 hr 15 min 46 sec) 
Heartbeat CPU 0 instructions: 420000000 cycles: 441394238 heartbeat IPC: 1.00517 cumulative IPC: 0.835821 (Simulation time: 0 hr 16 min 7 sec) 
Heartbeat CPU 0 instructions: 430000003 cycles: 451437647 heartbeat IPC: 0.995678 cumulative IPC: 0.839907 (Simulation time: 0 hr 16 min 29 sec) 
Heartbeat CPU 0 instructions: 440000000 cycles: 462953803 heartbeat IPC: 0.868345 cumulative IPC: 0.840717 (Simulation time: 0 hr 16 min 51 sec) 
Heartbeat CPU 0 instructions: 450000002 cycles: 478045875 heartbeat IPC: 0.6626 cumulative IPC: 0.834309 (Simulation time: 0 hr 17 min 15 sec) 
Heartbeat CPU 0 instructions: 460000000 cycles: 493098158 heartbeat IPC: 0.664351 cumulative IPC: 0.828422 (Simulation time: 0 hr 17 min 39 sec) 
Heartbeat CPU 0 instructions: 470000003 cycles: 508141593 heartbeat IPC: 0.664742 cumulative IPC: 0.822946 (Simulation time: 0 hr 18 min 2 sec) 
Heartbeat CPU 0 instructions: 480000000 cycles: 524037171 heartbeat IPC: 0.629106 cumulative IPC: 0.816327 (Simulation time: 0 hr 18 min 28 sec) 
Heartbeat CPU 0 instructions: 490000002 cycles: 542595504 heartbeat IPC: 0.538842 cumulative IPC: 0.805688 (Simulation time: 0 hr 18 min 55 sec) 
Heartbeat CPU 0 instructions: 500000000 cycles: 551786746 heartbeat IPC: 1.08799 cumulative IPC: 0.810948 (Simulation time: 0 hr 19 min 17 sec) 
Heartbeat CPU 0 instructions: 510000002 cycles: 560609053 heartbeat IPC: 1.13349 cumulative IPC: 0.816616 (Simulation time: 0 hr 19 min 38 sec) 
Heartbeat CPU 0 instructions: 520000000 cycles: 569731876 heartbeat IPC: 1.09615 cumulative IPC: 0.821605 (Simulation time: 0 hr 19 min 59 sec) 
Heartbeat CPU 0 instructions: 530000002 cycles: 579369413 heartbeat IPC: 1.03761 cumulative IPC: 0.825602 (Simulation time: 0 hr 20 min 21 sec) 
Heartbeat CPU 0 instructions: 540000000 cycles: 589181873 heartbeat IPC: 1.01911 cumulative IPC: 0.82918 (Simulation time: 0 hr 20 min 44 sec) 
Heartbeat CPU 0 instructions: 550000002 cycles: 599449421 heartbeat IPC: 0.973943 cumulative IPC: 0.831928 (Simulation time: 0 hr 21 min 8 sec) 
Heartbeat CPU 0 instructions: 560000000 cycles: 608577596 heartbeat IPC: 1.09551 cumulative IPC: 0.836302 (Simulation time: 0 hr 21 min 30 sec) 
Heartbeat CPU 0 instructions: 570000003 cycles: 623251339 heartbeat IPC: 0.68149 cumulative IPC: 0.832279 (Simulation time: 0 hr 21 min 56 sec) 
Heartbeat CPU 0 instructions: 580000000 cycles: 639486679 heartbeat IPC: 0.61594 cumulative IPC: 0.826234 (Simulation time: 0 hr 22 min 24 sec) 
Heartbeat CPU 0 instructions: 590000002 cycles: 649775702 heartbeat IPC: 0.97191 cumulative IPC: 0.828769 (Simulation time: 0 hr 22 min 47 sec) 
Heartbeat CPU 0 instructions: 600000000 cycles: 660975046 heartbeat IPC: 0.892909 cumulative IPC: 0.829961 (Simulation time: 0 hr 23 min 11 sec) 
Finished CPU 0 instructions: 500000000 cycles: 602437888 cumulative IPC: 0.829961 (Simulation time: 0 hr 23 min 11 sec) 

CPU 0 Branch Prediction Accuracy: 99.5219% MPKI: 0.251582
Number of Branches: 26312578 Number of Mispredictions: 125791
Number of LOAD Instructions: 235643083
Number of LOAD Instructions (ROI): 235643083
Number of STORE Instructions: 37593550
Number of STORE Instructions (ROI): 37593550
Total Destination Memory Operands: 40480968
Total Destination Memory Operands (ROI): 40480968
Total Source Memory Operands: 235643083
Total Source Memory Operands (ROI): 235643083
Number of DEPENDED LOADS: 6701255
Number of DEPENDED LOADS (ROI): 6701255
Number of SQ_ADDED: 40480950
Number of SQ_ADDED (ROI): 40480950
Number of LQ_ADDED: 390963294
Number of LQ_ADDED (ROI): 390963294
Number of Instructions read from trace: 600000259

ChampSim completed all CPUs

Region of Interest Statistics

CPU 0 cumulative IPC: 0.829961 instructions: 500000000 cycles: 602437888
ITLB TOTAL     ACCESS:  109352125  HIT:  109351612  MISS:        513
ITLB LOAD      ACCESS:  109352125  HIT:  109351612  MISS:        513
ITLB RFO       ACCESS:          0  HIT:          0  MISS:          0
ITLB PREFETCH  ACCESS:          0  HIT:          0  MISS:          0
ITLB WRITEBACK ACCESS:          0  HIT:          0  MISS:          0
ITLB PREFETCH  REQUESTED:          0  ISSUED:          0  USEFUL:          0  USELESS:          0
ITLB TOTAL MSHR MERGED:        962
ITLB LOAD MSHR MERGED:        962
ITLB RFO MSHR MERGED:          0
ITLB PREFETCH MSHR MERGED:          0
ITLB WRITEBACK MSHR MERGED:          0
ITLB TOTAL ACCESSES:  109353087 HITS:  109351612 MISSES:       1475
ITLB LOAD ACCESSES:  109353087 HITS:  109351612 MISSES:       1475
ITLB RFO ACCESSES:          0 HITS:          0 MISSES:          0
ITLB PREFETCH ACCESSES:          0 HITS:          0 MISSES:          0
ITLB WRITEBACK ACCESSES:          0 HITS:          0 MISSES:          0
ITLB RQ ACCESS:  500000003
ITLB RQ TO_CACHE:  109353087
ITLB RQ MERGED:  390646916
ITLB RQ FORWARD:          0
ITLB WQ ACCESS:          0
ITLB WQ TO_CACHE:          0
ITLB WQ MERGED:          0
ITLB WQ FORWARD:          0
DTLB TOTAL     ACCESS:  130451421  HIT:  130193806  MISS:     257615
DTLB LOAD      ACCESS:  109052881  HIT:  108832089  MISS:     220792
DTLB RFO       ACCESS:   21398540  HIT:   21361717  MISS:      36823
DTLB PREFETCH  ACCESS:          0  HIT:          0  MISS:          0
DTLB WRITEBACK ACCESS:          0  HIT:          0  MISS:          0
DTLB PREFETCH  REQUESTED:          0  ISSUED:          0  USEFUL:          0  USELESS:          0
DTLB TOTAL MSHR MERGED:     121255
DTLB LOAD MSHR MERGED:      83438
DTLB RFO MSHR MERGED:      37817
DTLB PREFETCH MSHR MERGED:          0
DTLB WRITEBACK MSHR MERGED:          0
DTLB TOTAL ACCESSES:  130572676 HITS:  130193806 MISSES:     378870
DTLB LOAD ACCESSES:  109136319 HITS:  108832089 MISSES:     304230
DTLB RFO ACCESSES:   21436357 HITS:   21361717 MISSES:      74640
DTLB PREFETCH ACCESSES:          0 HITS:          0 MISSES:          0
DTLB WRITEBACK ACCESSES:          0 HITS:          0 MISSES:          0
DTLB RQ ACCESS:  218633145
DTLB RQ TO_CACHE:  130572677
DTLB RQ MERGED:   88060468
DTLB RQ FORWARD:          0
DTLB WQ ACCESS:          0
DTLB WQ TO_CACHE:          0
DTLB WQ MERGED:          0
DTLB WQ FORWARD:          0
L1D TOTAL     ACCESS:  204534978  HIT:  193463847  MISS:   11071131
L1D LOAD      ACCESS:  106272898  HIT:  103073426  MISS:    3199472
L1D RFO       ACCESS:   26950997  HIT:   25201719  MISS:    1749278
L1D PREFETCH  ACCESS:   71311083  HIT:   65188702  MISS:    6122381
L1D WRITEBACK ACCESS:          0  HIT:          0  MISS:          0
L1D PREFETCH  REQUESTED:  108926875  ISSUED:  107262670  USEFUL:    5667627  USELESS:     454748
L1D TOTAL MSHR MERGED:   18421286
L1D LOAD MSHR MERGED:    4689556
L1D RFO MSHR MERGED:    6481736
L1D PREFETCH MSHR MERGED:    7249994
L1D WRITEBACK MSHR MERGED:          0
L1D TOTAL ACCESSES:  223020007 HITS:  193527590 MISSES:   29492417
L1D LOAD ACCESSES:  108954808 HITS:  103101359 MISSES:    5853449
L1D RFO ACCESSES:   33430848 HITS:   25201719 MISSES:    8229129
L1D PREFETCH ACCESSES:   80634351 HITS:   65224512 MISSES:   15409839
L1D WRITEBACK ACCESSES:          0 HITS:          0 MISSES:          0
L1D RQ ACCESS:  184989707
L1D RQ TO_CACHE:  108926875
L1D RQ MERGED:   76034899
L1D RQ FORWARD:          0
L1D WQ ACCESS:   33643426
L1D WQ TO_CACHE:   33430847
L1D WQ MERGED:     212579
L1D WQ FORWARD:      63743
L1I TOTAL     ACCESS:  134039152  HIT:  134014574  MISS:      24578
L1I LOAD      ACCESS:  134039152  HIT:  134014574  MISS:      24578
L1I RFO       ACCESS:          0  HIT:          0  MISS:          0
L1I PREFETCH  ACCESS:          0  HIT:          0  MISS:          0
L1I WRITEBACK ACCESS:          0  HIT:          0  MISS:          0
L1I PREFETCH  REQUESTED:          0  ISSUED:          0  USEFUL:          0  USELESS:          0
L1I TOTAL MSHR MERGED:      30106
L1I LOAD MSHR MERGED:      30106
L1I RFO MSHR MERGED:          0
L1I PREFETCH MSHR MERGED:          0
L1I WRITEBACK MSHR MERGED:          0
L1I TOTAL ACCESSES:  134069258 HITS:  134014574 MISSES:      54684
L1I LOAD ACCESSES:  134069258 HITS:  134014574 MISSES:      54684
L1I RFO ACCESSES:          0 HITS:          0 MISSES:          0
L1I PREFETCH ACCESSES:          0 HITS:          0 MISSES:          0
L1I WRITEBACK ACCESSES:          0 HITS:          0 MISSES:          0
L1I RQ ACCESS:  500000005
L1I RQ TO_CACHE:  134069258
L1I RQ MERGED:  365930747
L1I RQ FORWARD:          0
L1I WQ ACCESS:          0
L1I WQ TO_CACHE:          0
L1I WQ MERGED:          0
L1I WQ FORWARD:          0
L2C TOTAL     ACCESS:   14936898  HIT:    6945135  MISS:    7991763
L2C LOAD      ACCESS:    1188282  HIT:     299196  MISS:     889086
L2C RFO       ACCESS:    1747184  HIT:     368611  MISS:    1378573
L2C PREFETCH  ACCESS:    8319592  HIT:    2604168  MISS:    5715424
L2C WRITEBACK ACCESS:    3681840  HIT:    3673160  MISS:       8680
L2C PREFETCH  REQUESTED:     388455  ISSUED:     388448  USEFUL:     113615  USELESS:    5602644
L2C TOTAL MSHR MERGED:      41365
L2C LOAD MSHR MERGED:       2279
L2C RFO MSHR MERGED:       1160
L2C PREFETCH MSHR MERGED:      37926
L2C WRITEBACK MSHR MERGED:          0
L2C TOTAL ACCESSES:   15102709 HITS:    6945827 MISSES:    8156882
L2C LOAD ACCESSES:    1188471 HITS:     299385 MISSES:     889086
L2C RFO ACCESSES:    1747393 HITS:     368820 MISSES:    1378573
L2C PREFETCH ACCESSES:    8485005 HITS:    2604462 MISSES:    5880543
L2C WRITEBACK ACCESSES:    3681840 HITS:    3673160 MISSES:       8680
L2C RQ ACCESS:    2935864
L2C RQ TO_CACHE:    2935466
L2C RQ MERGED:          0
L2C RQ FORWARD:          0
L2C WQ ACCESS:    3681840
L2C WQ TO_CACHE:    3681840
L2C WQ MERGED:          0
L2C WQ FORWARD:        692
LLC TOTAL     ACCESS:   11179277  HIT:    2739512  MISS:    8439765
LLC LOAD      ACCESS:     886800  HIT:     311933  MISS:     574867
LLC RFO       ACCESS:    1377409  HIT:     185741  MISS:    1191668
LLC PREFETCH  ACCESS:    5811512  HIT:    1056644  MISS:    4754868
LLC WRITEBACK ACCESS:    3103556  HIT:    1185194  MISS:    1918362
LLC PREFETCH  REQUESTED:          0  ISSUED:          0  USEFUL:      34107  USELESS:    4720003
LLC TOTAL MSHR MERGED:      23645
LLC LOAD MSHR MERGED:       7146
LLC RFO MSHR MERGED:        623
LLC PREFETCH MSHR MERGED:      15876
LLC WRITEBACK MSHR MERGED:          0
LLC TOTAL ACCESSES:   11202948 HITS:    2739538 MISSES:    8463410
LLC LOAD ACCESSES:     886807 HITS:     311940 MISSES:     574867
LLC RFO ACCESSES:    1377413 HITS:     185745 MISSES:    1191668
LLC PREFETCH ACCESSES:    5835172 HITS:    1056659 MISSES:    4778513
LLC WRITEBACK ACCESSES:    3103556 HITS:    1185194 MISSES:    1918362
LLC 0 RQ ACCESS:    2264220
LLC 0 RQ TO_CACHE:    2264209
LLC 0 RQ MERGED:          0
LLC 0 RQ FORWARD:          0
LLC WQ ACCESS:    3103556
LLC WQ TO_CACHE:    3103556
LLC WQ MERGED:          0
LLC WQ FORWARD:         26
Major fault: 0 Minor fault: 11519
CPU 0 L1D next line prefetcher final stats
CPU 0 L2C PC-based stride prefetcher final stats
All Misses: 10627556
All Hits: 3162845
SD Algo Stats - Switches: 0 SRR-Repls: 648859 BRR-Repls: 0

DRAM Statistics
 CHANNEL 0
 RQ ROW_BUFFER_HIT:    3932348  ROW_BUFFER_MISS:    2588115
 DBUS_CONGESTED:    4614532
 WQ ROW_BUFFER_HIT:     419726  ROW_BUFFER_MISS:    1905299  FULL:        301

 AVG_CONGESTED_CYCLE: 13
LOADS RETIRED: 190375692
INSTR RETIRED: 500000000
