
*** ChampSim Multicore Out-of-Order Simulator ***

Warmup Instructions: 100000000
Simulation Instructions: 500000000
Number of CPUs: 1
LLC sets: 2048
LLC ways: 16
Clean RRIP Policies: 1213030012130300 Dirty RRIP Policies: 2213030022130300 PSEL Width: 10 Track Set: 4294967295 PSEL Mask: 1 Demote Mask: 3340021433400214DS Algo: 0Window size: 0
Off-chip DRAM Size: 4096 MB Channels: 1 Width: 64-bit Data Rate: 1600 MT/s

CPU 0 runs /mnt/beegfs/iconst01/spec2017/cactuBSSN.trace.gz
NOT SORTED
TRACE STRING: /mnt/beegfs/iconst01/spec2017/cactuBSSN.trace.gz
SORTED
TRACE STRING: /mnt/beegfs/iconst01/spec2017/cactuBSSN.trace.gz
INITIAL
TRACE STRING: /mnt/beegfs/iconst01/spec2017/cactuBSSN.trace.gz

champsim_seed used: 838

CPU 0 L1D next line prefetcher
CPU 0 L2C IP-based stride prefetcher
Initialize DRRIP state
Assign rand_sets[0]: 454  LLC: 2048
rand_sets[0]: 454
Assign rand_sets[1]: 1662  LLC: 2048
rand_sets[1]: 1662
Assign rand_sets[2]: 1921  LLC: 2048
rand_sets[2]: 1921
Assign rand_sets[3]: 1131  LLC: 2048
rand_sets[3]: 1131
Assign rand_sets[4]: 331  LLC: 2048
rand_sets[4]: 331
Assign rand_sets[5]: 1531  LLC: 2048
rand_sets[5]: 1531
Assign rand_sets[6]: 482  LLC: 2048
rand_sets[6]: 482
Assign rand_sets[7]: 1275  LLC: 2048
rand_sets[7]: 1275
Assign rand_sets[8]: 1876  LLC: 2048
rand_sets[8]: 1876
Assign rand_sets[9]: 2038  LLC: 2048
rand_sets[9]: 2038
Assign rand_sets[10]: 701  LLC: 2048
rand_sets[10]: 701
Assign rand_sets[11]: 479  LLC: 2048
rand_sets[11]: 479
Assign rand_sets[12]: 892  LLC: 2048
rand_sets[12]: 892
Assign rand_sets[13]: 1820  LLC: 2048
rand_sets[13]: 1820
Assign rand_sets[14]: 1505  LLC: 2048
rand_sets[14]: 1505
Assign rand_sets[15]: 1159  LLC: 2048
rand_sets[15]: 1159
Assign rand_sets[16]: 513  LLC: 2048
rand_sets[16]: 513
Assign rand_sets[17]: 703  LLC: 2048
rand_sets[17]: 703
Assign rand_sets[18]: 561  LLC: 2048
rand_sets[18]: 561
Assign rand_sets[19]: 990  LLC: 2048
rand_sets[19]: 990
Assign rand_sets[20]: 342  LLC: 2048
rand_sets[20]: 342
Assign rand_sets[21]: 882  LLC: 2048
rand_sets[21]: 882
Assign rand_sets[22]: 15  LLC: 2048
rand_sets[22]: 15
Assign rand_sets[23]: 71  LLC: 2048
rand_sets[23]: 71
Assign rand_sets[24]: 1127  LLC: 2048
rand_sets[24]: 1127
Assign rand_sets[25]: 1382  LLC: 2048
rand_sets[25]: 1382
Assign rand_sets[26]: 647  LLC: 2048
rand_sets[26]: 647
Assign rand_sets[27]: 857  LLC: 2048
rand_sets[27]: 857
Assign rand_sets[28]: 1450  LLC: 2048
rand_sets[28]: 1450
Assign rand_sets[29]: 1160  LLC: 2048
rand_sets[29]: 1160
Assign rand_sets[30]: 1852  LLC: 2048
rand_sets[30]: 1852
Assign rand_sets[31]: 1881  LLC: 2048
rand_sets[31]: 1881
Assign rand_sets[32]: 1770  LLC: 2048
rand_sets[32]: 1770
Assign rand_sets[33]: 1622  LLC: 2048
rand_sets[33]: 1622
Assign rand_sets[34]: 275  LLC: 2048
rand_sets[34]: 275
Assign rand_sets[35]: 635  LLC: 2048
rand_sets[35]: 635
Assign rand_sets[36]: 466  LLC: 2048
rand_sets[36]: 466
Assign rand_sets[37]: 1413  LLC: 2048
rand_sets[37]: 1413
Assign rand_sets[38]: 417  LLC: 2048
rand_sets[38]: 417
Assign rand_sets[39]: 472  LLC: 2048
rand_sets[39]: 472
Assign rand_sets[40]: 1340  LLC: 2048
rand_sets[40]: 1340
Assign rand_sets[41]: 852  LLC: 2048
rand_sets[41]: 852
Assign rand_sets[42]: 1365  LLC: 2048
rand_sets[42]: 1365
Assign rand_sets[43]: 47  LLC: 2048
rand_sets[43]: 47
Assign rand_sets[44]: 823  LLC: 2048
rand_sets[44]: 823
Assign rand_sets[45]: 686  LLC: 2048
rand_sets[45]: 686
Assign rand_sets[46]: 1637  LLC: 2048
rand_sets[46]: 1637
Assign rand_sets[47]: 1115  LLC: 2048
rand_sets[47]: 1115
Assign rand_sets[48]: 986  LLC: 2048
rand_sets[48]: 986
Assign rand_sets[49]: 258  LLC: 2048
rand_sets[49]: 258
Assign rand_sets[50]: 633  LLC: 2048
rand_sets[50]: 633
Assign rand_sets[51]: 920  LLC: 2048
rand_sets[51]: 920
Assign rand_sets[52]: 204  LLC: 2048
rand_sets[52]: 204
Assign rand_sets[53]: 227  LLC: 2048
rand_sets[53]: 227
Assign rand_sets[54]: 1818  LLC: 2048
rand_sets[54]: 1818
Assign rand_sets[55]: 886  LLC: 2048
rand_sets[55]: 886
Assign rand_sets[56]: 1422  LLC: 2048
rand_sets[56]: 1422
Assign rand_sets[57]: 607  LLC: 2048
rand_sets[57]: 607
Assign rand_sets[58]: 217  LLC: 2048
rand_sets[58]: 217
Assign rand_sets[59]: 1945  LLC: 2048
rand_sets[59]: 1945
Assign rand_sets[60]: 143  LLC: 2048
rand_sets[60]: 143
Assign rand_sets[61]: 1311  LLC: 2048
rand_sets[61]: 1311
Assign rand_sets[62]: 319  LLC: 2048
rand_sets[62]: 319
Assign rand_sets[63]: 1846  LLC: 2048
rand_sets[63]: 1846
 CLEAN-RRIP-POLICY-1: 1-2-1-3-0-3-0-0- CLEAN-RRIP-POLICY-2: 1-2-1-3-0-3-0-0-
 DIRTY-RRIP-POLICY-1: 2-2-1-3-0-3-0-0- DIRTY-RRIP-POLICY-2: 2-2-1-3-0-3-0-0-
 PSEL width: 10
Heartbeat CPU 0 instructions: 10000000 cycles: 6588002 heartbeat IPC: 1.51791 cumulative IPC: 1.51791 (Simulation time: 0 hr 0 min 25 sec) 
Heartbeat CPU 0 instructions: 20000000 cycles: 13179595 heartbeat IPC: 1.51708 cumulative IPC: 1.5175 (Simulation time: 0 hr 0 min 55 sec) 
Heartbeat CPU 0 instructions: 30000003 cycles: 19772914 heartbeat IPC: 1.51669 cumulative IPC: 1.51723 (Simulation time: 0 hr 1 min 28 sec) 
Heartbeat CPU 0 instructions: 40000000 cycles: 26364656 heartbeat IPC: 1.51705 cumulative IPC: 1.51718 (Simulation time: 0 hr 1 min 58 sec) 
Heartbeat CPU 0 instructions: 50000001 cycles: 32957311 heartbeat IPC: 1.51684 cumulative IPC: 1.51711 (Simulation time: 0 hr 2 min 27 sec) 
Heartbeat CPU 0 instructions: 60000000 cycles: 39556096 heartbeat IPC: 1.51543 cumulative IPC: 1.51683 (Simulation time: 0 hr 2 min 57 sec) 
Heartbeat CPU 0 instructions: 70000003 cycles: 46154455 heartbeat IPC: 1.51553 cumulative IPC: 1.51665 (Simulation time: 0 hr 3 min 26 sec) 
Heartbeat CPU 0 instructions: 80000000 cycles: 52752500 heartbeat IPC: 1.5156 cumulative IPC: 1.51652 (Simulation time: 0 hr 3 min 51 sec) 
Heartbeat CPU 0 instructions: 90000002 cycles: 59348164 heartbeat IPC: 1.51615 cumulative IPC: 1.51647 (Simulation time: 0 hr 4 min 15 sec) 
Heartbeat CPU 0 instructions: 100000000 cycles: 65943228 heartbeat IPC: 1.51629 cumulative IPC: 1.51646 (Simulation time: 0 hr 4 min 43 sec) 

Warmup complete CPU 0 instructions: 100000002 cycles: 65943229 (Simulation time: 0 hr 4 min 43 sec) 

Heartbeat CPU 0 instructions: 110000000 cycles: 79183369 heartbeat IPC: 0.755279 cumulative IPC: 0.755279 (Simulation time: 0 hr 5 min 18 sec) 
Heartbeat CPU 0 instructions: 120000000 cycles: 92381556 heartbeat IPC: 0.75768 cumulative IPC: 0.756477 (Simulation time: 0 hr 6 min 1 sec) 
Heartbeat CPU 0 instructions: 130000001 cycles: 105651541 heartbeat IPC: 0.75358 cumulative IPC: 0.755509 (Simulation time: 0 hr 6 min 38 sec) 
Heartbeat CPU 0 instructions: 140000000 cycles: 118816003 heartbeat IPC: 0.759621 cumulative IPC: 0.756533 (Simulation time: 0 hr 7 min 18 sec) 
Heartbeat CPU 0 instructions: 150000001 cycles: 132008950 heartbeat IPC: 0.757981 cumulative IPC: 0.756822 (Simulation time: 0 hr 7 min 54 sec) 
Heartbeat CPU 0 instructions: 160000000 cycles: 145242206 heartbeat IPC: 0.755672 cumulative IPC: 0.75663 (Simulation time: 0 hr 8 min 32 sec) 
Heartbeat CPU 0 instructions: 170000000 cycles: 158448112 heartbeat IPC: 0.757237 cumulative IPC: 0.756717 (Simulation time: 0 hr 9 min 12 sec) 
Heartbeat CPU 0 instructions: 180000000 cycles: 171646030 heartbeat IPC: 0.757695 cumulative IPC: 0.756839 (Simulation time: 0 hr 9 min 47 sec) 
Heartbeat CPU 0 instructions: 190000000 cycles: 184810111 heartbeat IPC: 0.759643 cumulative IPC: 0.757149 (Simulation time: 0 hr 10 min 32 sec) 
Heartbeat CPU 0 instructions: 200000000 cycles: 198067535 heartbeat IPC: 0.754294 cumulative IPC: 0.756863 (Simulation time: 0 hr 11 min 9 sec) 
Heartbeat CPU 0 instructions: 210000002 cycles: 211271288 heartbeat IPC: 0.757361 cumulative IPC: 0.756908 (Simulation time: 0 hr 11 min 48 sec) 
Heartbeat CPU 0 instructions: 220000000 cycles: 224442135 heartbeat IPC: 0.759252 cumulative IPC: 0.757103 (Simulation time: 0 hr 12 min 24 sec) 
Heartbeat CPU 0 instructions: 230000003 cycles: 237683240 heartbeat IPC: 0.755224 cumulative IPC: 0.756958 (Simulation time: 0 hr 13 min 3 sec) 
Heartbeat CPU 0 instructions: 240000000 cycles: 250874196 heartbeat IPC: 0.758095 cumulative IPC: 0.757039 (Simulation time: 0 hr 13 min 38 sec) 
Heartbeat CPU 0 instructions: 250000001 cycles: 264087743 heartbeat IPC: 0.756799 cumulative IPC: 0.757023 (Simulation time: 0 hr 14 min 20 sec) 
Heartbeat CPU 0 instructions: 260000000 cycles: 277292347 heartbeat IPC: 0.757312 cumulative IPC: 0.757041 (Simulation time: 0 hr 14 min 55 sec) 
Heartbeat CPU 0 instructions: 270000003 cycles: 290534073 heartbeat IPC: 0.755189 cumulative IPC: 0.756932 (Simulation time: 0 hr 15 min 34 sec) 
Heartbeat CPU 0 instructions: 280000000 cycles: 303731346 heartbeat IPC: 0.757732 cumulative IPC: 0.756976 (Simulation time: 0 hr 16 min 8 sec) 
Heartbeat CPU 0 instructions: 290000000 cycles: 316897560 heartbeat IPC: 0.75952 cumulative IPC: 0.75711 (Simulation time: 0 hr 16 min 47 sec) 
Heartbeat CPU 0 instructions: 300000000 cycles: 330144045 heartbeat IPC: 0.754917 cumulative IPC: 0.757 (Simulation time: 0 hr 17 min 24 sec) 
Heartbeat CPU 0 instructions: 310000001 cycles: 343316099 heartbeat IPC: 0.759183 cumulative IPC: 0.757104 (Simulation time: 0 hr 17 min 59 sec) 
Heartbeat CPU 0 instructions: 320000000 cycles: 356503031 heartbeat IPC: 0.758326 cumulative IPC: 0.757159 (Simulation time: 0 hr 18 min 41 sec) 
Heartbeat CPU 0 instructions: 330000002 cycles: 369699740 heartbeat IPC: 0.757765 cumulative IPC: 0.757185 (Simulation time: 0 hr 19 min 16 sec) 
Heartbeat CPU 0 instructions: 340000000 cycles: 382927872 heartbeat IPC: 0.755964 cumulative IPC: 0.757134 (Simulation time: 0 hr 19 min 53 sec) 
Heartbeat CPU 0 instructions: 350000000 cycles: 396174804 heartbeat IPC: 0.754892 cumulative IPC: 0.757044 (Simulation time: 0 hr 20 min 22 sec) 
Heartbeat CPU 0 instructions: 360000000 cycles: 409393671 heartbeat IPC: 0.756494 cumulative IPC: 0.757023 (Simulation time: 0 hr 20 min 51 sec) 
Heartbeat CPU 0 instructions: 370000002 cycles: 422668485 heartbeat IPC: 0.753306 cumulative IPC: 0.756885 (Simulation time: 0 hr 21 min 20 sec) 
Heartbeat CPU 0 instructions: 380000000 cycles: 435871584 heartbeat IPC: 0.757398 cumulative IPC: 0.756903 (Simulation time: 0 hr 21 min 49 sec) 
Heartbeat CPU 0 instructions: 390000000 cycles: 449053832 heartbeat IPC: 0.758596 cumulative IPC: 0.756962 (Simulation time: 0 hr 22 min 18 sec) 
Heartbeat CPU 0 instructions: 400000000 cycles: 462254844 heartbeat IPC: 0.757518 cumulative IPC: 0.75698 (Simulation time: 0 hr 22 min 47 sec) 
Heartbeat CPU 0 instructions: 410000001 cycles: 475501482 heartbeat IPC: 0.754909 cumulative IPC: 0.756913 (Simulation time: 0 hr 23 min 16 sec) 
Heartbeat CPU 0 instructions: 420000000 cycles: 488682227 heartbeat IPC: 0.758682 cumulative IPC: 0.756968 (Simulation time: 0 hr 23 min 44 sec) 
Heartbeat CPU 0 instructions: 430000001 cycles: 501864177 heartbeat IPC: 0.758613 cumulative IPC: 0.757018 (Simulation time: 0 hr 24 min 13 sec) 
Heartbeat CPU 0 instructions: 440000000 cycles: 515033254 heartbeat IPC: 0.759355 cumulative IPC: 0.757087 (Simulation time: 0 hr 24 min 42 sec) 
Heartbeat CPU 0 instructions: 450000002 cycles: 528333991 heartbeat IPC: 0.751838 cumulative IPC: 0.756936 (Simulation time: 0 hr 25 min 11 sec) 
Heartbeat CPU 0 instructions: 460000000 cycles: 541542538 heartbeat IPC: 0.757085 cumulative IPC: 0.75694 (Simulation time: 0 hr 25 min 40 sec) 
Heartbeat CPU 0 instructions: 470000003 cycles: 554736629 heartbeat IPC: 0.757915 cumulative IPC: 0.756966 (Simulation time: 0 hr 26 min 9 sec) 
Heartbeat CPU 0 instructions: 480000000 cycles: 567975407 heartbeat IPC: 0.755356 cumulative IPC: 0.756924 (Simulation time: 0 hr 26 min 38 sec) 
Heartbeat CPU 0 instructions: 490000000 cycles: 581184355 heartbeat IPC: 0.757063 cumulative IPC: 0.756927 (Simulation time: 0 hr 27 min 7 sec) 
Heartbeat CPU 0 instructions: 500000000 cycles: 594375297 heartbeat IPC: 0.758096 cumulative IPC: 0.756956 (Simulation time: 0 hr 27 min 35 sec) 
Heartbeat CPU 0 instructions: 510000001 cycles: 607541277 heartbeat IPC: 0.759533 cumulative IPC: 0.757019 (Simulation time: 0 hr 28 min 4 sec) 
Heartbeat CPU 0 instructions: 520000000 cycles: 620823977 heartbeat IPC: 0.752859 cumulative IPC: 0.756919 (Simulation time: 0 hr 28 min 33 sec) 
Heartbeat CPU 0 instructions: 530000000 cycles: 634061911 heartbeat IPC: 0.755405 cumulative IPC: 0.756884 (Simulation time: 0 hr 29 min 2 sec) 
Heartbeat CPU 0 instructions: 540000000 cycles: 647287506 heartbeat IPC: 0.75611 cumulative IPC: 0.756866 (Simulation time: 0 hr 29 min 31 sec) 
Heartbeat CPU 0 instructions: 550000002 cycles: 660541494 heartbeat IPC: 0.75449 cumulative IPC: 0.756814 (Simulation time: 0 hr 30 min 0 sec) 
Heartbeat CPU 0 instructions: 560000000 cycles: 673725777 heartbeat IPC: 0.758479 cumulative IPC: 0.75685 (Simulation time: 0 hr 30 min 29 sec) 
Heartbeat CPU 0 instructions: 570000001 cycles: 686925191 heartbeat IPC: 0.757609 cumulative IPC: 0.756866 (Simulation time: 0 hr 30 min 58 sec) 
Heartbeat CPU 0 instructions: 580000000 cycles: 700129100 heartbeat IPC: 0.757351 cumulative IPC: 0.756876 (Simulation time: 0 hr 31 min 27 sec) 
Heartbeat CPU 0 instructions: 590000003 cycles: 713361730 heartbeat IPC: 0.755708 cumulative IPC: 0.756852 (Simulation time: 0 hr 31 min 56 sec) 
Heartbeat CPU 0 instructions: 600000000 cycles: 726608192 heartbeat IPC: 0.754918 cumulative IPC: 0.756813 (Simulation time: 0 hr 32 min 25 sec) 
Finished CPU 0 instructions: 500000000 cycles: 660664973 cumulative IPC: 0.756813 (Simulation time: 0 hr 32 min 25 sec) 

CPU 0 Branch Prediction Accuracy: 99.968% MPKI: 0.002246
Number of Branches: 3513331 Number of Mispredictions: 1123
Number of LOAD Instructions: 287251172
Number of LOAD Instructions (ROI): 287251172
Number of STORE Instructions: 51060820
Number of STORE Instructions (ROI): 51060820
Total Destination Memory Operands: 51166221
Total Destination Memory Operands (ROI): 51166221
Total Source Memory Operands: 287251172
Total Source Memory Operands (ROI): 287251172
Number of DEPENDED LOADS: 9555321
Number of DEPENDED LOADS (ROI): 9555321
Number of SQ_ADDED: 51166208
Number of SQ_ADDED (ROI): 51166208
Number of LQ_ADDED: 290421823
Number of LQ_ADDED (ROI): 290421823
Number of Instructions read from trace: 600000257

ChampSim completed all CPUs

Region of Interest Statistics

CPU 0 cumulative IPC: 0.756813 instructions: 500000000 cycles: 660664973
ITLB TOTAL     ACCESS:  108952501  HIT:  108952501  MISS:          0
ITLB LOAD      ACCESS:  108952501  HIT:  108952501  MISS:          0
ITLB RFO       ACCESS:          0  HIT:          0  MISS:          0
ITLB PREFETCH  ACCESS:          0  HIT:          0  MISS:          0
ITLB WRITEBACK ACCESS:          0  HIT:          0  MISS:          0
ITLB PREFETCH  REQUESTED:          0  ISSUED:          0  USEFUL:          0  USELESS:          0
ITLB TOTAL MSHR MERGED:          0
ITLB LOAD MSHR MERGED:          0
ITLB RFO MSHR MERGED:          0
ITLB PREFETCH MSHR MERGED:          0
ITLB WRITEBACK MSHR MERGED:          0
ITLB TOTAL ACCESSES:  108952501 HITS:  108952501 MISSES:          0
ITLB LOAD ACCESSES:  108952501 HITS:  108952501 MISSES:          0
ITLB RFO ACCESSES:          0 HITS:          0 MISSES:          0
ITLB PREFETCH ACCESSES:          0 HITS:          0 MISSES:          0
ITLB WRITEBACK ACCESSES:          0 HITS:          0 MISSES:          0
ITLB RQ ACCESS:  500000001
ITLB RQ TO_CACHE:  108952501
ITLB RQ MERGED:  391047500
ITLB RQ FORWARD:          0
ITLB WQ ACCESS:          0
ITLB WQ TO_CACHE:          0
ITLB WQ MERGED:          0
ITLB WQ FORWARD:          0
DTLB TOTAL     ACCESS:  171131597  HIT:  161115302  MISS:   10016295
DTLB LOAD      ACCESS:  143472381  HIT:  135596336  MISS:    7876045
DTLB RFO       ACCESS:   27659216  HIT:   25518966  MISS:    2140250
DTLB PREFETCH  ACCESS:          0  HIT:          0  MISS:          0
DTLB WRITEBACK ACCESS:          0  HIT:          0  MISS:          0
DTLB PREFETCH  REQUESTED:          0  ISSUED:          0  USEFUL:          0  USELESS:          0
DTLB TOTAL MSHR MERGED:     360370
DTLB LOAD MSHR MERGED:     360370
DTLB RFO MSHR MERGED:          0
DTLB PREFETCH MSHR MERGED:          0
DTLB WRITEBACK MSHR MERGED:          0
DTLB TOTAL ACCESSES:  171491967 HITS:  161115302 MISSES:   10376665
DTLB LOAD ACCESSES:  143832751 HITS:  135596336 MISSES:    8236415
DTLB RFO ACCESSES:   27659216 HITS:   25518966 MISSES:    2140250
DTLB PREFETCH ACCESSES:          0 HITS:          0 MISSES:          0
DTLB WRITEBACK ACCESSES:          0 HITS:          0 MISSES:          0
DTLB RQ ACCESS:  274072498
DTLB RQ TO_CACHE:  171491967
DTLB RQ MERGED:  102580531
DTLB RQ FORWARD:          0
DTLB WQ ACCESS:          0
DTLB WQ TO_CACHE:          0
DTLB WQ MERGED:          0
DTLB WQ FORWARD:          0
L1D TOTAL     ACCESS:  350943444  HIT:  283743984  MISS:   67199460
L1D LOAD      ACCESS:  175625584  HIT:  142586266  MISS:   33039318
L1D RFO       ACCESS:   42019671  HIT:   39214068  MISS:    2805603
L1D PREFETCH  ACCESS:  133298189  HIT:  101943650  MISS:   31354539
L1D WRITEBACK ACCESS:          0  HIT:          0  MISS:          0
L1D PREFETCH  REQUESTED:  176229702  ISSUED:  175291410  USEFUL:    2180569  USELESS:   29173972
L1D TOTAL MSHR MERGED:    1483693
L1D LOAD MSHR MERGED:     704033
L1D RFO MSHR MERGED:     349438
L1D PREFETCH MSHR MERGED:     430222
L1D WRITEBACK MSHR MERGED:          0
L1D TOTAL ACCESSES:  352540058 HITS:  283856905 MISSES:   68683153
L1D LOAD ACCESSES:  176236631 HITS:  142593195 MISSES:   33643436
L1D RFO ACCESSES:   42368404 HITS:   39214068 MISSES:    3154336
L1D PREFETCH ACCESSES:  133935023 HITS:  102049642 MISSES:   31885381
L1D WRITEBACK ACCESSES:          0 HITS:          0 MISSES:          0
L1D RQ ACCESS:  231434025
L1D RQ TO_CACHE:  176229702
L1D RQ MERGED:   55197394
L1D RQ FORWARD:          0
L1D WQ ACCESS:   42638475
L1D WQ TO_CACHE:   42368404
L1D WQ MERGED:     270071
L1D WQ FORWARD:     112921
L1I TOTAL     ACCESS:  109345124  HIT:   77829420  MISS:   31515704
L1I LOAD      ACCESS:  109345124  HIT:   77829420  MISS:   31515704
L1I RFO       ACCESS:          0  HIT:          0  MISS:          0
L1I PREFETCH  ACCESS:          0  HIT:          0  MISS:          0
L1I WRITEBACK ACCESS:          0  HIT:          0  MISS:          0
L1I PREFETCH  REQUESTED:          0  ISSUED:          0  USEFUL:          0  USELESS:          0
L1I TOTAL MSHR MERGED:   30751557
L1I LOAD MSHR MERGED:   30751557
L1I RFO MSHR MERGED:          0
L1I PREFETCH MSHR MERGED:          0
L1I WRITEBACK MSHR MERGED:          0
L1I TOTAL ACCESSES:  140096683 HITS:   77829420 MISSES:   62267263
L1I LOAD ACCESSES:  140096683 HITS:   77829420 MISSES:   62267263
L1I RFO ACCESSES:          0 HITS:          0 MISSES:          0
L1I PREFETCH ACCESSES:          0 HITS:          0 MISSES:          0
L1I WRITEBACK ACCESSES:          0 HITS:          0 MISSES:          0
L1I RQ ACCESS:  500000003
L1I RQ TO_CACHE:  140096683
L1I RQ MERGED:  359903320
L1I RQ FORWARD:          0
L1I WQ ACCESS:          0
L1I WQ TO_CACHE:          0
L1I WQ MERGED:          0
L1I WQ FORWARD:          0
L2C TOTAL     ACCESS:  113697714  HIT:  110695423  MISS:    3002291
L2C LOAD      ACCESS:   64453258  HIT:   63892660  MISS:     560598
L2C RFO       ACCESS:    2802990  HIT:    2193524  MISS:     609466
L2C PREFETCH  ACCESS:   43280493  HIT:   41454534  MISS:    1825959
L2C WRITEBACK ACCESS:    3160973  HIT:    3154705  MISS:       6268
L2C PREFETCH  REQUESTED:   15134577  ISSUED:   14620520  USEFUL:    1701013  USELESS:     124952
L2C TOTAL MSHR MERGED:      12628
L2C LOAD MSHR MERGED:          0
L2C RFO MSHR MERGED:          0
L2C PREFETCH MSHR MERGED:      12628
L2C WRITEBACK MSHR MERGED:          0
L2C TOTAL ACCESSES:  113904702 HITS:  110701301 MISSES:    3203401
L2C LOAD ACCESSES:   64455108 HITS:   63894509 MISSES:     560599
L2C RFO ACCESSES:    2804898 HITS:    2195432 MISSES:     609466
L2C PREFETCH ACCESSES:   43483723 HITS:   41456655 MISSES:    2027068
L2C WRITEBACK ACCESSES:    3160973 HITS:    3154705 MISSES:       6268
L2C RQ ACCESS:   67260007
L2C RQ TO_CACHE:   67256250
L2C RQ MERGED:          0
L2C RQ FORWARD:          0
L2C WQ ACCESS:    3160973
L2C WQ TO_CACHE:    3160973
L2C WQ MERGED:          0
L2C WQ FORWARD:       5878
LLC TOTAL     ACCESS:    3715512  HIT:    1835316  MISS:    1880196
LLC LOAD      ACCESS:     560570  HIT:     495573  MISS:      64997
LLC RFO       ACCESS:     527366  HIT:     238861  MISS:     288505
LLC PREFETCH  ACCESS:    2009104  HIT:     641780  MISS:    1367324
LLC WRITEBACK ACCESS:     618472  HIT:     459102  MISS:     159370
LLC PREFETCH  REQUESTED:          0  ISSUED:          0  USEFUL:      43629  USELESS:    1319862
LLC TOTAL MSHR MERGED:       4667
LLC LOAD MSHR MERGED:          0
LLC RFO MSHR MERGED:          0
LLC PREFETCH MSHR MERGED:       4667
LLC WRITEBACK MSHR MERGED:          0
LLC TOTAL ACCESSES:    3802392 HITS:    1917529 MISSES:    1884863
LLC LOAD ACCESSES:     560598 HITS:     495601 MISSES:      64997
LLC RFO ACCESSES:     609466 HITS:     320961 MISSES:     288505
LLC PREFETCH ACCESSES:    2013856 HITS:     641865 MISSES:    1371991
LLC WRITEBACK ACCESSES:     618472 HITS:     459102 MISSES:     159370
LLC 0 RQ ACCESS:    1170065
LLC 0 RQ TO_CACHE:    1087937
LLC 0 RQ MERGED:          0
LLC 0 RQ FORWARD:          0
LLC WQ ACCESS:     618472
LLC WQ TO_CACHE:     618472
LLC WQ MERGED:          0
LLC WQ FORWARD:      82213
Major fault: 0 Minor fault: 12800
CPU 0 L1D next line prefetcher final stats
CPU 0 L2C PC-based stride prefetcher final stats
All Misses: 2273467
All Hits: 2292988
SD Algo Stats - Switches: 0 SRR-Repls: 82642 BRR-Repls: 0

DRAM Statistics
 CHANNEL 0
 RQ ROW_BUFFER_HIT:     855515  ROW_BUFFER_MISS:     864911
 DBUS_CONGESTED:     919730
 WQ ROW_BUFFER_HIT:      37248  ROW_BUFFER_MISS:     257404  FULL:          0

 AVG_CONGESTED_CYCLE: 13
LOADS RETIRED: 239375970
INSTR RETIRED: 500000000
