
*** ChampSim Multicore Out-of-Order Simulator ***

Warmup Instructions: 100000000
Simulation Instructions: 500000000
Number of CPUs: 1
LLC sets: 2048
LLC ways: 16
Clean RRIP Policies: 1213030012130300 Dirty RRIP Policies: 2213030022130300 PSEL Width: 10 Track Set: 4294967295 PSEL Mask: 1 Demote Mask: 3340021433400214DS Algo: 0Window size: 0
Off-chip DRAM Size: 4096 MB Channels: 1 Width: 64-bit Data Rate: 1600 MT/s

CPU 0 runs /mnt/beegfs/iconst01/spec2017/Gcc.trace.gz
NOT SORTED
TRACE STRING: /mnt/beegfs/iconst01/spec2017/Gcc.trace.gz
SORTED
TRACE STRING: /mnt/beegfs/iconst01/spec2017/Gcc.trace.gz
INITIAL
TRACE STRING: /mnt/beegfs/iconst01/spec2017/Gcc.trace.gz

champsim_seed used: 269

CPU 0 L1D next line prefetcher
CPU 0 L2C IP-based stride prefetcher
Initialize DRRIP state
Assign rand_sets[0]: 454  LLC: 2048
rand_sets[0]: 454
Assign rand_sets[1]: 1662  LLC: 2048
rand_sets[1]: 1662
Assign rand_sets[2]: 1921  LLC: 2048
rand_sets[2]: 1921
Assign rand_sets[3]: 1131  LLC: 2048
rand_sets[3]: 1131
Assign rand_sets[4]: 331  LLC: 2048
rand_sets[4]: 331
Assign rand_sets[5]: 1531  LLC: 2048
rand_sets[5]: 1531
Assign rand_sets[6]: 482  LLC: 2048
rand_sets[6]: 482
Assign rand_sets[7]: 1275  LLC: 2048
rand_sets[7]: 1275
Assign rand_sets[8]: 1876  LLC: 2048
rand_sets[8]: 1876
Assign rand_sets[9]: 2038  LLC: 2048
rand_sets[9]: 2038
Assign rand_sets[10]: 701  LLC: 2048
rand_sets[10]: 701
Assign rand_sets[11]: 479  LLC: 2048
rand_sets[11]: 479
Assign rand_sets[12]: 892  LLC: 2048
rand_sets[12]: 892
Assign rand_sets[13]: 1820  LLC: 2048
rand_sets[13]: 1820
Assign rand_sets[14]: 1505  LLC: 2048
rand_sets[14]: 1505
Assign rand_sets[15]: 1159  LLC: 2048
rand_sets[15]: 1159
Assign rand_sets[16]: 513  LLC: 2048
rand_sets[16]: 513
Assign rand_sets[17]: 703  LLC: 2048
rand_sets[17]: 703
Assign rand_sets[18]: 561  LLC: 2048
rand_sets[18]: 561
Assign rand_sets[19]: 990  LLC: 2048
rand_sets[19]: 990
Assign rand_sets[20]: 342  LLC: 2048
rand_sets[20]: 342
Assign rand_sets[21]: 882  LLC: 2048
rand_sets[21]: 882
Assign rand_sets[22]: 15  LLC: 2048
rand_sets[22]: 15
Assign rand_sets[23]: 71  LLC: 2048
rand_sets[23]: 71
Assign rand_sets[24]: 1127  LLC: 2048
rand_sets[24]: 1127
Assign rand_sets[25]: 1382  LLC: 2048
rand_sets[25]: 1382
Assign rand_sets[26]: 647  LLC: 2048
rand_sets[26]: 647
Assign rand_sets[27]: 857  LLC: 2048
rand_sets[27]: 857
Assign rand_sets[28]: 1450  LLC: 2048
rand_sets[28]: 1450
Assign rand_sets[29]: 1160  LLC: 2048
rand_sets[29]: 1160
Assign rand_sets[30]: 1852  LLC: 2048
rand_sets[30]: 1852
Assign rand_sets[31]: 1881  LLC: 2048
rand_sets[31]: 1881
Assign rand_sets[32]: 1770  LLC: 2048
rand_sets[32]: 1770
Assign rand_sets[33]: 1622  LLC: 2048
rand_sets[33]: 1622
Assign rand_sets[34]: 275  LLC: 2048
rand_sets[34]: 275
Assign rand_sets[35]: 635  LLC: 2048
rand_sets[35]: 635
Assign rand_sets[36]: 466  LLC: 2048
rand_sets[36]: 466
Assign rand_sets[37]: 1413  LLC: 2048
rand_sets[37]: 1413
Assign rand_sets[38]: 417  LLC: 2048
rand_sets[38]: 417
Assign rand_sets[39]: 472  LLC: 2048
rand_sets[39]: 472
Assign rand_sets[40]: 1340  LLC: 2048
rand_sets[40]: 1340
Assign rand_sets[41]: 852  LLC: 2048
rand_sets[41]: 852
Assign rand_sets[42]: 1365  LLC: 2048
rand_sets[42]: 1365
Assign rand_sets[43]: 47  LLC: 2048
rand_sets[43]: 47
Assign rand_sets[44]: 823  LLC: 2048
rand_sets[44]: 823
Assign rand_sets[45]: 686  LLC: 2048
rand_sets[45]: 686
Assign rand_sets[46]: 1637  LLC: 2048
rand_sets[46]: 1637
Assign rand_sets[47]: 1115  LLC: 2048
rand_sets[47]: 1115
Assign rand_sets[48]: 986  LLC: 2048
rand_sets[48]: 986
Assign rand_sets[49]: 258  LLC: 2048
rand_sets[49]: 258
Assign rand_sets[50]: 633  LLC: 2048
rand_sets[50]: 633
Assign rand_sets[51]: 920  LLC: 2048
rand_sets[51]: 920
Assign rand_sets[52]: 204  LLC: 2048
rand_sets[52]: 204
Assign rand_sets[53]: 227  LLC: 2048
rand_sets[53]: 227
Assign rand_sets[54]: 1818  LLC: 2048
rand_sets[54]: 1818
Assign rand_sets[55]: 886  LLC: 2048
rand_sets[55]: 886
Assign rand_sets[56]: 1422  LLC: 2048
rand_sets[56]: 1422
Assign rand_sets[57]: 607  LLC: 2048
rand_sets[57]: 607
Assign rand_sets[58]: 217  LLC: 2048
rand_sets[58]: 217
Assign rand_sets[59]: 1945  LLC: 2048
rand_sets[59]: 1945
Assign rand_sets[60]: 143  LLC: 2048
rand_sets[60]: 143
Assign rand_sets[61]: 1311  LLC: 2048
rand_sets[61]: 1311
Assign rand_sets[62]: 319  LLC: 2048
rand_sets[62]: 319
Assign rand_sets[63]: 1846  LLC: 2048
rand_sets[63]: 1846
 CLEAN-RRIP-POLICY-1: 1-2-1-3-0-3-0-0- CLEAN-RRIP-POLICY-2: 1-2-1-3-0-3-0-0-
 DIRTY-RRIP-POLICY-1: 2-2-1-3-0-3-0-0- DIRTY-RRIP-POLICY-2: 2-2-1-3-0-3-0-0-
 PSEL width: 10
Heartbeat CPU 0 instructions: 10000001 cycles: 7315982 heartbeat IPC: 1.36687 cumulative IPC: 1.36687 (Simulation time: 0 hr 0 min 19 sec) 
Heartbeat CPU 0 instructions: 20000000 cycles: 14307474 heartbeat IPC: 1.43031 cumulative IPC: 1.39787 (Simulation time: 0 hr 0 min 33 sec) 
Heartbeat CPU 0 instructions: 30000001 cycles: 21020510 heartbeat IPC: 1.48964 cumulative IPC: 1.42718 (Simulation time: 0 hr 0 min 48 sec) 
Heartbeat CPU 0 instructions: 40000000 cycles: 27481383 heartbeat IPC: 1.54778 cumulative IPC: 1.45553 (Simulation time: 0 hr 1 min 3 sec) 
Heartbeat CPU 0 instructions: 50000001 cycles: 33583156 heartbeat IPC: 1.63887 cumulative IPC: 1.48884 (Simulation time: 0 hr 1 min 17 sec) 
Heartbeat CPU 0 instructions: 60000000 cycles: 40064281 heartbeat IPC: 1.54294 cumulative IPC: 1.49759 (Simulation time: 0 hr 1 min 33 sec) 
Heartbeat CPU 0 instructions: 70000000 cycles: 47102653 heartbeat IPC: 1.42078 cumulative IPC: 1.48612 (Simulation time: 0 hr 1 min 53 sec) 
Heartbeat CPU 0 instructions: 80000000 cycles: 54192143 heartbeat IPC: 1.41054 cumulative IPC: 1.47623 (Simulation time: 0 hr 2 min 7 sec) 
Heartbeat CPU 0 instructions: 90000003 cycles: 61196475 heartbeat IPC: 1.42769 cumulative IPC: 1.47067 (Simulation time: 0 hr 2 min 20 sec) 
Heartbeat CPU 0 instructions: 100000000 cycles: 68363665 heartbeat IPC: 1.39525 cumulative IPC: 1.46277 (Simulation time: 0 hr 2 min 34 sec) 

Warmup complete CPU 0 instructions: 100000004 cycles: 68363666 (Simulation time: 0 hr 2 min 34 sec) 

Heartbeat CPU 0 instructions: 110000003 cycles: 96038142 heartbeat IPC: 0.361344 cumulative IPC: 0.361344 (Simulation time: 0 hr 3 min 0 sec) 
Heartbeat CPU 0 instructions: 120000000 cycles: 123515382 heartbeat IPC: 0.363937 cumulative IPC: 0.362636 (Simulation time: 0 hr 3 min 30 sec) 
Heartbeat CPU 0 instructions: 130000000 cycles: 148506554 heartbeat IPC: 0.400141 cumulative IPC: 0.374331 (Simulation time: 0 hr 3 min 56 sec) 
Heartbeat CPU 0 instructions: 140000000 cycles: 177984437 heartbeat IPC: 0.339237 cumulative IPC: 0.364894 (Simulation time: 0 hr 4 min 21 sec) 
Heartbeat CPU 0 instructions: 150000000 cycles: 207838426 heartbeat IPC: 0.334964 cumulative IPC: 0.358488 (Simulation time: 0 hr 4 min 47 sec) 
Heartbeat CPU 0 instructions: 160000000 cycles: 235253690 heartbeat IPC: 0.36476 cumulative IPC: 0.359518 (Simulation time: 0 hr 5 min 13 sec) 
Heartbeat CPU 0 instructions: 170000001 cycles: 263309879 heartbeat IPC: 0.356428 cumulative IPC: 0.359073 (Simulation time: 0 hr 5 min 40 sec) 
Heartbeat CPU 0 instructions: 180000000 cycles: 291768042 heartbeat IPC: 0.351393 cumulative IPC: 0.358095 (Simulation time: 0 hr 6 min 7 sec) 
Heartbeat CPU 0 instructions: 190000002 cycles: 319796447 heartbeat IPC: 0.356781 cumulative IPC: 0.357949 (Simulation time: 0 hr 6 min 33 sec) 
Heartbeat CPU 0 instructions: 200000000 cycles: 348135113 heartbeat IPC: 0.352875 cumulative IPC: 0.357435 (Simulation time: 0 hr 7 min 0 sec) 
Heartbeat CPU 0 instructions: 210000002 cycles: 375962789 heartbeat IPC: 0.359355 cumulative IPC: 0.357608 (Simulation time: 0 hr 7 min 27 sec) 
Heartbeat CPU 0 instructions: 220000000 cycles: 405059665 heartbeat IPC: 0.343679 cumulative IPC: 0.356405 (Simulation time: 0 hr 7 min 52 sec) 
Heartbeat CPU 0 instructions: 230000000 cycles: 432607159 heartbeat IPC: 0.363009 cumulative IPC: 0.356904 (Simulation time: 0 hr 8 min 17 sec) 
Heartbeat CPU 0 instructions: 240000000 cycles: 458537754 heartbeat IPC: 0.385645 cumulative IPC: 0.358814 (Simulation time: 0 hr 8 min 41 sec) 
Heartbeat CPU 0 instructions: 250000000 cycles: 488680471 heartbeat IPC: 0.331755 cumulative IPC: 0.356874 (Simulation time: 0 hr 9 min 9 sec) 
Heartbeat CPU 0 instructions: 260000000 cycles: 515798856 heartbeat IPC: 0.368754 cumulative IPC: 0.357594 (Simulation time: 0 hr 9 min 34 sec) 
Heartbeat CPU 0 instructions: 270000003 cycles: 544269991 heartbeat IPC: 0.351233 cumulative IPC: 0.357213 (Simulation time: 0 hr 10 min 1 sec) 
Heartbeat CPU 0 instructions: 280000000 cycles: 572468567 heartbeat IPC: 0.354628 cumulative IPC: 0.357069 (Simulation time: 0 hr 10 min 28 sec) 
Heartbeat CPU 0 instructions: 290000000 cycles: 601331193 heartbeat IPC: 0.346469 cumulative IPC: 0.356495 (Simulation time: 0 hr 10 min 55 sec) 
Heartbeat CPU 0 instructions: 300000000 cycles: 631181126 heartbeat IPC: 0.335009 cumulative IPC: 0.355355 (Simulation time: 0 hr 11 min 21 sec) 
Heartbeat CPU 0 instructions: 310000001 cycles: 660534740 heartbeat IPC: 0.340674 cumulative IPC: 0.354627 (Simulation time: 0 hr 11 min 47 sec) 
Heartbeat CPU 0 instructions: 320000000 cycles: 688727037 heartbeat IPC: 0.354707 cumulative IPC: 0.354631 (Simulation time: 0 hr 12 min 12 sec) 
Heartbeat CPU 0 instructions: 330000000 cycles: 717342196 heartbeat IPC: 0.349465 cumulative IPC: 0.354403 (Simulation time: 0 hr 12 min 38 sec) 
Heartbeat CPU 0 instructions: 340000000 cycles: 746617653 heartbeat IPC: 0.341583 cumulative IPC: 0.35385 (Simulation time: 0 hr 13 min 3 sec) 
Heartbeat CPU 0 instructions: 350000003 cycles: 773629557 heartbeat IPC: 0.370207 cumulative IPC: 0.354476 (Simulation time: 0 hr 13 min 29 sec) 
Heartbeat CPU 0 instructions: 360000000 cycles: 801731545 heartbeat IPC: 0.355847 cumulative IPC: 0.354529 (Simulation time: 0 hr 13 min 53 sec) 
Heartbeat CPU 0 instructions: 370000000 cycles: 829913844 heartbeat IPC: 0.354833 cumulative IPC: 0.35454 (Simulation time: 0 hr 14 min 18 sec) 
Heartbeat CPU 0 instructions: 380000000 cycles: 858439288 heartbeat IPC: 0.350564 cumulative IPC: 0.354396 (Simulation time: 0 hr 14 min 43 sec) 
Heartbeat CPU 0 instructions: 390000001 cycles: 886055458 heartbeat IPC: 0.362107 cumulative IPC: 0.354657 (Simulation time: 0 hr 15 min 8 sec) 
Heartbeat CPU 0 instructions: 400000000 cycles: 914696774 heartbeat IPC: 0.349146 cumulative IPC: 0.35447 (Simulation time: 0 hr 15 min 32 sec) 
Heartbeat CPU 0 instructions: 410000001 cycles: 942012219 heartbeat IPC: 0.366093 cumulative IPC: 0.354834 (Simulation time: 0 hr 15 min 58 sec) 
Heartbeat CPU 0 instructions: 420000000 cycles: 969331309 heartbeat IPC: 0.366044 cumulative IPC: 0.355174 (Simulation time: 0 hr 16 min 22 sec) 
Heartbeat CPU 0 instructions: 430000002 cycles: 997028240 heartbeat IPC: 0.361051 cumulative IPC: 0.355349 (Simulation time: 0 hr 16 min 46 sec) 
Heartbeat CPU 0 instructions: 440000000 cycles: 1026555255 heartbeat IPC: 0.338673 cumulative IPC: 0.354835 (Simulation time: 0 hr 17 min 11 sec) 
Heartbeat CPU 0 instructions: 450000002 cycles: 1055789502 heartbeat IPC: 0.342065 cumulative IPC: 0.354457 (Simulation time: 0 hr 17 min 35 sec) 
Heartbeat CPU 0 instructions: 460000000 cycles: 1083492058 heartbeat IPC: 0.360977 cumulative IPC: 0.354635 (Simulation time: 0 hr 17 min 59 sec) 
Heartbeat CPU 0 instructions: 470000000 cycles: 1111132011 heartbeat IPC: 0.361795 cumulative IPC: 0.354825 (Simulation time: 0 hr 18 min 24 sec) 
Heartbeat CPU 0 instructions: 480000000 cycles: 1139019152 heartbeat IPC: 0.358588 cumulative IPC: 0.354923 (Simulation time: 0 hr 18 min 48 sec) 
Heartbeat CPU 0 instructions: 490000000 cycles: 1166608392 heartbeat IPC: 0.36246 cumulative IPC: 0.355112 (Simulation time: 0 hr 19 min 12 sec) 
Heartbeat CPU 0 instructions: 500000000 cycles: 1194907334 heartbeat IPC: 0.35337 cumulative IPC: 0.355068 (Simulation time: 0 hr 19 min 36 sec) 
Heartbeat CPU 0 instructions: 510000000 cycles: 1229797451 heartbeat IPC: 0.286614 cumulative IPC: 0.353012 (Simulation time: 0 hr 20 min 4 sec) 
Heartbeat CPU 0 instructions: 520000000 cycles: 1257795417 heartbeat IPC: 0.357169 cumulative IPC: 0.35311 (Simulation time: 0 hr 20 min 29 sec) 
Heartbeat CPU 0 instructions: 530000001 cycles: 1287109100 heartbeat IPC: 0.341138 cumulative IPC: 0.352822 (Simulation time: 0 hr 20 min 54 sec) 
Heartbeat CPU 0 instructions: 540000000 cycles: 1315155798 heartbeat IPC: 0.356548 cumulative IPC: 0.352906 (Simulation time: 0 hr 21 min 19 sec) 
Heartbeat CPU 0 instructions: 550000001 cycles: 1344366221 heartbeat IPC: 0.342344 cumulative IPC: 0.352664 (Simulation time: 0 hr 21 min 45 sec) 
Heartbeat CPU 0 instructions: 560000000 cycles: 1369765414 heartbeat IPC: 0.393713 cumulative IPC: 0.353465 (Simulation time: 0 hr 22 min 10 sec) 
Heartbeat CPU 0 instructions: 570000000 cycles: 1399282557 heartbeat IPC: 0.338786 cumulative IPC: 0.353139 (Simulation time: 0 hr 22 min 35 sec) 
Heartbeat CPU 0 instructions: 580000000 cycles: 1427238675 heartbeat IPC: 0.357703 cumulative IPC: 0.353233 (Simulation time: 0 hr 23 min 0 sec) 
Heartbeat CPU 0 instructions: 590000001 cycles: 1451999676 heartbeat IPC: 0.403861 cumulative IPC: 0.354139 (Simulation time: 0 hr 23 min 24 sec) 
Heartbeat CPU 0 instructions: 600000000 cycles: 1478092021 heartbeat IPC: 0.383254 cumulative IPC: 0.354678 (Simulation time: 0 hr 23 min 48 sec) 
Finished CPU 0 instructions: 500000000 cycles: 1409728377 cumulative IPC: 0.354678 (Simulation time: 0 hr 23 min 48 sec) 

CPU 0 Branch Prediction Accuracy: 86.4311% MPKI: 26.2662
Number of Branches: 96788573 Number of Mispredictions: 13133102
Number of LOAD Instructions: 164682285
Number of LOAD Instructions (ROI): 164682285
Number of STORE Instructions: 78194750
Number of STORE Instructions (ROI): 78194750
Total Destination Memory Operands: 83268534
Total Destination Memory Operands (ROI): 83268534
Total Source Memory Operands: 164712438
Total Source Memory Operands (ROI): 164712438
Number of DEPENDED LOADS: 7060240
Number of DEPENDED LOADS (ROI): 7060240
Number of SQ_ADDED: 83268522
Number of SQ_ADDED (ROI): 83268522
Number of LQ_ADDED: 236785400
Number of LQ_ADDED (ROI): 236785400
Number of Instructions read from trace: 600000066

ChampSim completed all CPUs

Region of Interest Statistics

CPU 0 cumulative IPC: 0.354678 instructions: 500000000 cycles: 1409728377
ITLB TOTAL     ACCESS:  100514136  HIT:  100309690  MISS:     204446
ITLB LOAD      ACCESS:  100514136  HIT:  100309690  MISS:     204446
ITLB RFO       ACCESS:          0  HIT:          0  MISS:          0
ITLB PREFETCH  ACCESS:          0  HIT:          0  MISS:          0
ITLB WRITEBACK ACCESS:          0  HIT:          0  MISS:          0
ITLB PREFETCH  REQUESTED:          0  ISSUED:          0  USEFUL:          0  USELESS:          0
ITLB TOTAL MSHR MERGED:     172424
ITLB LOAD MSHR MERGED:     172424
ITLB RFO MSHR MERGED:          0
ITLB PREFETCH MSHR MERGED:          0
ITLB WRITEBACK MSHR MERGED:          0
ITLB TOTAL ACCESSES:  100686560 HITS:  100309690 MISSES:     376870
ITLB LOAD ACCESSES:  100686560 HITS:  100309690 MISSES:     376870
ITLB RFO ACCESSES:          0 HITS:          0 MISSES:          0
ITLB PREFETCH ACCESSES:          0 HITS:          0 MISSES:          0
ITLB WRITEBACK ACCESSES:          0 HITS:          0 MISSES:          0
ITLB RQ ACCESS:  500000057
ITLB RQ TO_CACHE:  100686560
ITLB RQ MERGED:  399313497
ITLB RQ FORWARD:          0
ITLB WQ ACCESS:          0
ITLB WQ TO_CACHE:          0
ITLB WQ MERGED:          0
ITLB WQ FORWARD:          0
DTLB TOTAL     ACCESS:  165335830  HIT:  164701484  MISS:     634346
DTLB LOAD      ACCESS:  106291744  HIT:  105721772  MISS:     569972
DTLB RFO       ACCESS:   59044086  HIT:   58979712  MISS:      64374
DTLB PREFETCH  ACCESS:          0  HIT:          0  MISS:          0
DTLB WRITEBACK ACCESS:          0  HIT:          0  MISS:          0
DTLB PREFETCH  REQUESTED:          0  ISSUED:          0  USEFUL:          0  USELESS:          0
DTLB TOTAL MSHR MERGED:      99966
DTLB LOAD MSHR MERGED:      59438
DTLB RFO MSHR MERGED:      40528
DTLB PREFETCH MSHR MERGED:          0
DTLB WRITEBACK MSHR MERGED:          0
DTLB TOTAL ACCESSES:  165435796 HITS:  164701484 MISSES:     734312
DTLB LOAD ACCESSES:  106351182 HITS:  105721772 MISSES:     629410
DTLB RFO ACCESSES:   59084614 HITS:   58979712 MISSES:     104902
DTLB PREFETCH ACCESSES:          0 HITS:          0 MISSES:          0
DTLB WRITEBACK ACCESSES:          0 HITS:          0 MISSES:          0
DTLB RQ ACCESS:  200310651
DTLB RQ TO_CACHE:  165435796
DTLB RQ MERGED:   34874855
DTLB RQ FORWARD:          0
DTLB WQ ACCESS:          0
DTLB WQ TO_CACHE:          0
DTLB WQ MERGED:          0
DTLB WQ FORWARD:          0
L1D TOTAL     ACCESS:  281811688  HIT:  273902373  MISS:    7909315
L1D LOAD      ACCESS:  110414753  HIT:  107135899  MISS:    3278854
L1D RFO       ACCESS:   67107285  HIT:   66216177  MISS:     891108
L1D PREFETCH  ACCESS:  104289650  HIT:  100550297  MISS:    3739353
L1D WRITEBACK ACCESS:          0  HIT:          0  MISS:          0
L1D PREFETCH  REQUESTED:  110816618  ISSUED:  109117324  USEFUL:    1660134  USELESS:    2079183
L1D TOTAL MSHR MERGED:    2891729
L1D LOAD MSHR MERGED:     500175
L1D RFO MSHR MERGED:    1879110
L1D PREFETCH MSHR MERGED:     512444
L1D WRITEBACK MSHR MERGED:          0
L1D TOTAL ACCESSES:  284730948 HITS:  273929904 MISSES:   10801044
L1D LOAD ACCESSES:  110818123 HITS:  107137404 MISSES:    3680719
L1D RFO ACCESSES:   68974082 HITS:   66216177 MISSES:    2757905
L1D PREFETCH ACCESSES:  104938743 HITS:  100576323 MISSES:    4362420
L1D WRITEBACK ACCESSES:          0 HITS:          0 MISSES:          0
L1D RQ ACCESS:  130758048
L1D RQ TO_CACHE:  110816621
L1D RQ MERGED:   19939922
L1D RQ FORWARD:          0
L1D WQ ACCESS:   69552603
L1D WQ TO_CACHE:   68974083
L1D WQ MERGED:     578520
L1D WQ FORWARD:      27531
L1I TOTAL     ACCESS:  126561723  HIT:  122323171  MISS:    4238552
L1I LOAD      ACCESS:  126561723  HIT:  122323171  MISS:    4238552
L1I RFO       ACCESS:          0  HIT:          0  MISS:          0
L1I PREFETCH  ACCESS:          0  HIT:          0  MISS:          0
L1I WRITEBACK ACCESS:          0  HIT:          0  MISS:          0
L1I PREFETCH  REQUESTED:          0  ISSUED:          0  USEFUL:          0  USELESS:          0
L1I TOTAL MSHR MERGED:    1834588
L1I LOAD MSHR MERGED:    1834588
L1I RFO MSHR MERGED:          0
L1I PREFETCH MSHR MERGED:          0
L1I WRITEBACK MSHR MERGED:          0
L1I TOTAL ACCESSES:  128396314 HITS:  122323171 MISSES:    6073143
L1I LOAD ACCESSES:  128396314 HITS:  122323171 MISSES:    6073143
L1I RFO ACCESSES:          0 HITS:          0 MISSES:          0
L1I PREFETCH ACCESSES:          0 HITS:          0 MISSES:          0
L1I WRITEBACK ACCESSES:          0 HITS:          0 MISSES:          0
L1I RQ ACCESS:  500000057
L1I RQ TO_CACHE:  128396314
L1I RQ MERGED:  371603743
L1I RQ FORWARD:          0
L1I WQ ACCESS:          0
L1I WQ TO_CACHE:          0
L1I WQ MERGED:          0
L1I WQ FORWARD:          0
L2C TOTAL     ACCESS:   14904472  HIT:   11158081  MISS:    3746391
L2C LOAD      ACCESS:    7418887  HIT:    5098671  MISS:    2320216
L2C RFO       ACCESS:     878697  HIT:     409914  MISS:     468783
L2C PREFETCH  ACCESS:    4567649  HIT:    3627514  MISS:     940135
L2C WRITEBACK ACCESS:    2039239  HIT:    2021982  MISS:      17257
L2C PREFETCH  REQUESTED:     842687  ISSUED:     842687  USEFUL:     203118  USELESS:     736723
L2C TOTAL MSHR MERGED:       7728
L2C LOAD MSHR MERGED:       1003
L2C RFO MSHR MERGED:          0
L2C PREFETCH MSHR MERGED:       6725
L2C WRITEBACK MSHR MERGED:          0
L2C TOTAL ACCESSES:   14913097 HITS:   11158532 MISSES:    3754565
L2C LOAD ACCESSES:    7419096 HITS:    5098880 MISSES:    2320216
L2C RFO ACCESSES:     878795 HITS:     410012 MISSES:     468783
L2C PREFETCH ACCESSES:    4575967 HITS:    3627658 MISSES:     948309
L2C WRITEBACK ACCESSES:    2039239 HITS:    2021982 MISSES:      17257
L2C RQ ACCESS:    8297894
L2C RQ TO_CACHE:    8297587
L2C RQ MERGED:          0
L2C RQ FORWARD:          0
L2C WQ ACCESS:    2039239
L2C WQ TO_CACHE:    2039239
L2C WQ MERGED:          0
L2C WQ FORWARD:        451
LLC TOTAL     ACCESS:    4609693  HIT:    3913375  MISS:     696318
LLC LOAD      ACCESS:    2319199  HIT:    2080380  MISS:     238819
LLC RFO       ACCESS:     468772  HIT:     383539  MISS:      85233
LLC PREFETCH  ACCESS:     941471  HIT:     637632  MISS:     303839
LLC WRITEBACK ACCESS:     880251  HIT:     811824  MISS:      68427
LLC PREFETCH  REQUESTED:          0  ISSUED:          0  USEFUL:      16367  USELESS:     287787
LLC TOTAL MSHR MERGED:         99
LLC LOAD MSHR MERGED:         30
LLC RFO MSHR MERGED:          0
LLC PREFETCH MSHR MERGED:         69
LLC WRITEBACK MSHR MERGED:          0
LLC TOTAL ACCESSES:    4609828 HITS:    3913411 MISSES:     696417
LLC LOAD ACCESSES:    2319213 HITS:    2080394 MISSES:     238819
LLC RFO ACCESSES:     468783 HITS:     383550 MISSES:      85233
LLC PREFETCH ACCESSES:     941581 HITS:     637643 MISSES:     303938
LLC WRITEBACK ACCESSES:     880251 HITS:     811824 MISSES:      68427
LLC 0 RQ ACCESS:    2787996
LLC 0 RQ TO_CACHE:    2787971
LLC 0 RQ MERGED:          0
LLC 0 RQ FORWARD:          0
LLC WQ ACCESS:     880251
LLC WQ TO_CACHE:     880251
LLC WQ MERGED:          0
LLC WQ FORWARD:         36
Major fault: 0 Minor fault: 12862
CPU 0 L1D next line prefetcher final stats
CPU 0 L2C PC-based stride prefetcher final stats
All Misses: 826006
All Hits: 4600693
SD Algo Stats - Switches: 0 SRR-Repls: 279787 BRR-Repls: 0

DRAM Statistics
 CHANNEL 0
 RQ ROW_BUFFER_HIT:     125693  ROW_BUFFER_MISS:     500170
 DBUS_CONGESTED:     378244
 WQ ROW_BUFFER_HIT:      17269  ROW_BUFFER_MISS:     196639  FULL:          0

 AVG_CONGESTED_CYCLE: 13
LOADS RETIRED: 136549171
INSTR RETIRED: 500000000
