
*** ChampSim Multicore Out-of-Order Simulator ***

Warmup Instructions: 100000000
Simulation Instructions: 500000000
Number of CPUs: 1
LLC sets: 2048
LLC ways: 16
Clean RRIP Policies: 1320112313201123 Dirty RRIP Policies: 1310211313102113 PSEL Width: 10 Track Set: 4294967295 PSEL Mask: 1 Demote Mask: 3112340031123400DS Algo: 0Window size: 0
Off-chip DRAM Size: 4096 MB Channels: 1 Width: 64-bit Data Rate: 1600 MT/s

CPU 0 runs /mnt/beegfs/iconst01/spec2017/Gcc.trace.gz
NOT SORTED
TRACE STRING: /mnt/beegfs/iconst01/spec2017/Gcc.trace.gz
SORTED
TRACE STRING: /mnt/beegfs/iconst01/spec2017/Gcc.trace.gz
INITIAL
TRACE STRING: /mnt/beegfs/iconst01/spec2017/Gcc.trace.gz

champsim_seed used: 269

CPU 0 L1D next line prefetcher
CPU 0 L2C IP-based stride prefetcher
Initialize DRRIP state
Assign rand_sets[0]: 454  LLC: 2048
rand_sets[0]: 454
Assign rand_sets[1]: 1662  LLC: 2048
rand_sets[1]: 1662
Assign rand_sets[2]: 1921  LLC: 2048
rand_sets[2]: 1921
Assign rand_sets[3]: 1131  LLC: 2048
rand_sets[3]: 1131
Assign rand_sets[4]: 331  LLC: 2048
rand_sets[4]: 331
Assign rand_sets[5]: 1531  LLC: 2048
rand_sets[5]: 1531
Assign rand_sets[6]: 482  LLC: 2048
rand_sets[6]: 482
Assign rand_sets[7]: 1275  LLC: 2048
rand_sets[7]: 1275
Assign rand_sets[8]: 1876  LLC: 2048
rand_sets[8]: 1876
Assign rand_sets[9]: 2038  LLC: 2048
rand_sets[9]: 2038
Assign rand_sets[10]: 701  LLC: 2048
rand_sets[10]: 701
Assign rand_sets[11]: 479  LLC: 2048
rand_sets[11]: 479
Assign rand_sets[12]: 892  LLC: 2048
rand_sets[12]: 892
Assign rand_sets[13]: 1820  LLC: 2048
rand_sets[13]: 1820
Assign rand_sets[14]: 1505  LLC: 2048
rand_sets[14]: 1505
Assign rand_sets[15]: 1159  LLC: 2048
rand_sets[15]: 1159
Assign rand_sets[16]: 513  LLC: 2048
rand_sets[16]: 513
Assign rand_sets[17]: 703  LLC: 2048
rand_sets[17]: 703
Assign rand_sets[18]: 561  LLC: 2048
rand_sets[18]: 561
Assign rand_sets[19]: 990  LLC: 2048
rand_sets[19]: 990
Assign rand_sets[20]: 342  LLC: 2048
rand_sets[20]: 342
Assign rand_sets[21]: 882  LLC: 2048
rand_sets[21]: 882
Assign rand_sets[22]: 15  LLC: 2048
rand_sets[22]: 15
Assign rand_sets[23]: 71  LLC: 2048
rand_sets[23]: 71
Assign rand_sets[24]: 1127  LLC: 2048
rand_sets[24]: 1127
Assign rand_sets[25]: 1382  LLC: 2048
rand_sets[25]: 1382
Assign rand_sets[26]: 647  LLC: 2048
rand_sets[26]: 647
Assign rand_sets[27]: 857  LLC: 2048
rand_sets[27]: 857
Assign rand_sets[28]: 1450  LLC: 2048
rand_sets[28]: 1450
Assign rand_sets[29]: 1160  LLC: 2048
rand_sets[29]: 1160
Assign rand_sets[30]: 1852  LLC: 2048
rand_sets[30]: 1852
Assign rand_sets[31]: 1881  LLC: 2048
rand_sets[31]: 1881
Assign rand_sets[32]: 1770  LLC: 2048
rand_sets[32]: 1770
Assign rand_sets[33]: 1622  LLC: 2048
rand_sets[33]: 1622
Assign rand_sets[34]: 275  LLC: 2048
rand_sets[34]: 275
Assign rand_sets[35]: 635  LLC: 2048
rand_sets[35]: 635
Assign rand_sets[36]: 466  LLC: 2048
rand_sets[36]: 466
Assign rand_sets[37]: 1413  LLC: 2048
rand_sets[37]: 1413
Assign rand_sets[38]: 417  LLC: 2048
rand_sets[38]: 417
Assign rand_sets[39]: 472  LLC: 2048
rand_sets[39]: 472
Assign rand_sets[40]: 1340  LLC: 2048
rand_sets[40]: 1340
Assign rand_sets[41]: 852  LLC: 2048
rand_sets[41]: 852
Assign rand_sets[42]: 1365  LLC: 2048
rand_sets[42]: 1365
Assign rand_sets[43]: 47  LLC: 2048
rand_sets[43]: 47
Assign rand_sets[44]: 823  LLC: 2048
rand_sets[44]: 823
Assign rand_sets[45]: 686  LLC: 2048
rand_sets[45]: 686
Assign rand_sets[46]: 1637  LLC: 2048
rand_sets[46]: 1637
Assign rand_sets[47]: 1115  LLC: 2048
rand_sets[47]: 1115
Assign rand_sets[48]: 986  LLC: 2048
rand_sets[48]: 986
Assign rand_sets[49]: 258  LLC: 2048
rand_sets[49]: 258
Assign rand_sets[50]: 633  LLC: 2048
rand_sets[50]: 633
Assign rand_sets[51]: 920  LLC: 2048
rand_sets[51]: 920
Assign rand_sets[52]: 204  LLC: 2048
rand_sets[52]: 204
Assign rand_sets[53]: 227  LLC: 2048
rand_sets[53]: 227
Assign rand_sets[54]: 1818  LLC: 2048
rand_sets[54]: 1818
Assign rand_sets[55]: 886  LLC: 2048
rand_sets[55]: 886
Assign rand_sets[56]: 1422  LLC: 2048
rand_sets[56]: 1422
Assign rand_sets[57]: 607  LLC: 2048
rand_sets[57]: 607
Assign rand_sets[58]: 217  LLC: 2048
rand_sets[58]: 217
Assign rand_sets[59]: 1945  LLC: 2048
rand_sets[59]: 1945
Assign rand_sets[60]: 143  LLC: 2048
rand_sets[60]: 143
Assign rand_sets[61]: 1311  LLC: 2048
rand_sets[61]: 1311
Assign rand_sets[62]: 319  LLC: 2048
rand_sets[62]: 319
Assign rand_sets[63]: 1846  LLC: 2048
rand_sets[63]: 1846
 CLEAN-RRIP-POLICY-1: 1-3-2-0-1-1-2-3- CLEAN-RRIP-POLICY-2: 1-3-2-0-1-1-2-3-
 DIRTY-RRIP-POLICY-1: 1-3-1-0-2-1-1-3- DIRTY-RRIP-POLICY-2: 1-3-1-0-2-1-1-3-
 PSEL width: 10
Heartbeat CPU 0 instructions: 10000001 cycles: 7320972 heartbeat IPC: 1.36594 cumulative IPC: 1.36594 (Simulation time: 0 hr 0 min 15 sec) 
Heartbeat CPU 0 instructions: 20000000 cycles: 14325636 heartbeat IPC: 1.42762 cumulative IPC: 1.3961 (Simulation time: 0 hr 0 min 29 sec) 
Heartbeat CPU 0 instructions: 30000001 cycles: 21042161 heartbeat IPC: 1.48887 cumulative IPC: 1.42571 (Simulation time: 0 hr 0 min 45 sec) 
Heartbeat CPU 0 instructions: 40000000 cycles: 27504150 heartbeat IPC: 1.54751 cumulative IPC: 1.45433 (Simulation time: 0 hr 1 min 1 sec) 
Heartbeat CPU 0 instructions: 50000001 cycles: 33607051 heartbeat IPC: 1.63857 cumulative IPC: 1.48778 (Simulation time: 0 hr 1 min 17 sec) 
Heartbeat CPU 0 instructions: 60000000 cycles: 40089400 heartbeat IPC: 1.54265 cumulative IPC: 1.49665 (Simulation time: 0 hr 1 min 33 sec) 
Heartbeat CPU 0 instructions: 70000000 cycles: 47134164 heartbeat IPC: 1.41949 cumulative IPC: 1.48512 (Simulation time: 0 hr 1 min 47 sec) 
Heartbeat CPU 0 instructions: 80000000 cycles: 54231266 heartbeat IPC: 1.40903 cumulative IPC: 1.47516 (Simulation time: 0 hr 2 min 2 sec) 
Heartbeat CPU 0 instructions: 90000003 cycles: 61243271 heartbeat IPC: 1.42613 cumulative IPC: 1.46955 (Simulation time: 0 hr 2 min 17 sec) 
Heartbeat CPU 0 instructions: 100000000 cycles: 68418673 heartbeat IPC: 1.39365 cumulative IPC: 1.46159 (Simulation time: 0 hr 2 min 31 sec) 

Warmup complete CPU 0 instructions: 100000004 cycles: 68418674 (Simulation time: 0 hr 2 min 31 sec) 

Heartbeat CPU 0 instructions: 110000003 cycles: 97349579 heartbeat IPC: 0.345651 cumulative IPC: 0.345651 (Simulation time: 0 hr 3 min 0 sec) 
Heartbeat CPU 0 instructions: 120000000 cycles: 125348286 heartbeat IPC: 0.357159 cumulative IPC: 0.351311 (Simulation time: 0 hr 3 min 29 sec) 
Heartbeat CPU 0 instructions: 130000000 cycles: 150700491 heartbeat IPC: 0.394443 cumulative IPC: 0.364601 (Simulation time: 0 hr 3 min 58 sec) 
Heartbeat CPU 0 instructions: 140000000 cycles: 182721905 heartbeat IPC: 0.312291 cumulative IPC: 0.349946 (Simulation time: 0 hr 4 min 27 sec) 
Heartbeat CPU 0 instructions: 150000000 cycles: 214377156 heartbeat IPC: 0.315903 cumulative IPC: 0.342563 (Simulation time: 0 hr 4 min 56 sec) 
Heartbeat CPU 0 instructions: 160000000 cycles: 242442747 heartbeat IPC: 0.356308 cumulative IPC: 0.34478 (Simulation time: 0 hr 5 min 24 sec) 
Heartbeat CPU 0 instructions: 170000001 cycles: 271270441 heartbeat IPC: 0.346889 cumulative IPC: 0.34508 (Simulation time: 0 hr 5 min 54 sec) 
Heartbeat CPU 0 instructions: 180000000 cycles: 300750158 heartbeat IPC: 0.339216 cumulative IPC: 0.344336 (Simulation time: 0 hr 6 min 24 sec) 
Heartbeat CPU 0 instructions: 190000002 cycles: 329827964 heartbeat IPC: 0.343905 cumulative IPC: 0.344288 (Simulation time: 0 hr 6 min 53 sec) 
Heartbeat CPU 0 instructions: 200000000 cycles: 359307513 heartbeat IPC: 0.339218 cumulative IPC: 0.343774 (Simulation time: 0 hr 7 min 22 sec) 
Heartbeat CPU 0 instructions: 210000002 cycles: 388206253 heartbeat IPC: 0.346036 cumulative IPC: 0.343978 (Simulation time: 0 hr 7 min 52 sec) 
Heartbeat CPU 0 instructions: 220000000 cycles: 420066936 heartbeat IPC: 0.313866 cumulative IPC: 0.34125 (Simulation time: 0 hr 8 min 20 sec) 
Heartbeat CPU 0 instructions: 230000000 cycles: 449031358 heartbeat IPC: 0.345251 cumulative IPC: 0.341555 (Simulation time: 0 hr 8 min 49 sec) 
Heartbeat CPU 0 instructions: 240000000 cycles: 475937458 heartbeat IPC: 0.371663 cumulative IPC: 0.343542 (Simulation time: 0 hr 9 min 16 sec) 
Heartbeat CPU 0 instructions: 250000000 cycles: 507206160 heartbeat IPC: 0.319809 cumulative IPC: 0.341851 (Simulation time: 0 hr 9 min 46 sec) 
Heartbeat CPU 0 instructions: 260000000 cycles: 534868773 heartbeat IPC: 0.361499 cumulative IPC: 0.343016 (Simulation time: 0 hr 10 min 15 sec) 
Heartbeat CPU 0 instructions: 270000003 cycles: 564290446 heartbeat IPC: 0.339886 cumulative IPC: 0.342831 (Simulation time: 0 hr 10 min 45 sec) 
Heartbeat CPU 0 instructions: 280000000 cycles: 593585695 heartbeat IPC: 0.341352 cumulative IPC: 0.342748 (Simulation time: 0 hr 11 min 15 sec) 
Heartbeat CPU 0 instructions: 290000000 cycles: 623489811 heartbeat IPC: 0.334402 cumulative IPC: 0.342298 (Simulation time: 0 hr 11 min 45 sec) 
Heartbeat CPU 0 instructions: 300000000 cycles: 655989240 heartbeat IPC: 0.307698 cumulative IPC: 0.340385 (Simulation time: 0 hr 12 min 14 sec) 
Heartbeat CPU 0 instructions: 310000001 cycles: 687332956 heartbeat IPC: 0.319043 cumulative IPC: 0.339304 (Simulation time: 0 hr 12 min 43 sec) 
Heartbeat CPU 0 instructions: 320000000 cycles: 717641449 heartbeat IPC: 0.32994 cumulative IPC: 0.338867 (Simulation time: 0 hr 13 min 12 sec) 
Heartbeat CPU 0 instructions: 330000000 cycles: 747999373 heartbeat IPC: 0.329403 cumulative IPC: 0.338444 (Simulation time: 0 hr 13 min 41 sec) 
Heartbeat CPU 0 instructions: 340000000 cycles: 779226375 heartbeat IPC: 0.320236 cumulative IPC: 0.337644 (Simulation time: 0 hr 14 min 10 sec) 
Heartbeat CPU 0 instructions: 350000003 cycles: 807380354 heartbeat IPC: 0.35519 cumulative IPC: 0.338313 (Simulation time: 0 hr 14 min 38 sec) 
Heartbeat CPU 0 instructions: 360000000 cycles: 840064944 heartbeat IPC: 0.305954 cumulative IPC: 0.336942 (Simulation time: 0 hr 15 min 7 sec) 
Heartbeat CPU 0 instructions: 370000000 cycles: 872817144 heartbeat IPC: 0.305323 cumulative IPC: 0.335655 (Simulation time: 0 hr 15 min 36 sec) 
Heartbeat CPU 0 instructions: 380000000 cycles: 906127573 heartbeat IPC: 0.300206 cumulative IPC: 0.334245 (Simulation time: 0 hr 16 min 6 sec) 
Heartbeat CPU 0 instructions: 390000001 cycles: 938326256 heartbeat IPC: 0.310572 cumulative IPC: 0.333369 (Simulation time: 0 hr 16 min 34 sec) 
Heartbeat CPU 0 instructions: 400000000 cycles: 971599169 heartbeat IPC: 0.300545 cumulative IPC: 0.33216 (Simulation time: 0 hr 17 min 4 sec) 
Heartbeat CPU 0 instructions: 410000001 cycles: 1003558441 heartbeat IPC: 0.312898 cumulative IPC: 0.331501 (Simulation time: 0 hr 17 min 32 sec) 
Heartbeat CPU 0 instructions: 420000000 cycles: 1035592937 heartbeat IPC: 0.312163 cumulative IPC: 0.330861 (Simulation time: 0 hr 18 min 1 sec) 
Heartbeat CPU 0 instructions: 430000002 cycles: 1068129743 heartbeat IPC: 0.307344 cumulative IPC: 0.330095 (Simulation time: 0 hr 18 min 30 sec) 
Heartbeat CPU 0 instructions: 440000000 cycles: 1101873167 heartbeat IPC: 0.296354 cumulative IPC: 0.328994 (Simulation time: 0 hr 19 min 0 sec) 
Heartbeat CPU 0 instructions: 450000002 cycles: 1135493909 heartbeat IPC: 0.297435 cumulative IPC: 0.327999 (Simulation time: 0 hr 19 min 29 sec) 
Heartbeat CPU 0 instructions: 460000000 cycles: 1167811799 heartbeat IPC: 0.309426 cumulative IPC: 0.327453 (Simulation time: 0 hr 19 min 58 sec) 
Heartbeat CPU 0 instructions: 470000000 cycles: 1199684732 heartbeat IPC: 0.313746 cumulative IPC: 0.327067 (Simulation time: 0 hr 20 min 27 sec) 
Heartbeat CPU 0 instructions: 480000000 cycles: 1231757135 heartbeat IPC: 0.311795 cumulative IPC: 0.326646 (Simulation time: 0 hr 20 min 55 sec) 
Heartbeat CPU 0 instructions: 490000000 cycles: 1263541810 heartbeat IPC: 0.314617 cumulative IPC: 0.326326 (Simulation time: 0 hr 21 min 24 sec) 
Heartbeat CPU 0 instructions: 500000000 cycles: 1295718844 heartbeat IPC: 0.310781 cumulative IPC: 0.325919 (Simulation time: 0 hr 21 min 53 sec) 
Heartbeat CPU 0 instructions: 510000000 cycles: 1331869300 heartbeat IPC: 0.276622 cumulative IPC: 0.324508 (Simulation time: 0 hr 22 min 24 sec) 
Heartbeat CPU 0 instructions: 520000000 cycles: 1360709734 heartbeat IPC: 0.346735 cumulative IPC: 0.325004 (Simulation time: 0 hr 22 min 53 sec) 
Heartbeat CPU 0 instructions: 530000001 cycles: 1392326077 heartbeat IPC: 0.316292 cumulative IPC: 0.324796 (Simulation time: 0 hr 23 min 22 sec) 
Heartbeat CPU 0 instructions: 540000000 cycles: 1421978195 heartbeat IPC: 0.337244 cumulative IPC: 0.325069 (Simulation time: 0 hr 23 min 51 sec) 
Heartbeat CPU 0 instructions: 550000001 cycles: 1451905500 heartbeat IPC: 0.334143 cumulative IPC: 0.325265 (Simulation time: 0 hr 24 min 21 sec) 
Heartbeat CPU 0 instructions: 560000000 cycles: 1477790329 heartbeat IPC: 0.386327 cumulative IPC: 0.326387 (Simulation time: 0 hr 24 min 49 sec) 
Heartbeat CPU 0 instructions: 570000000 cycles: 1509171137 heartbeat IPC: 0.318666 cumulative IPC: 0.326218 (Simulation time: 0 hr 25 min 19 sec) 
Heartbeat CPU 0 instructions: 580000000 cycles: 1538444464 heartbeat IPC: 0.341608 cumulative IPC: 0.326525 (Simulation time: 0 hr 25 min 48 sec) 
Heartbeat CPU 0 instructions: 590000001 cycles: 1563832680 heartbeat IPC: 0.393884 cumulative IPC: 0.327668 (Simulation time: 0 hr 26 min 15 sec) 
Heartbeat CPU 0 instructions: 600000000 cycles: 1591175512 heartbeat IPC: 0.365727 cumulative IPC: 0.328352 (Simulation time: 0 hr 26 min 43 sec) 
Finished CPU 0 instructions: 500000000 cycles: 1522756860 cumulative IPC: 0.328352 (Simulation time: 0 hr 26 min 43 sec) 

CPU 0 Branch Prediction Accuracy: 86.4311% MPKI: 26.2662
Number of Branches: 96788573 Number of Mispredictions: 13133102
Number of LOAD Instructions: 164682285
Number of LOAD Instructions (ROI): 164682285
Number of STORE Instructions: 78194750
Number of STORE Instructions (ROI): 78194750
Total Destination Memory Operands: 83268534
Total Destination Memory Operands (ROI): 83268534
Total Source Memory Operands: 164712438
Total Source Memory Operands (ROI): 164712438
Number of DEPENDED LOADS: 7044859
Number of DEPENDED LOADS (ROI): 7044859
Number of SQ_ADDED: 83268522
Number of SQ_ADDED (ROI): 83268522
Number of LQ_ADDED: 236247175
Number of LQ_ADDED (ROI): 236247175
Number of Instructions read from trace: 600000066

ChampSim completed all CPUs

Region of Interest Statistics

CPU 0 cumulative IPC: 0.328352 instructions: 500000000 cycles: 1522756860
ITLB TOTAL     ACCESS:  100533060  HIT:  100328614  MISS:     204446
ITLB LOAD      ACCESS:  100533060  HIT:  100328614  MISS:     204446
ITLB RFO       ACCESS:          0  HIT:          0  MISS:          0
ITLB PREFETCH  ACCESS:          0  HIT:          0  MISS:          0
ITLB WRITEBACK ACCESS:          0  HIT:          0  MISS:          0
ITLB PREFETCH  REQUESTED:          0  ISSUED:          0  USEFUL:          0  USELESS:          0
ITLB TOTAL MSHR MERGED:     172422
ITLB LOAD MSHR MERGED:     172422
ITLB RFO MSHR MERGED:          0
ITLB PREFETCH MSHR MERGED:          0
ITLB WRITEBACK MSHR MERGED:          0
ITLB TOTAL ACCESSES:  100705482 HITS:  100328614 MISSES:     376868
ITLB LOAD ACCESSES:  100705482 HITS:  100328614 MISSES:     376868
ITLB RFO ACCESSES:          0 HITS:          0 MISSES:          0
ITLB PREFETCH ACCESSES:          0 HITS:          0 MISSES:          0
ITLB WRITEBACK ACCESSES:          0 HITS:          0 MISSES:          0
ITLB RQ ACCESS:  500000057
ITLB RQ TO_CACHE:  100705482
ITLB RQ MERGED:  399294575
ITLB RQ FORWARD:          0
ITLB WQ ACCESS:          0
ITLB WQ TO_CACHE:          0
ITLB WQ MERGED:          0
ITLB WQ FORWARD:          0
DTLB TOTAL     ACCESS:  165377726  HIT:  164743381  MISS:     634345
DTLB LOAD      ACCESS:  106320472  HIT:  105750522  MISS:     569950
DTLB RFO       ACCESS:   59057254  HIT:   58992859  MISS:      64395
DTLB PREFETCH  ACCESS:          0  HIT:          0  MISS:          0
DTLB WRITEBACK ACCESS:          0  HIT:          0  MISS:          0
DTLB PREFETCH  REQUESTED:          0  ISSUED:          0  USEFUL:          0  USELESS:          0
DTLB TOTAL MSHR MERGED:      98865
DTLB LOAD MSHR MERGED:      58717
DTLB RFO MSHR MERGED:      40148
DTLB PREFETCH MSHR MERGED:          0
DTLB WRITEBACK MSHR MERGED:          0
DTLB TOTAL ACCESSES:  165476591 HITS:  164743381 MISSES:     733210
DTLB LOAD ACCESSES:  106379189 HITS:  105750522 MISSES:     628667
DTLB RFO ACCESSES:   59097402 HITS:   58992859 MISSES:     104543
DTLB PREFETCH ACCESSES:          0 HITS:          0 MISSES:          0
DTLB WRITEBACK ACCESSES:          0 HITS:          0 MISSES:          0
DTLB RQ ACCESS:  200326017
DTLB RQ TO_CACHE:  165476591
DTLB RQ MERGED:   34849426
DTLB RQ FORWARD:          0
DTLB WQ ACCESS:          0
DTLB WQ TO_CACHE:          0
DTLB WQ MERGED:          0
DTLB WQ FORWARD:          0
L1D TOTAL     ACCESS:  281987216  HIT:  274077691  MISS:    7909525
L1D LOAD      ACCESS:  110466323  HIT:  107192545  MISS:    3273778
L1D RFO       ACCESS:   67149326  HIT:   66259856  MISS:     889470
L1D PREFETCH  ACCESS:  104371567  HIT:  100625290  MISS:    3746277
L1D WRITEBACK ACCESS:          0  HIT:          0  MISS:          0
L1D PREFETCH  REQUESTED:  110855423  ISSUED:  109155519  USEFUL:    1666701  USELESS:    2079540
L1D TOTAL MSHR MERGED:    2804288
L1D LOAD MSHR MERGED:     483175
L1D RFO MSHR MERGED:    1835632
L1D PREFETCH MSHR MERGED:     485481
L1D WRITEBACK MSHR MERGED:          0
L1D TOTAL ACCESSES:  284818825 HITS:  274105012 MISSES:   10713813
L1D LOAD ACCESSES:  110856811 HITS:  107193933 MISSES:    3662878
L1D RFO ACCESSES:   68974286 HITS:   66259856 MISSES:    2714430
L1D PREFETCH ACCESSES:  104987728 HITS:  100651223 MISSES:    4336505
L1D WRITEBACK ACCESSES:          0 HITS:          0 MISSES:          0
L1D RQ ACCESS:  130773414
L1D RQ TO_CACHE:  110855426
L1D RQ MERGED:   19916600
L1D RQ FORWARD:          0
L1D WQ ACCESS:   69552603
L1D WQ TO_CACHE:   68974287
L1D WQ MERGED:     578316
L1D WQ FORWARD:      27321
L1I TOTAL     ACCESS:  126571727  HIT:  122333215  MISS:    4238512
L1I LOAD      ACCESS:  126571727  HIT:  122333215  MISS:    4238512
L1I RFO       ACCESS:          0  HIT:          0  MISS:          0
L1I PREFETCH  ACCESS:          0  HIT:          0  MISS:          0
L1I WRITEBACK ACCESS:          0  HIT:          0  MISS:          0
L1I PREFETCH  REQUESTED:          0  ISSUED:          0  USEFUL:          0  USELESS:          0
L1I TOTAL MSHR MERGED:    1843368
L1I LOAD MSHR MERGED:    1843368
L1I RFO MSHR MERGED:          0
L1I PREFETCH MSHR MERGED:          0
L1I WRITEBACK MSHR MERGED:          0
L1I TOTAL ACCESSES:  128415098 HITS:  122333215 MISSES:    6081883
L1I LOAD ACCESSES:  128415098 HITS:  122333215 MISSES:    6081883
L1I RFO ACCESSES:          0 HITS:          0 MISSES:          0
L1I PREFETCH ACCESSES:          0 HITS:          0 MISSES:          0
L1I WRITEBACK ACCESSES:          0 HITS:          0 MISSES:          0
L1I RQ ACCESS:  500000057
L1I RQ TO_CACHE:  128415098
L1I RQ MERGED:  371584959
L1I RQ FORWARD:          0
L1I WQ ACCESS:          0
L1I WQ TO_CACHE:          0
L1I WQ MERGED:          0
L1I WQ FORWARD:          0
L2C TOTAL     ACCESS:   14905915  HIT:   11159483  MISS:    3746432
L2C LOAD      ACCESS:    7418009  HIT:    5098586  MISS:    2319423
L2C RFO       ACCESS:     878697  HIT:     409965  MISS:     468732
L2C PREFETCH  ACCESS:    4569928  HIT:    3628910  MISS:     941018
L2C WRITEBACK ACCESS:    2039281  HIT:    2022022  MISS:      17259
L2C PREFETCH  REQUESTED:     842817  ISSUED:     842817  USEFUL:     203634  USELESS:     737090
L2C TOTAL MSHR MERGED:       6600
L2C LOAD MSHR MERGED:        704
L2C RFO MSHR MERGED:          0
L2C PREFETCH MSHR MERGED:       5896
L2C WRITEBACK MSHR MERGED:          0
L2C TOTAL ACCESSES:   14913403 HITS:   11159932 MISSES:    3753471
L2C LOAD ACCESSES:    7418215 HITS:    5098792 MISSES:    2319423
L2C RFO ACCESSES:     878798 HITS:     410066 MISSES:     468732
L2C PREFETCH ACCESSES:    4577109 HITS:    3629052 MISSES:     948057
L2C WRITEBACK ACCESSES:    2039281 HITS:    2022022 MISSES:      17259
L2C RQ ACCESS:    8297016
L2C RQ TO_CACHE:    8296709
L2C RQ MERGED:          0
L2C RQ FORWARD:          0
L2C WQ ACCESS:    2039281
L2C WQ TO_CACHE:    2039281
L2C WQ MERGED:          0
L2C WQ FORWARD:        449
LLC TOTAL     ACCESS:    4609750  HIT:    2819163  MISS:    1790587
LLC LOAD      ACCESS:    2318708  HIT:     860737  MISS:    1457971
LLC RFO       ACCESS:     468724  HIT:     435851  MISS:      32873
LLC PREFETCH  ACCESS:     942044  HIT:     681772  MISS:     260272
LLC WRITEBACK ACCESS:     880274  HIT:     840803  MISS:      39471
LLC PREFETCH  REQUESTED:          0  ISSUED:          0  USEFUL:      36484  USELESS:     225262
LLC TOTAL MSHR MERGED:        100
LLC LOAD MSHR MERGED:         32
LLC RFO MSHR MERGED:          0
LLC PREFETCH MSHR MERGED:         68
LLC WRITEBACK MSHR MERGED:          0
LLC TOTAL ACCESSES:    4609877 HITS:    2819190 MISSES:    1790687
LLC LOAD ACCESSES:    2318719 HITS:     860748 MISSES:    1457971
LLC RFO ACCESSES:     468732 HITS:     435859 MISSES:      32873
LLC PREFETCH ACCESSES:     942152 HITS:     681780 MISSES:     260372
LLC WRITEBACK ACCESSES:     880274 HITS:     840803 MISSES:      39471
LLC 0 RQ ACCESS:    2787451
LLC 0 RQ TO_CACHE:    2787432
LLC 0 RQ MERGED:          0
LLC 0 RQ FORWARD:          0
LLC WQ ACCESS:     880274
LLC WQ TO_CACHE:     880274
LLC WQ MERGED:          0
LLC WQ FORWARD:         27
Major fault: 0 Minor fault: 12862
CPU 0 L1D next line prefetcher final stats
CPU 0 L2C PC-based stride prefetcher final stats
All Misses: 2014737
All Hits: 3412015
SD Algo Stats - Switches: 11 SRR-Repls: 602062 BRR-Repls: 984376

DRAM Statistics
 CHANNEL 0
 RQ ROW_BUFFER_HIT:     587828  ROW_BUFFER_MISS:    1161889
 DBUS_CONGESTED:     540006
 WQ ROW_BUFFER_HIT:       4991  ROW_BUFFER_MISS:     128563  FULL:          0

 AVG_CONGESTED_CYCLE: 13
LOADS RETIRED: 136549171
INSTR RETIRED: 500000000
