
*** ChampSim Multicore Out-of-Order Simulator ***

Warmup Instructions: 100000000
Simulation Instructions: 500000000
Number of CPUs: 1
LLC sets: 2048
LLC ways: 16
Clean RRIP Policies: 303132303031323 Dirty RRIP Policies: 2303130323031303 PSEL Width: 10 Track Set: 4294967295 PSEL Mask: 1 Demote Mask: 3122130431221304DS Algo: 0Window size: 0
Off-chip DRAM Size: 4096 MB Channels: 1 Width: 64-bit Data Rate: 1600 MT/s

CPU 0 runs /mnt/beegfs/iconst01/spec2017/Parest.trace.gz
NOT SORTED
TRACE STRING: /mnt/beegfs/iconst01/spec2017/Parest.trace.gz
SORTED
TRACE STRING: /mnt/beegfs/iconst01/spec2017/Parest.trace.gz
INITIAL
TRACE STRING: /mnt/beegfs/iconst01/spec2017/Parest.trace.gz

champsim_seed used: 623

CPU 0 L1D next line prefetcher
CPU 0 L2C IP-based stride prefetcher
Initialize DRRIP state
Assign rand_sets[0]: 454  LLC: 2048
rand_sets[0]: 454
Assign rand_sets[1]: 1662  LLC: 2048
rand_sets[1]: 1662
Assign rand_sets[2]: 1921  LLC: 2048
rand_sets[2]: 1921
Assign rand_sets[3]: 1131  LLC: 2048
rand_sets[3]: 1131
Assign rand_sets[4]: 331  LLC: 2048
rand_sets[4]: 331
Assign rand_sets[5]: 1531  LLC: 2048
rand_sets[5]: 1531
Assign rand_sets[6]: 482  LLC: 2048
rand_sets[6]: 482
Assign rand_sets[7]: 1275  LLC: 2048
rand_sets[7]: 1275
Assign rand_sets[8]: 1876  LLC: 2048
rand_sets[8]: 1876
Assign rand_sets[9]: 2038  LLC: 2048
rand_sets[9]: 2038
Assign rand_sets[10]: 701  LLC: 2048
rand_sets[10]: 701
Assign rand_sets[11]: 479  LLC: 2048
rand_sets[11]: 479
Assign rand_sets[12]: 892  LLC: 2048
rand_sets[12]: 892
Assign rand_sets[13]: 1820  LLC: 2048
rand_sets[13]: 1820
Assign rand_sets[14]: 1505  LLC: 2048
rand_sets[14]: 1505
Assign rand_sets[15]: 1159  LLC: 2048
rand_sets[15]: 1159
Assign rand_sets[16]: 513  LLC: 2048
rand_sets[16]: 513
Assign rand_sets[17]: 703  LLC: 2048
rand_sets[17]: 703
Assign rand_sets[18]: 561  LLC: 2048
rand_sets[18]: 561
Assign rand_sets[19]: 990  LLC: 2048
rand_sets[19]: 990
Assign rand_sets[20]: 342  LLC: 2048
rand_sets[20]: 342
Assign rand_sets[21]: 882  LLC: 2048
rand_sets[21]: 882
Assign rand_sets[22]: 15  LLC: 2048
rand_sets[22]: 15
Assign rand_sets[23]: 71  LLC: 2048
rand_sets[23]: 71
Assign rand_sets[24]: 1127  LLC: 2048
rand_sets[24]: 1127
Assign rand_sets[25]: 1382  LLC: 2048
rand_sets[25]: 1382
Assign rand_sets[26]: 647  LLC: 2048
rand_sets[26]: 647
Assign rand_sets[27]: 857  LLC: 2048
rand_sets[27]: 857
Assign rand_sets[28]: 1450  LLC: 2048
rand_sets[28]: 1450
Assign rand_sets[29]: 1160  LLC: 2048
rand_sets[29]: 1160
Assign rand_sets[30]: 1852  LLC: 2048
rand_sets[30]: 1852
Assign rand_sets[31]: 1881  LLC: 2048
rand_sets[31]: 1881
Assign rand_sets[32]: 1770  LLC: 2048
rand_sets[32]: 1770
Assign rand_sets[33]: 1622  LLC: 2048
rand_sets[33]: 1622
Assign rand_sets[34]: 275  LLC: 2048
rand_sets[34]: 275
Assign rand_sets[35]: 635  LLC: 2048
rand_sets[35]: 635
Assign rand_sets[36]: 466  LLC: 2048
rand_sets[36]: 466
Assign rand_sets[37]: 1413  LLC: 2048
rand_sets[37]: 1413
Assign rand_sets[38]: 417  LLC: 2048
rand_sets[38]: 417
Assign rand_sets[39]: 472  LLC: 2048
rand_sets[39]: 472
Assign rand_sets[40]: 1340  LLC: 2048
rand_sets[40]: 1340
Assign rand_sets[41]: 852  LLC: 2048
rand_sets[41]: 852
Assign rand_sets[42]: 1365  LLC: 2048
rand_sets[42]: 1365
Assign rand_sets[43]: 47  LLC: 2048
rand_sets[43]: 47
Assign rand_sets[44]: 823  LLC: 2048
rand_sets[44]: 823
Assign rand_sets[45]: 686  LLC: 2048
rand_sets[45]: 686
Assign rand_sets[46]: 1637  LLC: 2048
rand_sets[46]: 1637
Assign rand_sets[47]: 1115  LLC: 2048
rand_sets[47]: 1115
Assign rand_sets[48]: 986  LLC: 2048
rand_sets[48]: 986
Assign rand_sets[49]: 258  LLC: 2048
rand_sets[49]: 258
Assign rand_sets[50]: 633  LLC: 2048
rand_sets[50]: 633
Assign rand_sets[51]: 920  LLC: 2048
rand_sets[51]: 920
Assign rand_sets[52]: 204  LLC: 2048
rand_sets[52]: 204
Assign rand_sets[53]: 227  LLC: 2048
rand_sets[53]: 227
Assign rand_sets[54]: 1818  LLC: 2048
rand_sets[54]: 1818
Assign rand_sets[55]: 886  LLC: 2048
rand_sets[55]: 886
Assign rand_sets[56]: 1422  LLC: 2048
rand_sets[56]: 1422
Assign rand_sets[57]: 607  LLC: 2048
rand_sets[57]: 607
Assign rand_sets[58]: 217  LLC: 2048
rand_sets[58]: 217
Assign rand_sets[59]: 1945  LLC: 2048
rand_sets[59]: 1945
Assign rand_sets[60]: 143  LLC: 2048
rand_sets[60]: 143
Assign rand_sets[61]: 1311  LLC: 2048
rand_sets[61]: 1311
Assign rand_sets[62]: 319  LLC: 2048
rand_sets[62]: 319
Assign rand_sets[63]: 1846  LLC: 2048
rand_sets[63]: 1846
 CLEAN-RRIP-POLICY-1: 0-3-0-3-1-3-2-3- CLEAN-RRIP-POLICY-2: 0-3-0-3-1-3-2-3-
 DIRTY-RRIP-POLICY-1: 2-3-0-3-1-3-0-3- DIRTY-RRIP-POLICY-2: 2-3-0-3-1-3-0-3-
 PSEL width: 10
Heartbeat CPU 0 instructions: 10000001 cycles: 4387687 heartbeat IPC: 2.27911 cumulative IPC: 2.27911 (Simulation time: 0 hr 0 min 14 sec) 
Heartbeat CPU 0 instructions: 20000000 cycles: 8782025 heartbeat IPC: 2.27566 cumulative IPC: 2.27738 (Simulation time: 0 hr 0 min 28 sec) 
Heartbeat CPU 0 instructions: 30000003 cycles: 13214307 heartbeat IPC: 2.25617 cumulative IPC: 2.27027 (Simulation time: 0 hr 0 min 42 sec) 
Heartbeat CPU 0 instructions: 40000000 cycles: 17645599 heartbeat IPC: 2.25668 cumulative IPC: 2.26685 (Simulation time: 0 hr 0 min 56 sec) 
Heartbeat CPU 0 instructions: 50000000 cycles: 22053407 heartbeat IPC: 2.2687 cumulative IPC: 2.26722 (Simulation time: 0 hr 1 min 10 sec) 
Heartbeat CPU 0 instructions: 60000000 cycles: 26458977 heartbeat IPC: 2.26985 cumulative IPC: 2.26766 (Simulation time: 0 hr 1 min 23 sec) 
Heartbeat CPU 0 instructions: 70000000 cycles: 30860364 heartbeat IPC: 2.27201 cumulative IPC: 2.26828 (Simulation time: 0 hr 1 min 37 sec) 
Heartbeat CPU 0 instructions: 80000000 cycles: 35256787 heartbeat IPC: 2.27458 cumulative IPC: 2.26907 (Simulation time: 0 hr 1 min 52 sec) 
Heartbeat CPU 0 instructions: 90000000 cycles: 39651194 heartbeat IPC: 2.27562 cumulative IPC: 2.26979 (Simulation time: 0 hr 2 min 6 sec) 
Heartbeat CPU 0 instructions: 100000000 cycles: 44048601 heartbeat IPC: 2.27407 cumulative IPC: 2.27022 (Simulation time: 0 hr 2 min 20 sec) 

Warmup complete CPU 0 instructions: 100000002 cycles: 44048611 (Simulation time: 0 hr 2 min 20 sec) 

Heartbeat CPU 0 instructions: 110000000 cycles: 55474084 heartbeat IPC: 0.875237 cumulative IPC: 0.875237 (Simulation time: 0 hr 2 min 39 sec) 
Heartbeat CPU 0 instructions: 120000000 cycles: 65878403 heartbeat IPC: 0.961139 cumulative IPC: 0.916179 (Simulation time: 0 hr 2 min 58 sec) 
Heartbeat CPU 0 instructions: 130000000 cycles: 76299374 heartbeat IPC: 0.959603 cumulative IPC: 0.93021 (Simulation time: 0 hr 3 min 16 sec) 
Heartbeat CPU 0 instructions: 140000000 cycles: 86779931 heartbeat IPC: 0.954148 cumulative IPC: 0.936081 (Simulation time: 0 hr 3 min 35 sec) 
Heartbeat CPU 0 instructions: 150000000 cycles: 99548935 heartbeat IPC: 0.783146 cumulative IPC: 0.900896 (Simulation time: 0 hr 3 min 54 sec) 
Heartbeat CPU 0 instructions: 160000000 cycles: 111723546 heartbeat IPC: 0.821382 cumulative IPC: 0.886591 (Simulation time: 0 hr 4 min 13 sec) 
Heartbeat CPU 0 instructions: 170000000 cycles: 123461715 heartbeat IPC: 0.851922 cumulative IPC: 0.881467 (Simulation time: 0 hr 4 min 32 sec) 
Heartbeat CPU 0 instructions: 180000000 cycles: 135088657 heartbeat IPC: 0.860071 cumulative IPC: 0.878734 (Simulation time: 0 hr 4 min 51 sec) 
Heartbeat CPU 0 instructions: 190000002 cycles: 146672482 heartbeat IPC: 0.863273 cumulative IPC: 0.876989 (Simulation time: 0 hr 5 min 10 sec) 
Heartbeat CPU 0 instructions: 200000000 cycles: 157369523 heartbeat IPC: 0.934838 cumulative IPC: 0.88245 (Simulation time: 0 hr 5 min 29 sec) 
Heartbeat CPU 0 instructions: 210000000 cycles: 168705925 heartbeat IPC: 0.882114 cumulative IPC: 0.882419 (Simulation time: 0 hr 5 min 48 sec) 
Heartbeat CPU 0 instructions: 220000000 cycles: 178885872 heartbeat IPC: 0.982323 cumulative IPC: 0.889962 (Simulation time: 0 hr 6 min 6 sec) 
Heartbeat CPU 0 instructions: 230000001 cycles: 191420036 heartbeat IPC: 0.79782 cumulative IPC: 0.882125 (Simulation time: 0 hr 6 min 26 sec) 
Heartbeat CPU 0 instructions: 240000000 cycles: 203754433 heartbeat IPC: 0.810741 cumulative IPC: 0.876612 (Simulation time: 0 hr 6 min 45 sec) 
Heartbeat CPU 0 instructions: 250000002 cycles: 215468126 heartbeat IPC: 0.853702 cumulative IPC: 0.875046 (Simulation time: 0 hr 7 min 4 sec) 
Heartbeat CPU 0 instructions: 260000000 cycles: 226910807 heartbeat IPC: 0.873921 cumulative IPC: 0.874976 (Simulation time: 0 hr 7 min 23 sec) 
Heartbeat CPU 0 instructions: 270000001 cycles: 238113572 heartbeat IPC: 0.892637 cumulative IPC: 0.875995 (Simulation time: 0 hr 7 min 42 sec) 
Heartbeat CPU 0 instructions: 280000000 cycles: 249539825 heartbeat IPC: 0.875177 cumulative IPC: 0.87595 (Simulation time: 0 hr 8 min 1 sec) 
Heartbeat CPU 0 instructions: 290000002 cycles: 259799052 heartbeat IPC: 0.974733 cumulative IPC: 0.880647 (Simulation time: 0 hr 8 min 20 sec) 
Heartbeat CPU 0 instructions: 300000000 cycles: 270839474 heartbeat IPC: 0.905762 cumulative IPC: 0.88187 (Simulation time: 0 hr 8 min 38 sec) 
Heartbeat CPU 0 instructions: 310000000 cycles: 280873395 heartbeat IPC: 0.996619 cumulative IPC: 0.886732 (Simulation time: 0 hr 8 min 57 sec) 
Heartbeat CPU 0 instructions: 320000000 cycles: 290919641 heartbeat IPC: 0.995397 cumulative IPC: 0.891154 (Simulation time: 0 hr 9 min 15 sec) 
Heartbeat CPU 0 instructions: 330000003 cycles: 301113213 heartbeat IPC: 0.981011 cumulative IPC: 0.894717 (Simulation time: 0 hr 9 min 33 sec) 
Heartbeat CPU 0 instructions: 340000000 cycles: 312362208 heartbeat IPC: 0.888968 cumulative IPC: 0.894476 (Simulation time: 0 hr 9 min 52 sec) 
Heartbeat CPU 0 instructions: 350000000 cycles: 324513109 heartbeat IPC: 0.822984 cumulative IPC: 0.891378 (Simulation time: 0 hr 10 min 11 sec) 
Heartbeat CPU 0 instructions: 360000000 cycles: 336383988 heartbeat IPC: 0.842398 cumulative IPC: 0.889389 (Simulation time: 0 hr 10 min 30 sec) 
Heartbeat CPU 0 instructions: 370000000 cycles: 347762913 heartbeat IPC: 0.878818 cumulative IPC: 0.888993 (Simulation time: 0 hr 10 min 49 sec) 
Heartbeat CPU 0 instructions: 380000000 cycles: 358692463 heartbeat IPC: 0.914951 cumulative IPC: 0.889895 (Simulation time: 0 hr 11 min 8 sec) 
Heartbeat CPU 0 instructions: 390000002 cycles: 369371800 heartbeat IPC: 0.936388 cumulative IPC: 0.891421 (Simulation time: 0 hr 11 min 27 sec) 
Heartbeat CPU 0 instructions: 400000000 cycles: 380470372 heartbeat IPC: 0.901017 cumulative IPC: 0.891738 (Simulation time: 0 hr 11 min 45 sec) 
Heartbeat CPU 0 instructions: 410000000 cycles: 390536709 heartbeat IPC: 0.99341 cumulative IPC: 0.894692 (Simulation time: 0 hr 12 min 3 sec) 
Heartbeat CPU 0 instructions: 420000000 cycles: 401943100 heartbeat IPC: 0.876701 cumulative IPC: 0.894118 (Simulation time: 0 hr 12 min 22 sec) 
Heartbeat CPU 0 instructions: 430000000 cycles: 414641946 heartbeat IPC: 0.787473 cumulative IPC: 0.890464 (Simulation time: 0 hr 12 min 41 sec) 
Heartbeat CPU 0 instructions: 440000000 cycles: 426308041 heartbeat IPC: 0.857185 cumulative IPC: 0.889448 (Simulation time: 0 hr 13 min 0 sec) 
Heartbeat CPU 0 instructions: 450000000 cycles: 437836259 heartbeat IPC: 0.867437 cumulative IPC: 0.888804 (Simulation time: 0 hr 13 min 19 sec) 
Heartbeat CPU 0 instructions: 460000000 cycles: 449252041 heartbeat IPC: 0.87598 cumulative IPC: 0.888443 (Simulation time: 0 hr 13 min 37 sec) 
Heartbeat CPU 0 instructions: 470000001 cycles: 460526295 heartbeat IPC: 0.886977 cumulative IPC: 0.888403 (Simulation time: 0 hr 13 min 56 sec) 
Heartbeat CPU 0 instructions: 480000000 cycles: 470916669 heartbeat IPC: 0.962429 cumulative IPC: 0.890205 (Simulation time: 0 hr 14 min 14 sec) 
Heartbeat CPU 0 instructions: 490000002 cycles: 481856496 heartbeat IPC: 0.914091 cumulative IPC: 0.890802 (Simulation time: 0 hr 14 min 33 sec) 
Heartbeat CPU 0 instructions: 500000000 cycles: 492242490 heartbeat IPC: 0.962835 cumulative IPC: 0.892471 (Simulation time: 0 hr 14 min 51 sec) 
Heartbeat CPU 0 instructions: 510000000 cycles: 502171053 heartbeat IPC: 1.0072 cumulative IPC: 0.894957 (Simulation time: 0 hr 15 min 9 sec) 
Heartbeat CPU 0 instructions: 520000000 cycles: 512349055 heartbeat IPC: 0.982511 cumulative IPC: 0.89686 (Simulation time: 0 hr 15 min 27 sec) 
Heartbeat CPU 0 instructions: 530000003 cycles: 523746249 heartbeat IPC: 0.877409 cumulative IPC: 0.896398 (Simulation time: 0 hr 15 min 45 sec) 
Heartbeat CPU 0 instructions: 540000000 cycles: 535827772 heartbeat IPC: 0.82771 cumulative IPC: 0.894711 (Simulation time: 0 hr 16 min 4 sec) 
Heartbeat CPU 0 instructions: 550000003 cycles: 547806515 heartbeat IPC: 0.834812 cumulative IPC: 0.893286 (Simulation time: 0 hr 16 min 23 sec) 
Heartbeat CPU 0 instructions: 560000000 cycles: 559301088 heartbeat IPC: 0.869976 cumulative IPC: 0.892766 (Simulation time: 0 hr 16 min 42 sec) 
Heartbeat CPU 0 instructions: 570000002 cycles: 570351589 heartbeat IPC: 0.904937 cumulative IPC: 0.893022 (Simulation time: 0 hr 17 min 0 sec) 
Heartbeat CPU 0 instructions: 580000000 cycles: 581286595 heartbeat IPC: 0.914494 cumulative IPC: 0.893459 (Simulation time: 0 hr 17 min 18 sec) 
Heartbeat CPU 0 instructions: 590000002 cycles: 592265292 heartbeat IPC: 0.910855 cumulative IPC: 0.893807 (Simulation time: 0 hr 17 min 37 sec) 
Heartbeat CPU 0 instructions: 600000000 cycles: 602709943 heartbeat IPC: 0.957428 cumulative IPC: 0.894997 (Simulation time: 0 hr 17 min 55 sec) 
Finished CPU 0 instructions: 500000000 cycles: 558661346 cumulative IPC: 0.894997 (Simulation time: 0 hr 17 min 55 sec) 

CPU 0 Branch Prediction Accuracy: 97.8526% MPKI: 2.66709
Number of Branches: 62099103 Number of Mispredictions: 1333545
Number of LOAD Instructions: 210576465
Number of LOAD Instructions (ROI): 210576465
Number of STORE Instructions: 16915507
Number of STORE Instructions (ROI): 16915507
Total Destination Memory Operands: 16918869
Total Destination Memory Operands (ROI): 16918869
Total Source Memory Operands: 210576465
Total Source Memory Operands (ROI): 210576465
Number of DEPENDED LOADS: 224472
Number of DEPENDED LOADS (ROI): 224472
Number of SQ_ADDED: 16918826
Number of SQ_ADDED (ROI): 16918826
Number of LQ_ADDED: 210628676
Number of LQ_ADDED (ROI): 210628676
Number of Instructions read from trace: 600000257

ChampSim completed all CPUs

Region of Interest Statistics

CPU 0 cumulative IPC: 0.894997 instructions: 500000000 cycles: 558661346
ITLB TOTAL     ACCESS:   76816342  HIT:   76816304  MISS:         38
ITLB LOAD      ACCESS:   76816342  HIT:   76816304  MISS:         38
ITLB RFO       ACCESS:          0  HIT:          0  MISS:          0
ITLB PREFETCH  ACCESS:          0  HIT:          0  MISS:          0
ITLB WRITEBACK ACCESS:          0  HIT:          0  MISS:          0
ITLB PREFETCH  REQUESTED:          0  ISSUED:          0  USEFUL:          0  USELESS:          0
ITLB TOTAL MSHR MERGED:         37
ITLB LOAD MSHR MERGED:         37
ITLB RFO MSHR MERGED:          0
ITLB PREFETCH MSHR MERGED:          0
ITLB WRITEBACK MSHR MERGED:          0
ITLB TOTAL ACCESSES:   76816379 HITS:   76816304 MISSES:         75
ITLB LOAD ACCESSES:   76816379 HITS:   76816304 MISSES:         75
ITLB RFO ACCESSES:          0 HITS:          0 MISSES:          0
ITLB PREFETCH ACCESSES:          0 HITS:          0 MISSES:          0
ITLB WRITEBACK ACCESSES:          0 HITS:          0 MISSES:          0
ITLB RQ ACCESS:  500000188
ITLB RQ TO_CACHE:   76816380
ITLB RQ MERGED:  423183808
ITLB RQ FORWARD:          0
ITLB WQ ACCESS:          0
ITLB WQ TO_CACHE:          0
ITLB WQ MERGED:          0
ITLB WQ FORWARD:          0
DTLB TOTAL     ACCESS:  136594902  HIT:  136392113  MISS:     202789
DTLB LOAD      ACCESS:  128527589  HIT:  128327521  MISS:     200068
DTLB RFO       ACCESS:    8067313  HIT:    8064592  MISS:       2721
DTLB PREFETCH  ACCESS:          0  HIT:          0  MISS:          0
DTLB WRITEBACK ACCESS:          0  HIT:          0  MISS:          0
DTLB PREFETCH  REQUESTED:          0  ISSUED:          0  USEFUL:          0  USELESS:          0
DTLB TOTAL MSHR MERGED:     436000
DTLB LOAD MSHR MERGED:     432016
DTLB RFO MSHR MERGED:       3984
DTLB PREFETCH MSHR MERGED:          0
DTLB WRITEBACK MSHR MERGED:          0
DTLB TOTAL ACCESSES:  137030902 HITS:  136392113 MISSES:     638789
DTLB LOAD ACCESSES:  128959605 HITS:  128327521 MISSES:     632084
DTLB RFO ACCESSES:    8071297 HITS:    8064592 MISSES:       6705
DTLB PREFETCH ACCESSES:          0 HITS:          0 MISSES:          0
DTLB WRITEBACK ACCESSES:          0 HITS:          0 MISSES:          0
DTLB RQ ACCESS:  189538672
DTLB RQ TO_CACHE:  137030902
DTLB RQ MERGED:   52507770
DTLB RQ FORWARD:          0
DTLB WQ ACCESS:          0
DTLB WQ TO_CACHE:          0
DTLB WQ MERGED:          0
DTLB WQ FORWARD:          0
L1D TOTAL     ACCESS:  124426596  HIT:  106869763  MISS:   17556833
L1D LOAD      ACCESS:   72054351  HIT:   61502679  MISS:   10551672
L1D RFO       ACCESS:   14021172  HIT:   13868345  MISS:     152827
L1D PREFETCH  ACCESS:   38351073  HIT:   31498739  MISS:    6852334
L1D WRITEBACK ACCESS:          0  HIT:          0  MISS:          0
L1D PREFETCH  REQUESTED:   86124755  ISSUED:   84794390  USEFUL:    5592971  USELESS:    1259374
L1D TOTAL MSHR MERGED:   34400042
L1D LOAD MSHR MERGED:   19605304
L1D RFO MSHR MERGED:     263706
L1D PREFETCH MSHR MERGED:   14531032
L1D WRITEBACK MSHR MERGED:          0
L1D TOTAL ACCESSES:  158827060 HITS:  106870186 MISSES:   51956874
L1D LOAD ACCESSES:   86124766 HITS:   61502690 MISSES:   24622076
L1D RFO ACCESSES:   14284864 HITS:   13868345 MISSES:     416519
L1D PREFETCH ACCESSES:   58417430 HITS:   31499151 MISSES:   26918279
L1D WRITEBACK ACCESSES:          0 HITS:          0 MISSES:          0
L1D RQ ACCESS:  175249650
L1D RQ TO_CACHE:   86124755
L1D RQ MERGED:   89124884
L1D RQ FORWARD:          0
L1D WQ ACCESS:   14289037
L1D WQ TO_CACHE:   14284864
L1D WQ MERGED:       4173
L1D WQ FORWARD:        423
L1I TOTAL     ACCESS:   93850443  HIT:   93848647  MISS:       1796
L1I LOAD      ACCESS:   93850443  HIT:   93848647  MISS:       1796
L1I RFO       ACCESS:          0  HIT:          0  MISS:          0
L1I PREFETCH  ACCESS:          0  HIT:          0  MISS:          0
L1I WRITEBACK ACCESS:          0  HIT:          0  MISS:          0
L1I PREFETCH  REQUESTED:          0  ISSUED:          0  USEFUL:          0  USELESS:          0
L1I TOTAL MSHR MERGED:       2334
L1I LOAD MSHR MERGED:       2334
L1I RFO MSHR MERGED:          0
L1I PREFETCH MSHR MERGED:          0
L1I WRITEBACK MSHR MERGED:          0
L1I TOTAL ACCESSES:   93852777 HITS:   93848647 MISSES:       4130
L1I LOAD ACCESSES:   93852777 HITS:   93848647 MISSES:       4130
L1I RFO ACCESSES:          0 HITS:          0 MISSES:          0
L1I PREFETCH ACCESSES:          0 HITS:          0 MISSES:          0
L1I WRITEBACK ACCESSES:          0 HITS:          0 MISSES:          0
L1I RQ ACCESS:  500000187
L1I RQ TO_CACHE:   93852777
L1I RQ MERGED:  406147410
L1I RQ FORWARD:          0
L1I WQ ACCESS:          0
L1I WQ TO_CACHE:          0
L1I WQ MERGED:          0
L1I WQ FORWARD:          0
L2C TOTAL     ACCESS:   20862983  HIT:    8640445  MISS:   12222538
L2C LOAD      ACCESS:    5018545  HIT:    2124687  MISS:    2893858
L2C RFO       ACCESS:     152812  HIT:       6525  MISS:     146287
L2C PREFETCH  ACCESS:   13918864  HIT:    4736581  MISS:    9182283
L2C WRITEBACK ACCESS:    1772762  HIT:    1772652  MISS:        110
L2C PREFETCH  REQUESTED:    1778779  ISSUED:    1778779  USEFUL:    1051271  USELESS:    8132663
L2C TOTAL MSHR MERGED:      99313
L2C LOAD MSHR MERGED:      23369
L2C RFO MSHR MERGED:          0
L2C PREFETCH MSHR MERGED:      75944
L2C WRITEBACK MSHR MERGED:          0
L2C TOTAL ACCESSES:   21004632 HITS:    8640489 MISSES:   12364143
L2C LOAD ACCESSES:    5018568 HITS:    2124710 MISSES:    2893858
L2C RFO ACCESSES:     152813 HITS:       6526 MISSES:     146287
L2C PREFETCH ACCESSES:   14060489 HITS:    4736601 MISSES:    9323888
L2C WRITEBACK ACCESSES:    1772762 HITS:    1772652 MISSES:        110
L2C RQ ACCESS:    5171381
L2C RQ TO_CACHE:    5171357
L2C RQ MERGED:          0
L2C RQ FORWARD:          0
L2C WQ ACCESS:    1772762
L2C WQ TO_CACHE:    1772762
L2C WQ MERGED:          0
L2C WQ FORWARD:         44
LLC TOTAL     ACCESS:   12542698  HIT:    2107345  MISS:   10435353
LLC LOAD      ACCESS:    2870482  HIT:     314825  MISS:    2555657
LLC RFO       ACCESS:     146287  HIT:     115549  MISS:      30738
LLC PREFETCH  ACCESS:    9239981  HIT:    1441698  MISS:    7798283
LLC WRITEBACK ACCESS:     285948  HIT:     235273  MISS:      50675
LLC PREFETCH  REQUESTED:          0  ISSUED:          0  USEFUL:       6684  USELESS:    7793658
LLC TOTAL MSHR MERGED:       4525
LLC LOAD MSHR MERGED:        616
LLC RFO MSHR MERGED:          0
LLC PREFETCH MSHR MERGED:       3909
LLC WRITEBACK MSHR MERGED:          0
LLC TOTAL ACCESSES:   12547242 HITS:    2107364 MISSES:   10439878
LLC LOAD ACCESSES:    2870489 HITS:     314832 MISSES:    2555657
LLC RFO ACCESSES:     146287 HITS:     115549 MISSES:      30738
LLC PREFETCH ACCESSES:    9244518 HITS:    1441710 MISSES:    7802808
LLC WRITEBACK ACCESSES:     285948 HITS:     235273 MISSES:      50675
LLC 0 RQ ACCESS:    3016776
LLC 0 RQ TO_CACHE:    3016769
LLC 0 RQ MERGED:          0
LLC 0 RQ FORWARD:          0
LLC WQ ACCESS:     285948
LLC WQ TO_CACHE:     285948
LLC WQ MERGED:          0
LLC WQ FORWARD:         19
Major fault: 0 Minor fault: 6524
CPU 0 L1D next line prefetcher final stats
CPU 0 L2C PC-based stride prefetcher final stats
All Misses: 12808999
All Hits: 2258707
SD Algo Stats - Switches: 0 SRR-Repls: 2775903 BRR-Repls: 0

DRAM Statistics
 CHANNEL 0
 RQ ROW_BUFFER_HIT:    9489967  ROW_BUFFER_MISS:     881680
 DBUS_CONGESTED:    5538182
 WQ ROW_BUFFER_HIT:      15734  ROW_BUFFER_MISS:      30546  FULL:          0

 AVG_CONGESTED_CYCLE: 12
LOADS RETIRED: 175418235
INSTR RETIRED: 500000000
