
*** ChampSim Multicore Out-of-Order Simulator ***

Warmup Instructions: 100000000
Simulation Instructions: 500000000
Number of CPUs: 1
LLC sets: 2048
LLC ways: 16
Clean RRIP Policies: 1003101210031012 Dirty RRIP Policies: 2013002220130022 PSEL Width: 10 Track Set: 4294967295 PSEL Mask: 1 Demote Mask: 3031042030310420DS Algo: 0Window size: 0
Off-chip DRAM Size: 4096 MB Channels: 1 Width: 64-bit Data Rate: 1600 MT/s

CPU 0 runs /mnt/beegfs/iconst01/spec2017/Gcc.trace.gz
NOT SORTED
TRACE STRING: /mnt/beegfs/iconst01/spec2017/Gcc.trace.gz
SORTED
TRACE STRING: /mnt/beegfs/iconst01/spec2017/Gcc.trace.gz
INITIAL
TRACE STRING: /mnt/beegfs/iconst01/spec2017/Gcc.trace.gz

champsim_seed used: 269

CPU 0 L1D next line prefetcher
CPU 0 L2C IP-based stride prefetcher
Initialize DRRIP state
Assign rand_sets[0]: 454  LLC: 2048
rand_sets[0]: 454
Assign rand_sets[1]: 1662  LLC: 2048
rand_sets[1]: 1662
Assign rand_sets[2]: 1921  LLC: 2048
rand_sets[2]: 1921
Assign rand_sets[3]: 1131  LLC: 2048
rand_sets[3]: 1131
Assign rand_sets[4]: 331  LLC: 2048
rand_sets[4]: 331
Assign rand_sets[5]: 1531  LLC: 2048
rand_sets[5]: 1531
Assign rand_sets[6]: 482  LLC: 2048
rand_sets[6]: 482
Assign rand_sets[7]: 1275  LLC: 2048
rand_sets[7]: 1275
Assign rand_sets[8]: 1876  LLC: 2048
rand_sets[8]: 1876
Assign rand_sets[9]: 2038  LLC: 2048
rand_sets[9]: 2038
Assign rand_sets[10]: 701  LLC: 2048
rand_sets[10]: 701
Assign rand_sets[11]: 479  LLC: 2048
rand_sets[11]: 479
Assign rand_sets[12]: 892  LLC: 2048
rand_sets[12]: 892
Assign rand_sets[13]: 1820  LLC: 2048
rand_sets[13]: 1820
Assign rand_sets[14]: 1505  LLC: 2048
rand_sets[14]: 1505
Assign rand_sets[15]: 1159  LLC: 2048
rand_sets[15]: 1159
Assign rand_sets[16]: 513  LLC: 2048
rand_sets[16]: 513
Assign rand_sets[17]: 703  LLC: 2048
rand_sets[17]: 703
Assign rand_sets[18]: 561  LLC: 2048
rand_sets[18]: 561
Assign rand_sets[19]: 990  LLC: 2048
rand_sets[19]: 990
Assign rand_sets[20]: 342  LLC: 2048
rand_sets[20]: 342
Assign rand_sets[21]: 882  LLC: 2048
rand_sets[21]: 882
Assign rand_sets[22]: 15  LLC: 2048
rand_sets[22]: 15
Assign rand_sets[23]: 71  LLC: 2048
rand_sets[23]: 71
Assign rand_sets[24]: 1127  LLC: 2048
rand_sets[24]: 1127
Assign rand_sets[25]: 1382  LLC: 2048
rand_sets[25]: 1382
Assign rand_sets[26]: 647  LLC: 2048
rand_sets[26]: 647
Assign rand_sets[27]: 857  LLC: 2048
rand_sets[27]: 857
Assign rand_sets[28]: 1450  LLC: 2048
rand_sets[28]: 1450
Assign rand_sets[29]: 1160  LLC: 2048
rand_sets[29]: 1160
Assign rand_sets[30]: 1852  LLC: 2048
rand_sets[30]: 1852
Assign rand_sets[31]: 1881  LLC: 2048
rand_sets[31]: 1881
Assign rand_sets[32]: 1770  LLC: 2048
rand_sets[32]: 1770
Assign rand_sets[33]: 1622  LLC: 2048
rand_sets[33]: 1622
Assign rand_sets[34]: 275  LLC: 2048
rand_sets[34]: 275
Assign rand_sets[35]: 635  LLC: 2048
rand_sets[35]: 635
Assign rand_sets[36]: 466  LLC: 2048
rand_sets[36]: 466
Assign rand_sets[37]: 1413  LLC: 2048
rand_sets[37]: 1413
Assign rand_sets[38]: 417  LLC: 2048
rand_sets[38]: 417
Assign rand_sets[39]: 472  LLC: 2048
rand_sets[39]: 472
Assign rand_sets[40]: 1340  LLC: 2048
rand_sets[40]: 1340
Assign rand_sets[41]: 852  LLC: 2048
rand_sets[41]: 852
Assign rand_sets[42]: 1365  LLC: 2048
rand_sets[42]: 1365
Assign rand_sets[43]: 47  LLC: 2048
rand_sets[43]: 47
Assign rand_sets[44]: 823  LLC: 2048
rand_sets[44]: 823
Assign rand_sets[45]: 686  LLC: 2048
rand_sets[45]: 686
Assign rand_sets[46]: 1637  LLC: 2048
rand_sets[46]: 1637
Assign rand_sets[47]: 1115  LLC: 2048
rand_sets[47]: 1115
Assign rand_sets[48]: 986  LLC: 2048
rand_sets[48]: 986
Assign rand_sets[49]: 258  LLC: 2048
rand_sets[49]: 258
Assign rand_sets[50]: 633  LLC: 2048
rand_sets[50]: 633
Assign rand_sets[51]: 920  LLC: 2048
rand_sets[51]: 920
Assign rand_sets[52]: 204  LLC: 2048
rand_sets[52]: 204
Assign rand_sets[53]: 227  LLC: 2048
rand_sets[53]: 227
Assign rand_sets[54]: 1818  LLC: 2048
rand_sets[54]: 1818
Assign rand_sets[55]: 886  LLC: 2048
rand_sets[55]: 886
Assign rand_sets[56]: 1422  LLC: 2048
rand_sets[56]: 1422
Assign rand_sets[57]: 607  LLC: 2048
rand_sets[57]: 607
Assign rand_sets[58]: 217  LLC: 2048
rand_sets[58]: 217
Assign rand_sets[59]: 1945  LLC: 2048
rand_sets[59]: 1945
Assign rand_sets[60]: 143  LLC: 2048
rand_sets[60]: 143
Assign rand_sets[61]: 1311  LLC: 2048
rand_sets[61]: 1311
Assign rand_sets[62]: 319  LLC: 2048
rand_sets[62]: 319
Assign rand_sets[63]: 1846  LLC: 2048
rand_sets[63]: 1846
 CLEAN-RRIP-POLICY-1: 1-0-0-3-1-0-1-2- CLEAN-RRIP-POLICY-2: 1-0-0-3-1-0-1-2-
 DIRTY-RRIP-POLICY-1: 2-0-1-3-0-0-2-2- DIRTY-RRIP-POLICY-2: 2-0-1-3-0-0-2-2-
 PSEL width: 10
Heartbeat CPU 0 instructions: 10000001 cycles: 7315979 heartbeat IPC: 1.36687 cumulative IPC: 1.36687 (Simulation time: 0 hr 0 min 15 sec) 
Heartbeat CPU 0 instructions: 20000000 cycles: 14307835 heartbeat IPC: 1.43024 cumulative IPC: 1.39784 (Simulation time: 0 hr 0 min 29 sec) 
Heartbeat CPU 0 instructions: 30000001 cycles: 21021029 heartbeat IPC: 1.4896 cumulative IPC: 1.42714 (Simulation time: 0 hr 0 min 45 sec) 
Heartbeat CPU 0 instructions: 40000000 cycles: 27481930 heartbeat IPC: 1.54777 cumulative IPC: 1.4555 (Simulation time: 0 hr 1 min 2 sec) 
Heartbeat CPU 0 instructions: 50000001 cycles: 33583817 heartbeat IPC: 1.63884 cumulative IPC: 1.48881 (Simulation time: 0 hr 1 min 17 sec) 
Heartbeat CPU 0 instructions: 60000000 cycles: 40065130 heartbeat IPC: 1.5429 cumulative IPC: 1.49756 (Simulation time: 0 hr 1 min 33 sec) 
Heartbeat CPU 0 instructions: 70000000 cycles: 47105417 heartbeat IPC: 1.4204 cumulative IPC: 1.48603 (Simulation time: 0 hr 1 min 48 sec) 
Heartbeat CPU 0 instructions: 80000000 cycles: 54197064 heartbeat IPC: 1.41011 cumulative IPC: 1.47609 (Simulation time: 0 hr 2 min 3 sec) 
Heartbeat CPU 0 instructions: 90000003 cycles: 61203546 heartbeat IPC: 1.42725 cumulative IPC: 1.4705 (Simulation time: 0 hr 2 min 18 sec) 
Heartbeat CPU 0 instructions: 100000000 cycles: 68372779 heartbeat IPC: 1.39485 cumulative IPC: 1.46257 (Simulation time: 0 hr 2 min 33 sec) 

Warmup complete CPU 0 instructions: 100000004 cycles: 68372780 (Simulation time: 0 hr 2 min 33 sec) 

Heartbeat CPU 0 instructions: 110000003 cycles: 96273561 heartbeat IPC: 0.358413 cumulative IPC: 0.358413 (Simulation time: 0 hr 3 min 2 sec) 
Heartbeat CPU 0 instructions: 120000000 cycles: 123814268 heartbeat IPC: 0.363099 cumulative IPC: 0.360741 (Simulation time: 0 hr 3 min 32 sec) 
Heartbeat CPU 0 instructions: 130000000 cycles: 148876539 heartbeat IPC: 0.399006 cumulative IPC: 0.372653 (Simulation time: 0 hr 4 min 1 sec) 
Heartbeat CPU 0 instructions: 140000000 cycles: 178920784 heartbeat IPC: 0.332842 cumulative IPC: 0.361834 (Simulation time: 0 hr 4 min 30 sec) 
Heartbeat CPU 0 instructions: 150000000 cycles: 209097884 heartbeat IPC: 0.331377 cumulative IPC: 0.355303 (Simulation time: 0 hr 4 min 59 sec) 
Heartbeat CPU 0 instructions: 160000000 cycles: 236606125 heartbeat IPC: 0.363527 cumulative IPC: 0.356647 (Simulation time: 0 hr 5 min 27 sec) 
Heartbeat CPU 0 instructions: 170000001 cycles: 264782284 heartbeat IPC: 0.35491 cumulative IPC: 0.356398 (Simulation time: 0 hr 5 min 58 sec) 
Heartbeat CPU 0 instructions: 180000000 cycles: 293399869 heartbeat IPC: 0.349435 cumulative IPC: 0.355513 (Simulation time: 0 hr 6 min 27 sec) 
Heartbeat CPU 0 instructions: 190000002 cycles: 321679687 heartbeat IPC: 0.353609 cumulative IPC: 0.3553 (Simulation time: 0 hr 6 min 57 sec) 
Heartbeat CPU 0 instructions: 200000000 cycles: 350224473 heartbeat IPC: 0.350327 cumulative IPC: 0.354796 (Simulation time: 0 hr 7 min 27 sec) 
Heartbeat CPU 0 instructions: 210000002 cycles: 378303785 heartbeat IPC: 0.356134 cumulative IPC: 0.354918 (Simulation time: 0 hr 7 min 56 sec) 
Heartbeat CPU 0 instructions: 220000000 cycles: 407968922 heartbeat IPC: 0.337096 cumulative IPC: 0.353361 (Simulation time: 0 hr 8 min 24 sec) 
Heartbeat CPU 0 instructions: 230000000 cycles: 435729931 heartbeat IPC: 0.360217 cumulative IPC: 0.353879 (Simulation time: 0 hr 8 min 53 sec) 
Heartbeat CPU 0 instructions: 240000000 cycles: 461763537 heartbeat IPC: 0.384119 cumulative IPC: 0.35588 (Simulation time: 0 hr 9 min 21 sec) 
Heartbeat CPU 0 instructions: 250000000 cycles: 491976998 heartbeat IPC: 0.330978 cumulative IPC: 0.354104 (Simulation time: 0 hr 9 min 51 sec) 
Heartbeat CPU 0 instructions: 260000000 cycles: 519119083 heartbeat IPC: 0.368432 cumulative IPC: 0.354967 (Simulation time: 0 hr 10 min 20 sec) 
Heartbeat CPU 0 instructions: 270000003 cycles: 547671163 heartbeat IPC: 0.350237 cumulative IPC: 0.354685 (Simulation time: 0 hr 10 min 50 sec) 
Heartbeat CPU 0 instructions: 280000000 cycles: 576038861 heartbeat IPC: 0.352514 cumulative IPC: 0.354564 (Simulation time: 0 hr 11 min 20 sec) 
Heartbeat CPU 0 instructions: 290000000 cycles: 605075710 heartbeat IPC: 0.34439 cumulative IPC: 0.354013 (Simulation time: 0 hr 11 min 51 sec) 
Heartbeat CPU 0 instructions: 300000000 cycles: 635606819 heartbeat IPC: 0.327535 cumulative IPC: 0.352588 (Simulation time: 0 hr 12 min 20 sec) 
Heartbeat CPU 0 instructions: 310000001 cycles: 665374261 heartbeat IPC: 0.335938 cumulative IPC: 0.351758 (Simulation time: 0 hr 12 min 49 sec) 
Heartbeat CPU 0 instructions: 320000000 cycles: 694008449 heartbeat IPC: 0.349233 cumulative IPC: 0.351642 (Simulation time: 0 hr 13 min 18 sec) 
Heartbeat CPU 0 instructions: 330000000 cycles: 722933570 heartbeat IPC: 0.34572 cumulative IPC: 0.351381 (Simulation time: 0 hr 13 min 47 sec) 
Heartbeat CPU 0 instructions: 340000000 cycles: 752497999 heartbeat IPC: 0.338244 cumulative IPC: 0.350813 (Simulation time: 0 hr 14 min 16 sec) 
Heartbeat CPU 0 instructions: 350000003 cycles: 779704165 heartbeat IPC: 0.367564 cumulative IPC: 0.351454 (Simulation time: 0 hr 14 min 44 sec) 
Heartbeat CPU 0 instructions: 360000000 cycles: 808455903 heartbeat IPC: 0.347805 cumulative IPC: 0.351312 (Simulation time: 0 hr 15 min 13 sec) 
Heartbeat CPU 0 instructions: 370000000 cycles: 837123383 heartbeat IPC: 0.348827 cumulative IPC: 0.351219 (Simulation time: 0 hr 15 min 41 sec) 
Heartbeat CPU 0 instructions: 380000000 cycles: 866062556 heartbeat IPC: 0.345552 cumulative IPC: 0.351014 (Simulation time: 0 hr 16 min 9 sec) 
Heartbeat CPU 0 instructions: 390000001 cycles: 894006313 heartbeat IPC: 0.357862 cumulative IPC: 0.351245 (Simulation time: 0 hr 16 min 37 sec) 
Heartbeat CPU 0 instructions: 400000000 cycles: 922986963 heartbeat IPC: 0.345058 cumulative IPC: 0.351036 (Simulation time: 0 hr 17 min 5 sec) 
Heartbeat CPU 0 instructions: 410000001 cycles: 950550473 heartbeat IPC: 0.362799 cumulative IPC: 0.351403 (Simulation time: 0 hr 17 min 32 sec) 
Heartbeat CPU 0 instructions: 420000000 cycles: 978100250 heartbeat IPC: 0.362979 cumulative IPC: 0.351754 (Simulation time: 0 hr 18 min 0 sec) 
Heartbeat CPU 0 instructions: 430000002 cycles: 1006064283 heartbeat IPC: 0.357602 cumulative IPC: 0.351928 (Simulation time: 0 hr 18 min 28 sec) 
Heartbeat CPU 0 instructions: 440000000 cycles: 1035980864 heartbeat IPC: 0.334263 cumulative IPC: 0.351382 (Simulation time: 0 hr 18 min 56 sec) 
Heartbeat CPU 0 instructions: 450000002 cycles: 1065644925 heartbeat IPC: 0.337108 cumulative IPC: 0.350957 (Simulation time: 0 hr 19 min 25 sec) 
Heartbeat CPU 0 instructions: 460000000 cycles: 1093647543 heartbeat IPC: 0.357109 cumulative IPC: 0.351125 (Simulation time: 0 hr 19 min 53 sec) 
Heartbeat CPU 0 instructions: 470000000 cycles: 1121507600 heartbeat IPC: 0.358937 cumulative IPC: 0.351332 (Simulation time: 0 hr 20 min 21 sec) 
Heartbeat CPU 0 instructions: 480000000 cycles: 1149603523 heartbeat IPC: 0.355924 cumulative IPC: 0.351451 (Simulation time: 0 hr 20 min 48 sec) 
Heartbeat CPU 0 instructions: 490000000 cycles: 1177397061 heartbeat IPC: 0.359796 cumulative IPC: 0.35166 (Simulation time: 0 hr 21 min 16 sec) 
Heartbeat CPU 0 instructions: 500000000 cycles: 1205905814 heartbeat IPC: 0.350769 cumulative IPC: 0.351638 (Simulation time: 0 hr 21 min 44 sec) 
Heartbeat CPU 0 instructions: 510000000 cycles: 1240088810 heartbeat IPC: 0.292543 cumulative IPC: 0.349914 (Simulation time: 0 hr 22 min 15 sec) 
Heartbeat CPU 0 instructions: 520000000 cycles: 1268166218 heartbeat IPC: 0.356158 cumulative IPC: 0.35006 (Simulation time: 0 hr 22 min 44 sec) 
Heartbeat CPU 0 instructions: 530000001 cycles: 1298112277 heartbeat IPC: 0.333934 cumulative IPC: 0.349668 (Simulation time: 0 hr 23 min 13 sec) 
Heartbeat CPU 0 instructions: 540000000 cycles: 1326517307 heartbeat IPC: 0.35205 cumulative IPC: 0.349721 (Simulation time: 0 hr 23 min 42 sec) 
Heartbeat CPU 0 instructions: 550000001 cycles: 1355829679 heartbeat IPC: 0.341153 cumulative IPC: 0.349526 (Simulation time: 0 hr 24 min 13 sec) 
Heartbeat CPU 0 instructions: 560000000 cycles: 1381332975 heartbeat IPC: 0.392106 cumulative IPC: 0.350353 (Simulation time: 0 hr 24 min 41 sec) 
Heartbeat CPU 0 instructions: 570000000 cycles: 1411229239 heartbeat IPC: 0.33449 cumulative IPC: 0.35 (Simulation time: 0 hr 25 min 10 sec) 
Heartbeat CPU 0 instructions: 580000000 cycles: 1439469997 heartbeat IPC: 0.354098 cumulative IPC: 0.350085 (Simulation time: 0 hr 25 min 40 sec) 
Heartbeat CPU 0 instructions: 590000001 cycles: 1464284708 heartbeat IPC: 0.402987 cumulative IPC: 0.351025 (Simulation time: 0 hr 26 min 7 sec) 
Heartbeat CPU 0 instructions: 600000000 cycles: 1490509801 heartbeat IPC: 0.381314 cumulative IPC: 0.351584 (Simulation time: 0 hr 26 min 35 sec) 
Finished CPU 0 instructions: 500000000 cycles: 1422137043 cumulative IPC: 0.351584 (Simulation time: 0 hr 26 min 35 sec) 

CPU 0 Branch Prediction Accuracy: 86.4311% MPKI: 26.2662
Number of Branches: 96788573 Number of Mispredictions: 13133102
Number of LOAD Instructions: 164682285
Number of LOAD Instructions (ROI): 164682285
Number of STORE Instructions: 78194750
Number of STORE Instructions (ROI): 78194750
Total Destination Memory Operands: 83268534
Total Destination Memory Operands (ROI): 83268534
Total Source Memory Operands: 164712438
Total Source Memory Operands (ROI): 164712438
Number of DEPENDED LOADS: 7056415
Number of DEPENDED LOADS (ROI): 7056415
Number of SQ_ADDED: 83268522
Number of SQ_ADDED (ROI): 83268522
Number of LQ_ADDED: 236730062
Number of LQ_ADDED (ROI): 236730062
Number of Instructions read from trace: 600000066

ChampSim completed all CPUs

Region of Interest Statistics

CPU 0 cumulative IPC: 0.351584 instructions: 500000000 cycles: 1422137043
ITLB TOTAL     ACCESS:  100519868  HIT:  100315422  MISS:     204446
ITLB LOAD      ACCESS:  100519868  HIT:  100315422  MISS:     204446
ITLB RFO       ACCESS:          0  HIT:          0  MISS:          0
ITLB PREFETCH  ACCESS:          0  HIT:          0  MISS:          0
ITLB WRITEBACK ACCESS:          0  HIT:          0  MISS:          0
ITLB PREFETCH  REQUESTED:          0  ISSUED:          0  USEFUL:          0  USELESS:          0
ITLB TOTAL MSHR MERGED:     172424
ITLB LOAD MSHR MERGED:     172424
ITLB RFO MSHR MERGED:          0
ITLB PREFETCH MSHR MERGED:          0
ITLB WRITEBACK MSHR MERGED:          0
ITLB TOTAL ACCESSES:  100692292 HITS:  100315422 MISSES:     376870
ITLB LOAD ACCESSES:  100692292 HITS:  100315422 MISSES:     376870
ITLB RFO ACCESSES:          0 HITS:          0 MISSES:          0
ITLB PREFETCH ACCESSES:          0 HITS:          0 MISSES:          0
ITLB WRITEBACK ACCESSES:          0 HITS:          0 MISSES:          0
ITLB RQ ACCESS:  500000057
ITLB RQ TO_CACHE:  100692292
ITLB RQ MERGED:  399307765
ITLB RQ FORWARD:          0
ITLB WQ ACCESS:          0
ITLB WQ TO_CACHE:          0
ITLB WQ MERGED:          0
ITLB WQ FORWARD:          0
DTLB TOTAL     ACCESS:  165342506  HIT:  164708157  MISS:     634349
DTLB LOAD      ACCESS:  106296109  HIT:  105726226  MISS:     569883
DTLB RFO       ACCESS:   59046397  HIT:   58981931  MISS:      64466
DTLB PREFETCH  ACCESS:          0  HIT:          0  MISS:          0
DTLB WRITEBACK ACCESS:          0  HIT:          0  MISS:          0
DTLB PREFETCH  REQUESTED:          0  ISSUED:          0  USEFUL:          0  USELESS:          0
DTLB TOTAL MSHR MERGED:      99856
DTLB LOAD MSHR MERGED:      59354
DTLB RFO MSHR MERGED:      40502
DTLB PREFETCH MSHR MERGED:          0
DTLB WRITEBACK MSHR MERGED:          0
DTLB TOTAL ACCESSES:  165442362 HITS:  164708157 MISSES:     734205
DTLB LOAD ACCESSES:  106355463 HITS:  105726226 MISSES:     629237
DTLB RFO ACCESSES:   59086899 HITS:   58981931 MISSES:     104968
DTLB PREFETCH ACCESSES:          0 HITS:          0 MISSES:          0
DTLB WRITEBACK ACCESSES:          0 HITS:          0 MISSES:          0
DTLB RQ ACCESS:  200314468
DTLB RQ TO_CACHE:  165442362
DTLB RQ MERGED:   34872106
DTLB RQ FORWARD:          0
DTLB WQ ACCESS:          0
DTLB WQ TO_CACHE:          0
DTLB WQ MERGED:          0
DTLB WQ FORWARD:          0
L1D TOTAL     ACCESS:  281862809  HIT:  273953421  MISS:    7909388
L1D LOAD      ACCESS:  110426386  HIT:  107149318  MISS:    3277068
L1D RFO       ACCESS:   67126544  HIT:   66236216  MISS:     890328
L1D PREFETCH  ACCESS:  104309879  HIT:  100567887  MISS:    3741992
L1D WRITEBACK ACCESS:          0  HIT:          0  MISS:          0
L1D PREFETCH  REQUESTED:  110823011  ISSUED:  109123655  USEFUL:    1662615  USELESS:    2079341
L1D TOTAL MSHR MERGED:    2853993
L1D LOAD MSHR MERGED:     493248
L1D RFO MSHR MERGED:    1859046
L1D PREFETCH MSHR MERGED:     501699
L1D WRITEBACK MSHR MERGED:          0
L1D TOTAL ACCESSES:  284744171 HITS:  273980790 MISSES:   10763381
L1D LOAD ACCESSES:  110824444 HITS:  107150751 MISSES:    3673693
L1D RFO ACCESSES:   68974056 HITS:   66236216 MISSES:    2737840
L1D PREFETCH ACCESSES:  104945671 HITS:  100593823 MISSES:    4351848
L1D WRITEBACK ACCESSES:          0 HITS:          0 MISSES:          0
L1D RQ ACCESS:  130761865
L1D RQ TO_CACHE:  110823014
L1D RQ MERGED:   19937418
L1D RQ FORWARD:          0
L1D WQ ACCESS:   69552603
L1D WQ TO_CACHE:   68974057
L1D WQ MERGED:     578546
L1D WQ FORWARD:      27369
L1I TOTAL     ACCESS:  126566454  HIT:  122327905  MISS:    4238549
L1I LOAD      ACCESS:  126566454  HIT:  122327905  MISS:    4238549
L1I RFO       ACCESS:          0  HIT:          0  MISS:          0
L1I PREFETCH  ACCESS:          0  HIT:          0  MISS:          0
L1I WRITEBACK ACCESS:          0  HIT:          0  MISS:          0
L1I PREFETCH  REQUESTED:          0  ISSUED:          0  USEFUL:          0  USELESS:          0
L1I TOTAL MSHR MERGED:    1835338
L1I LOAD MSHR MERGED:    1835338
L1I RFO MSHR MERGED:          0
L1I PREFETCH MSHR MERGED:          0
L1I WRITEBACK MSHR MERGED:          0
L1I TOTAL ACCESSES:  128401795 HITS:  122327905 MISSES:    6073890
L1I LOAD ACCESSES:  128401795 HITS:  122327905 MISSES:    6073890
L1I RFO ACCESSES:          0 HITS:          0 MISSES:          0
L1I PREFETCH ACCESSES:          0 HITS:          0 MISSES:          0
L1I WRITEBACK ACCESSES:          0 HITS:          0 MISSES:          0
L1I RQ ACCESS:  500000057
L1I RQ TO_CACHE:  128401795
L1I RQ MERGED:  371598262
L1I RQ FORWARD:          0
L1I WQ ACCESS:          0
L1I WQ TO_CACHE:          0
L1I WQ MERGED:          0
L1I WQ FORWARD:          0
L2C TOTAL     ACCESS:   14905368  HIT:   11158849  MISS:    3746519
L2C LOAD      ACCESS:    7418785  HIT:    5098786  MISS:    2319999
L2C RFO       ACCESS:     878697  HIT:     409915  MISS:     468782
L2C PREFETCH  ACCESS:    4568639  HIT:    3628159  MISS:     940480
L2C WRITEBACK ACCESS:    2039247  HIT:    2021989  MISS:      17258
L2C PREFETCH  REQUESTED:     842764  ISSUED:     842764  USEFUL:     203367  USELESS:     736819
L2C TOTAL MSHR MERGED:       6998
L2C LOAD MSHR MERGED:        801
L2C RFO MSHR MERGED:          0
L2C PREFETCH MSHR MERGED:       6197
L2C WRITEBACK MSHR MERGED:          0
L2C TOTAL ACCESSES:   14913243 HITS:   11159297 MISSES:    3753946
L2C LOAD ACCESSES:    7418994 HITS:    5098995 MISSES:    2319999
L2C RFO ACCESSES:     878794 HITS:     410012 MISSES:     468782
L2C PREFETCH ACCESSES:    4576208 HITS:    3628301 MISSES:     947907
L2C WRITEBACK ACCESSES:    2039247 HITS:    2021989 MISSES:      17258
L2C RQ ACCESS:    8297791
L2C RQ TO_CACHE:    8297485
L2C RQ MERGED:          0
L2C RQ FORWARD:          0
L2C WQ ACCESS:    2039247
L2C WQ TO_CACHE:    2039247
L2C WQ MERGED:          0
L2C WQ FORWARD:        448
LLC TOTAL     ACCESS:    4609857  HIT:    3899385  MISS:     710472
LLC LOAD      ACCESS:    2319182  HIT:    1959447  MISS:     359735
LLC RFO       ACCESS:     468773  HIT:     413807  MISS:      54966
LLC PREFETCH  ACCESS:     941600  HIT:     675219  MISS:     266381
LLC WRITEBACK ACCESS:     880302  HIT:     850912  MISS:      29390
LLC PREFETCH  REQUESTED:          0  ISSUED:          0  USEFUL:      15264  USELESS:     250966
LLC TOTAL MSHR MERGED:         91
LLC LOAD MSHR MERGED:         28
LLC RFO MSHR MERGED:          0
LLC PREFETCH MSHR MERGED:         63
LLC WRITEBACK MSHR MERGED:          0
LLC TOTAL ACCESSES:    4609983 HITS:    3899420 MISSES:     710563
LLC LOAD ACCESSES:    2319198 HITS:    1959463 MISSES:     359735
LLC RFO ACCESSES:     468782 HITS:     413816 MISSES:      54966
LLC PREFETCH ACCESSES:     941701 HITS:     675229 MISSES:     266472
LLC WRITEBACK ACCESSES:     880302 HITS:     850912 MISSES:      29390
LLC 0 RQ ACCESS:    2787980
LLC 0 RQ TO_CACHE:    2787955
LLC 0 RQ MERGED:          0
LLC 0 RQ FORWARD:          0
LLC WQ ACCESS:     880302
LLC WQ TO_CACHE:     880302
LLC WQ MERGED:          0
LLC WQ FORWARD:         35
Major fault: 0 Minor fault: 12862
CPU 0 L1D next line prefetcher final stats
CPU 0 L2C PC-based stride prefetcher final stats
All Misses: 842188
All Hits: 4584675
SD Algo Stats - Switches: 0 SRR-Repls: 417539 BRR-Repls: 0

DRAM Statistics
 CHANNEL 0
 RQ ROW_BUFFER_HIT:     151226  ROW_BUFFER_MISS:     528882
 DBUS_CONGESTED:     329278
 WQ ROW_BUFFER_HIT:       8853  ROW_BUFFER_MISS:     153998  FULL:          0

 AVG_CONGESTED_CYCLE: 13
LOADS RETIRED: 136549171
INSTR RETIRED: 500000000
