
*** ChampSim Multicore Out-of-Order Simulator ***

Warmup Instructions: 100000000
Simulation Instructions: 500000000
Number of CPUs: 1
LLC sets: 2048
LLC ways: 16
Clean RRIP Policies: 1312030013120300 Dirty RRIP Policies: 1302030013020300 PSEL Width: 10 Track Set: 4294967295 PSEL Mask: 1 Demote Mask: 3044021430440214DS Algo: 0Window size: 0
Off-chip DRAM Size: 4096 MB Channels: 1 Width: 64-bit Data Rate: 1600 MT/s

CPU 0 runs /mnt/beegfs/iconst01/spec2017/cactuBSSN.trace.gz
NOT SORTED
TRACE STRING: /mnt/beegfs/iconst01/spec2017/cactuBSSN.trace.gz
SORTED
TRACE STRING: /mnt/beegfs/iconst01/spec2017/cactuBSSN.trace.gz
INITIAL
TRACE STRING: /mnt/beegfs/iconst01/spec2017/cactuBSSN.trace.gz

champsim_seed used: 838

CPU 0 L1D next line prefetcher
CPU 0 L2C IP-based stride prefetcher
Initialize DRRIP state
Assign rand_sets[0]: 454  LLC: 2048
rand_sets[0]: 454
Assign rand_sets[1]: 1662  LLC: 2048
rand_sets[1]: 1662
Assign rand_sets[2]: 1921  LLC: 2048
rand_sets[2]: 1921
Assign rand_sets[3]: 1131  LLC: 2048
rand_sets[3]: 1131
Assign rand_sets[4]: 331  LLC: 2048
rand_sets[4]: 331
Assign rand_sets[5]: 1531  LLC: 2048
rand_sets[5]: 1531
Assign rand_sets[6]: 482  LLC: 2048
rand_sets[6]: 482
Assign rand_sets[7]: 1275  LLC: 2048
rand_sets[7]: 1275
Assign rand_sets[8]: 1876  LLC: 2048
rand_sets[8]: 1876
Assign rand_sets[9]: 2038  LLC: 2048
rand_sets[9]: 2038
Assign rand_sets[10]: 701  LLC: 2048
rand_sets[10]: 701
Assign rand_sets[11]: 479  LLC: 2048
rand_sets[11]: 479
Assign rand_sets[12]: 892  LLC: 2048
rand_sets[12]: 892
Assign rand_sets[13]: 1820  LLC: 2048
rand_sets[13]: 1820
Assign rand_sets[14]: 1505  LLC: 2048
rand_sets[14]: 1505
Assign rand_sets[15]: 1159  LLC: 2048
rand_sets[15]: 1159
Assign rand_sets[16]: 513  LLC: 2048
rand_sets[16]: 513
Assign rand_sets[17]: 703  LLC: 2048
rand_sets[17]: 703
Assign rand_sets[18]: 561  LLC: 2048
rand_sets[18]: 561
Assign rand_sets[19]: 990  LLC: 2048
rand_sets[19]: 990
Assign rand_sets[20]: 342  LLC: 2048
rand_sets[20]: 342
Assign rand_sets[21]: 882  LLC: 2048
rand_sets[21]: 882
Assign rand_sets[22]: 15  LLC: 2048
rand_sets[22]: 15
Assign rand_sets[23]: 71  LLC: 2048
rand_sets[23]: 71
Assign rand_sets[24]: 1127  LLC: 2048
rand_sets[24]: 1127
Assign rand_sets[25]: 1382  LLC: 2048
rand_sets[25]: 1382
Assign rand_sets[26]: 647  LLC: 2048
rand_sets[26]: 647
Assign rand_sets[27]: 857  LLC: 2048
rand_sets[27]: 857
Assign rand_sets[28]: 1450  LLC: 2048
rand_sets[28]: 1450
Assign rand_sets[29]: 1160  LLC: 2048
rand_sets[29]: 1160
Assign rand_sets[30]: 1852  LLC: 2048
rand_sets[30]: 1852
Assign rand_sets[31]: 1881  LLC: 2048
rand_sets[31]: 1881
Assign rand_sets[32]: 1770  LLC: 2048
rand_sets[32]: 1770
Assign rand_sets[33]: 1622  LLC: 2048
rand_sets[33]: 1622
Assign rand_sets[34]: 275  LLC: 2048
rand_sets[34]: 275
Assign rand_sets[35]: 635  LLC: 2048
rand_sets[35]: 635
Assign rand_sets[36]: 466  LLC: 2048
rand_sets[36]: 466
Assign rand_sets[37]: 1413  LLC: 2048
rand_sets[37]: 1413
Assign rand_sets[38]: 417  LLC: 2048
rand_sets[38]: 417
Assign rand_sets[39]: 472  LLC: 2048
rand_sets[39]: 472
Assign rand_sets[40]: 1340  LLC: 2048
rand_sets[40]: 1340
Assign rand_sets[41]: 852  LLC: 2048
rand_sets[41]: 852
Assign rand_sets[42]: 1365  LLC: 2048
rand_sets[42]: 1365
Assign rand_sets[43]: 47  LLC: 2048
rand_sets[43]: 47
Assign rand_sets[44]: 823  LLC: 2048
rand_sets[44]: 823
Assign rand_sets[45]: 686  LLC: 2048
rand_sets[45]: 686
Assign rand_sets[46]: 1637  LLC: 2048
rand_sets[46]: 1637
Assign rand_sets[47]: 1115  LLC: 2048
rand_sets[47]: 1115
Assign rand_sets[48]: 986  LLC: 2048
rand_sets[48]: 986
Assign rand_sets[49]: 258  LLC: 2048
rand_sets[49]: 258
Assign rand_sets[50]: 633  LLC: 2048
rand_sets[50]: 633
Assign rand_sets[51]: 920  LLC: 2048
rand_sets[51]: 920
Assign rand_sets[52]: 204  LLC: 2048
rand_sets[52]: 204
Assign rand_sets[53]: 227  LLC: 2048
rand_sets[53]: 227
Assign rand_sets[54]: 1818  LLC: 2048
rand_sets[54]: 1818
Assign rand_sets[55]: 886  LLC: 2048
rand_sets[55]: 886
Assign rand_sets[56]: 1422  LLC: 2048
rand_sets[56]: 1422
Assign rand_sets[57]: 607  LLC: 2048
rand_sets[57]: 607
Assign rand_sets[58]: 217  LLC: 2048
rand_sets[58]: 217
Assign rand_sets[59]: 1945  LLC: 2048
rand_sets[59]: 1945
Assign rand_sets[60]: 143  LLC: 2048
rand_sets[60]: 143
Assign rand_sets[61]: 1311  LLC: 2048
rand_sets[61]: 1311
Assign rand_sets[62]: 319  LLC: 2048
rand_sets[62]: 319
Assign rand_sets[63]: 1846  LLC: 2048
rand_sets[63]: 1846
 CLEAN-RRIP-POLICY-1: 1-3-1-2-0-3-0-0- CLEAN-RRIP-POLICY-2: 1-3-1-2-0-3-0-0-
 DIRTY-RRIP-POLICY-1: 1-3-0-2-0-3-0-0- DIRTY-RRIP-POLICY-2: 1-3-0-2-0-3-0-0-
 PSEL width: 10
Heartbeat CPU 0 instructions: 10000000 cycles: 6587903 heartbeat IPC: 1.51793 cumulative IPC: 1.51793 (Simulation time: 0 hr 0 min 24 sec) 
Heartbeat CPU 0 instructions: 20000000 cycles: 13179375 heartbeat IPC: 1.51711 cumulative IPC: 1.51752 (Simulation time: 0 hr 0 min 48 sec) 
Heartbeat CPU 0 instructions: 30000003 cycles: 19772577 heartbeat IPC: 1.51671 cumulative IPC: 1.51725 (Simulation time: 0 hr 1 min 12 sec) 
Heartbeat CPU 0 instructions: 40000000 cycles: 26364124 heartbeat IPC: 1.51709 cumulative IPC: 1.51721 (Simulation time: 0 hr 1 min 36 sec) 
Heartbeat CPU 0 instructions: 50000001 cycles: 32956647 heartbeat IPC: 1.51687 cumulative IPC: 1.51714 (Simulation time: 0 hr 2 min 0 sec) 
Heartbeat CPU 0 instructions: 60000000 cycles: 39555217 heartbeat IPC: 1.51548 cumulative IPC: 1.51687 (Simulation time: 0 hr 2 min 25 sec) 
Heartbeat CPU 0 instructions: 70000003 cycles: 46153428 heartbeat IPC: 1.51556 cumulative IPC: 1.51668 (Simulation time: 0 hr 2 min 49 sec) 
Heartbeat CPU 0 instructions: 80000000 cycles: 52751389 heartbeat IPC: 1.51562 cumulative IPC: 1.51655 (Simulation time: 0 hr 3 min 14 sec) 
Heartbeat CPU 0 instructions: 90000002 cycles: 59346769 heartbeat IPC: 1.51621 cumulative IPC: 1.51651 (Simulation time: 0 hr 3 min 38 sec) 
Heartbeat CPU 0 instructions: 100000000 cycles: 65941528 heartbeat IPC: 1.51636 cumulative IPC: 1.51649 (Simulation time: 0 hr 4 min 2 sec) 

Warmup complete CPU 0 instructions: 100000002 cycles: 65941529 (Simulation time: 0 hr 4 min 2 sec) 

Heartbeat CPU 0 instructions: 110000000 cycles: 79116505 heartbeat IPC: 0.759015 cumulative IPC: 0.759014 (Simulation time: 0 hr 4 min 32 sec) 
Heartbeat CPU 0 instructions: 120000000 cycles: 92260914 heartbeat IPC: 0.76078 cumulative IPC: 0.759896 (Simulation time: 0 hr 5 min 2 sec) 
Heartbeat CPU 0 instructions: 130000001 cycles: 105469050 heartbeat IPC: 0.757109 cumulative IPC: 0.758965 (Simulation time: 0 hr 5 min 31 sec) 
Heartbeat CPU 0 instructions: 140000000 cycles: 118586138 heartbeat IPC: 0.762364 cumulative IPC: 0.759812 (Simulation time: 0 hr 6 min 1 sec) 
Heartbeat CPU 0 instructions: 150000001 cycles: 131708213 heartbeat IPC: 0.762075 cumulative IPC: 0.760263 (Simulation time: 0 hr 6 min 31 sec) 
Heartbeat CPU 0 instructions: 160000000 cycles: 144905340 heartbeat IPC: 0.757741 cumulative IPC: 0.759842 (Simulation time: 0 hr 7 min 0 sec) 
Heartbeat CPU 0 instructions: 170000000 cycles: 158035800 heartbeat IPC: 0.761588 cumulative IPC: 0.760091 (Simulation time: 0 hr 7 min 30 sec) 
Heartbeat CPU 0 instructions: 180000000 cycles: 171162290 heartbeat IPC: 0.761818 cumulative IPC: 0.760306 (Simulation time: 0 hr 8 min 0 sec) 
Heartbeat CPU 0 instructions: 190000000 cycles: 184281063 heartbeat IPC: 0.762266 cumulative IPC: 0.760523 (Simulation time: 0 hr 8 min 29 sec) 
Heartbeat CPU 0 instructions: 200000000 cycles: 197483675 heartbeat IPC: 0.757426 cumulative IPC: 0.760213 (Simulation time: 0 hr 8 min 59 sec) 
Heartbeat CPU 0 instructions: 210000002 cycles: 210636953 heartbeat IPC: 0.760267 cumulative IPC: 0.760218 (Simulation time: 0 hr 9 min 28 sec) 
Heartbeat CPU 0 instructions: 220000000 cycles: 223774845 heartbeat IPC: 0.761157 cumulative IPC: 0.760296 (Simulation time: 0 hr 9 min 58 sec) 
Heartbeat CPU 0 instructions: 230000003 cycles: 236973034 heartbeat IPC: 0.75768 cumulative IPC: 0.760094 (Simulation time: 0 hr 10 min 28 sec) 
Heartbeat CPU 0 instructions: 240000000 cycles: 250111155 heartbeat IPC: 0.761144 cumulative IPC: 0.760169 (Simulation time: 0 hr 10 min 57 sec) 
Heartbeat CPU 0 instructions: 250000001 cycles: 263287533 heartbeat IPC: 0.758934 cumulative IPC: 0.760086 (Simulation time: 0 hr 11 min 27 sec) 
Heartbeat CPU 0 instructions: 260000000 cycles: 276438481 heartbeat IPC: 0.760401 cumulative IPC: 0.760106 (Simulation time: 0 hr 11 min 57 sec) 
Heartbeat CPU 0 instructions: 270000003 cycles: 289621234 heartbeat IPC: 0.758567 cumulative IPC: 0.760015 (Simulation time: 0 hr 12 min 26 sec) 
Heartbeat CPU 0 instructions: 280000000 cycles: 302762922 heartbeat IPC: 0.760937 cumulative IPC: 0.760066 (Simulation time: 0 hr 12 min 55 sec) 
Heartbeat CPU 0 instructions: 290000000 cycles: 315886087 heartbeat IPC: 0.762011 cumulative IPC: 0.760169 (Simulation time: 0 hr 13 min 24 sec) 
Heartbeat CPU 0 instructions: 300000000 cycles: 329075110 heartbeat IPC: 0.758206 cumulative IPC: 0.76007 (Simulation time: 0 hr 13 min 53 sec) 
Heartbeat CPU 0 instructions: 310000001 cycles: 342216720 heartbeat IPC: 0.760942 cumulative IPC: 0.760112 (Simulation time: 0 hr 14 min 22 sec) 
Heartbeat CPU 0 instructions: 320000000 cycles: 355367887 heartbeat IPC: 0.760389 cumulative IPC: 0.760124 (Simulation time: 0 hr 14 min 52 sec) 
Heartbeat CPU 0 instructions: 330000002 cycles: 368521572 heartbeat IPC: 0.760243 cumulative IPC: 0.760129 (Simulation time: 0 hr 15 min 21 sec) 
Heartbeat CPU 0 instructions: 340000000 cycles: 381706661 heartbeat IPC: 0.758432 cumulative IPC: 0.760059 (Simulation time: 0 hr 15 min 50 sec) 
Heartbeat CPU 0 instructions: 350000000 cycles: 394872587 heartbeat IPC: 0.759536 cumulative IPC: 0.760038 (Simulation time: 0 hr 16 min 19 sec) 
Heartbeat CPU 0 instructions: 360000000 cycles: 408049164 heartbeat IPC: 0.758922 cumulative IPC: 0.759995 (Simulation time: 0 hr 16 min 48 sec) 
Heartbeat CPU 0 instructions: 370000002 cycles: 421259948 heartbeat IPC: 0.756957 cumulative IPC: 0.759882 (Simulation time: 0 hr 17 min 16 sec) 
Heartbeat CPU 0 instructions: 380000000 cycles: 434402531 heartbeat IPC: 0.760885 cumulative IPC: 0.759918 (Simulation time: 0 hr 17 min 45 sec) 
Heartbeat CPU 0 instructions: 390000000 cycles: 447529398 heartbeat IPC: 0.761796 cumulative IPC: 0.759982 (Simulation time: 0 hr 18 min 14 sec) 
Heartbeat CPU 0 instructions: 400000000 cycles: 460668851 heartbeat IPC: 0.761067 cumulative IPC: 0.760018 (Simulation time: 0 hr 18 min 42 sec) 
Heartbeat CPU 0 instructions: 410000001 cycles: 473859837 heartbeat IPC: 0.758094 cumulative IPC: 0.759956 (Simulation time: 0 hr 19 min 11 sec) 
Heartbeat CPU 0 instructions: 420000000 cycles: 486976277 heartbeat IPC: 0.762402 cumulative IPC: 0.760032 (Simulation time: 0 hr 19 min 40 sec) 
Heartbeat CPU 0 instructions: 430000001 cycles: 500126831 heartbeat IPC: 0.760424 cumulative IPC: 0.760044 (Simulation time: 0 hr 20 min 8 sec) 
Heartbeat CPU 0 instructions: 440000000 cycles: 513266274 heartbeat IPC: 0.761067 cumulative IPC: 0.760074 (Simulation time: 0 hr 20 min 37 sec) 
Heartbeat CPU 0 instructions: 450000002 cycles: 526506153 heartbeat IPC: 0.755294 cumulative IPC: 0.759937 (Simulation time: 0 hr 21 min 6 sec) 
Heartbeat CPU 0 instructions: 460000000 cycles: 539658481 heartbeat IPC: 0.760321 cumulative IPC: 0.759947 (Simulation time: 0 hr 21 min 34 sec) 
Heartbeat CPU 0 instructions: 470000003 cycles: 552813315 heartbeat IPC: 0.760177 cumulative IPC: 0.759954 (Simulation time: 0 hr 22 min 3 sec) 
Heartbeat CPU 0 instructions: 480000000 cycles: 565996403 heartbeat IPC: 0.758547 cumulative IPC: 0.759917 (Simulation time: 0 hr 22 min 32 sec) 
Heartbeat CPU 0 instructions: 490000000 cycles: 579132328 heartbeat IPC: 0.761271 cumulative IPC: 0.759951 (Simulation time: 0 hr 23 min 0 sec) 
Heartbeat CPU 0 instructions: 500000000 cycles: 592270626 heartbeat IPC: 0.761134 cumulative IPC: 0.759981 (Simulation time: 0 hr 23 min 29 sec) 
Heartbeat CPU 0 instructions: 510000001 cycles: 605405209 heartbeat IPC: 0.761349 cumulative IPC: 0.760014 (Simulation time: 0 hr 23 min 58 sec) 
Heartbeat CPU 0 instructions: 520000000 cycles: 618624723 heartbeat IPC: 0.756457 cumulative IPC: 0.759929 (Simulation time: 0 hr 24 min 26 sec) 
Heartbeat CPU 0 instructions: 530000000 cycles: 631795539 heartbeat IPC: 0.759254 cumulative IPC: 0.759913 (Simulation time: 0 hr 24 min 55 sec) 
Heartbeat CPU 0 instructions: 540000000 cycles: 644960308 heartbeat IPC: 0.759603 cumulative IPC: 0.759906 (Simulation time: 0 hr 25 min 23 sec) 
Heartbeat CPU 0 instructions: 550000002 cycles: 658163527 heartbeat IPC: 0.757391 cumulative IPC: 0.75985 (Simulation time: 0 hr 25 min 52 sec) 
Heartbeat CPU 0 instructions: 560000000 cycles: 671296412 heartbeat IPC: 0.761447 cumulative IPC: 0.759885 (Simulation time: 0 hr 26 min 21 sec) 
Heartbeat CPU 0 instructions: 570000001 cycles: 684429235 heartbeat IPC: 0.761451 cumulative IPC: 0.759918 (Simulation time: 0 hr 26 min 49 sec) 
Heartbeat CPU 0 instructions: 580000000 cycles: 697569710 heartbeat IPC: 0.761007 cumulative IPC: 0.759941 (Simulation time: 0 hr 27 min 18 sec) 
Heartbeat CPU 0 instructions: 590000003 cycles: 710759035 heartbeat IPC: 0.758189 cumulative IPC: 0.759905 (Simulation time: 0 hr 27 min 47 sec) 
Heartbeat CPU 0 instructions: 600000000 cycles: 723948420 heartbeat IPC: 0.758185 cumulative IPC: 0.75987 (Simulation time: 0 hr 28 min 15 sec) 
Finished CPU 0 instructions: 500000000 cycles: 658006901 cumulative IPC: 0.75987 (Simulation time: 0 hr 28 min 15 sec) 

CPU 0 Branch Prediction Accuracy: 99.968% MPKI: 0.002246
Number of Branches: 3513331 Number of Mispredictions: 1123
Number of LOAD Instructions: 287251172
Number of LOAD Instructions (ROI): 287251172
Number of STORE Instructions: 51060820
Number of STORE Instructions (ROI): 51060820
Total Destination Memory Operands: 51166221
Total Destination Memory Operands (ROI): 51166221
Total Source Memory Operands: 287251172
Total Source Memory Operands (ROI): 287251172
Number of DEPENDED LOADS: 9555090
Number of DEPENDED LOADS (ROI): 9555090
Number of SQ_ADDED: 51166208
Number of SQ_ADDED (ROI): 51166208
Number of LQ_ADDED: 290420287
Number of LQ_ADDED (ROI): 290420287
Number of Instructions read from trace: 600000257

ChampSim completed all CPUs

Region of Interest Statistics

CPU 0 cumulative IPC: 0.75987 instructions: 500000000 cycles: 658006901
ITLB TOTAL     ACCESS:  108939252  HIT:  108939252  MISS:          0
ITLB LOAD      ACCESS:  108939252  HIT:  108939252  MISS:          0
ITLB RFO       ACCESS:          0  HIT:          0  MISS:          0
ITLB PREFETCH  ACCESS:          0  HIT:          0  MISS:          0
ITLB WRITEBACK ACCESS:          0  HIT:          0  MISS:          0
ITLB PREFETCH  REQUESTED:          0  ISSUED:          0  USEFUL:          0  USELESS:          0
ITLB TOTAL MSHR MERGED:          0
ITLB LOAD MSHR MERGED:          0
ITLB RFO MSHR MERGED:          0
ITLB PREFETCH MSHR MERGED:          0
ITLB WRITEBACK MSHR MERGED:          0
ITLB TOTAL ACCESSES:  108939252 HITS:  108939252 MISSES:          0
ITLB LOAD ACCESSES:  108939252 HITS:  108939252 MISSES:          0
ITLB RFO ACCESSES:          0 HITS:          0 MISSES:          0
ITLB PREFETCH ACCESSES:          0 HITS:          0 MISSES:          0
ITLB WRITEBACK ACCESSES:          0 HITS:          0 MISSES:          0
ITLB RQ ACCESS:  500000001
ITLB RQ TO_CACHE:  108939252
ITLB RQ MERGED:  391060749
ITLB RQ FORWARD:          0
ITLB WQ ACCESS:          0
ITLB WQ TO_CACHE:          0
ITLB WQ MERGED:          0
ITLB WQ FORWARD:          0
DTLB TOTAL     ACCESS:  171122482  HIT:  161106133  MISS:   10016349
DTLB LOAD      ACCESS:  143467388  HIT:  135591289  MISS:    7876099
DTLB RFO       ACCESS:   27655094  HIT:   25514844  MISS:    2140250
DTLB PREFETCH  ACCESS:          0  HIT:          0  MISS:          0
DTLB WRITEBACK ACCESS:          0  HIT:          0  MISS:          0
DTLB PREFETCH  REQUESTED:          0  ISSUED:          0  USEFUL:          0  USELESS:          0
DTLB TOTAL MSHR MERGED:     360456
DTLB LOAD MSHR MERGED:     360456
DTLB RFO MSHR MERGED:          0
DTLB PREFETCH MSHR MERGED:          0
DTLB WRITEBACK MSHR MERGED:          0
DTLB TOTAL ACCESSES:  171482938 HITS:  161106133 MISSES:   10376805
DTLB LOAD ACCESSES:  143827844 HITS:  135591289 MISSES:    8236555
DTLB RFO ACCESSES:   27655094 HITS:   25514844 MISSES:    2140250
DTLB PREFETCH ACCESSES:          0 HITS:          0 MISSES:          0
DTLB WRITEBACK ACCESSES:          0 HITS:          0 MISSES:          0
DTLB RQ ACCESS:  274072730
DTLB RQ TO_CACHE:  171482938
DTLB RQ MERGED:  102589792
DTLB RQ FORWARD:          0
DTLB WQ ACCESS:          0
DTLB WQ TO_CACHE:          0
DTLB WQ MERGED:          0
DTLB WQ FORWARD:          0
L1D TOTAL     ACCESS:  350914755  HIT:  283729123  MISS:   67185632
L1D LOAD      ACCESS:  175625401  HIT:  142594120  MISS:   33031281
L1D RFO       ACCESS:   42019419  HIT:   39213653  MISS:    2805766
L1D PREFETCH  ACCESS:  133269935  HIT:  101921350  MISS:   31348585
L1D WRITEBACK ACCESS:          0  HIT:          0  MISS:          0
L1D PREFETCH  REQUESTED:  176228095  ISSUED:  175289335  USEFUL:    2180334  USELESS:   29168253
L1D TOTAL MSHR MERGED:    1483000
L1D LOAD MSHR MERGED:     702844
L1D RFO MSHR MERGED:     349666
L1D PREFETCH MSHR MERGED:     430490
L1D WRITEBACK MSHR MERGED:          0
L1D TOTAL ACCESSES:  352511149 HITS:  283842517 MISSES:   68668632
L1D LOAD ACCESSES:  176235248 HITS:  142601273 MISSES:   33633975
L1D RFO ACCESSES:   42368422 HITS:   39213653 MISSES:    3154769
L1D PREFETCH ACCESSES:  133907479 HITS:  102027591 MISSES:   31879888
L1D WRITEBACK ACCESSES:          0 HITS:          0 MISSES:          0
L1D RQ ACCESS:  231434257
L1D RQ TO_CACHE:  176228095
L1D RQ MERGED:   55199009
L1D RQ FORWARD:          0
L1D WQ ACCESS:   42638475
L1D WQ TO_CACHE:   42368422
L1D WQ MERGED:     270053
L1D WQ FORWARD:     113394
L1I TOTAL     ACCESS:  109329082  HIT:   77813378  MISS:   31515704
L1I LOAD      ACCESS:  109329082  HIT:   77813378  MISS:   31515704
L1I RFO       ACCESS:          0  HIT:          0  MISS:          0
L1I PREFETCH  ACCESS:          0  HIT:          0  MISS:          0
L1I WRITEBACK ACCESS:          0  HIT:          0  MISS:          0
L1I PREFETCH  REQUESTED:          0  ISSUED:          0  USEFUL:          0  USELESS:          0
L1I TOTAL MSHR MERGED:   30759808
L1I LOAD MSHR MERGED:   30759808
L1I RFO MSHR MERGED:          0
L1I PREFETCH MSHR MERGED:          0
L1I WRITEBACK MSHR MERGED:          0
L1I TOTAL ACCESSES:  140088892 HITS:   77813378 MISSES:   62275514
L1I LOAD ACCESSES:  140088892 HITS:   77813378 MISSES:   62275514
L1I RFO ACCESSES:          0 HITS:          0 MISSES:          0
L1I PREFETCH ACCESSES:          0 HITS:          0 MISSES:          0
L1I WRITEBACK ACCESSES:          0 HITS:          0 MISSES:          0
L1I RQ ACCESS:  500000003
L1I RQ TO_CACHE:  140088892
L1I RQ MERGED:  359911111
L1I RQ FORWARD:          0
L1I WQ ACCESS:          0
L1I WQ TO_CACHE:          0
L1I WQ MERGED:          0
L1I WQ FORWARD:          0
L2C TOTAL     ACCESS:  113700367  HIT:  110687974  MISS:    3012393
L2C LOAD      ACCESS:   64444936  HIT:   63875478  MISS:     569458
L2C RFO       ACCESS:    2803112  HIT:    2193833  MISS:     609279
L2C PREFETCH  ACCESS:   43290939  HIT:   41463586  MISS:    1827353
L2C WRITEBACK ACCESS:    3161380  HIT:    3155077  MISS:       6303
L2C PREFETCH  REQUESTED:   15133600  ISSUED:   14618008  USEFUL:    1701569  USELESS:     125788
L2C TOTAL MSHR MERGED:      10446
L2C LOAD MSHR MERGED:          0
L2C RFO MSHR MERGED:          0
L2C PREFETCH MSHR MERGED:      10446
L2C WRITEBACK MSHR MERGED:          0
L2C TOTAL ACCESSES:  113885644 HITS:  110693950 MISSES:    3191694
L2C LOAD ACCESSES:   64446836 HITS:   63877377 MISSES:     569459
L2C RFO ACCESSES:    2805103 HITS:    2195824 MISSES:     609279
L2C PREFETCH ACCESSES:   43472325 HITS:   41465672 MISSES:    2006653
L2C WRITEBACK ACCESSES:    3161380 HITS:    3155077 MISSES:       6303
L2C RQ ACCESS:   67251940
L2C RQ TO_CACHE:   67248050
L2C RQ MERGED:          0
L2C RQ FORWARD:          0
L2C WQ ACCESS:    3161380
L2C WQ TO_CACHE:    3161380
L2C WQ MERGED:          0
L2C WQ FORWARD:       5976
LLC TOTAL     ACCESS:    3707064  HIT:    2221154  MISS:    1485910
LLC LOAD      ACCESS:     569431  HIT:     533754  MISS:      35677
LLC RFO       ACCESS:     527300  HIT:     238760  MISS:     288540
LLC PREFETCH  ACCESS:    1992031  HIT:     923759  MISS:    1068272
LLC WRITEBACK ACCESS:     618302  HIT:     524881  MISS:      93421
LLC PREFETCH  REQUESTED:          0  ISSUED:          0  USEFUL:      80178  USELESS:     987146
LLC TOTAL MSHR MERGED:       3549
LLC LOAD MSHR MERGED:          0
LLC RFO MSHR MERGED:          0
LLC PREFETCH MSHR MERGED:       3549
LLC WRITEBACK MSHR MERGED:          0
LLC TOTAL ACCESSES:    3792705 HITS:    2303246 MISSES:    1489459
LLC LOAD ACCESSES:     569458 HITS:     533781 MISSES:      35677
LLC RFO ACCESSES:     609279 HITS:     320739 MISSES:     288540
LLC PREFETCH ACCESSES:    1995666 HITS:     923845 MISSES:    1071821
LLC WRITEBACK ACCESSES:     618302 HITS:     524881 MISSES:      93421
LLC 0 RQ ACCESS:    1178738
LLC 0 RQ TO_CACHE:    1096732
LLC 0 RQ MERGED:          0
LLC 0 RQ FORWARD:          0
LLC WQ ACCESS:     618302
LLC WQ TO_CACHE:     618302
LLC WQ MERGED:          0
LLC WQ FORWARD:      82092
Major fault: 0 Minor fault: 12800
CPU 0 L1D next line prefetcher final stats
CPU 0 L2C PC-based stride prefetcher final stats
All Misses: 1788987
All Hits: 2769158
SD Algo Stats - Switches: 0 SRR-Repls: 44500 BRR-Repls: 0

DRAM Statistics
 CHANNEL 0
 RQ ROW_BUFFER_HIT:     727888  ROW_BUFFER_MISS:     664159
 DBUS_CONGESTED:     797831
 WQ ROW_BUFFER_HIT:      48205  ROW_BUFFER_MISS:     244773  FULL:          0

 AVG_CONGESTED_CYCLE: 13
LOADS RETIRED: 239375970
INSTR RETIRED: 500000000
