
*** ChampSim Multicore Out-of-Order Simulator ***

Warmup Instructions: 100000000
Simulation Instructions: 500000000
Number of CPUs: 1
LLC sets: 2048
LLC ways: 16
Clean RRIP Policies: 1312030013120300 Dirty RRIP Policies: 1302030013020300 PSEL Width: 10 Track Set: 4294967295 PSEL Mask: 1 Demote Mask: 3044021430440214DS Algo: 0Window size: 0
Off-chip DRAM Size: 4096 MB Channels: 1 Width: 64-bit Data Rate: 1600 MT/s

CPU 0 runs /mnt/beegfs/iconst01/spec2017/Parest.trace.gz
NOT SORTED
TRACE STRING: /mnt/beegfs/iconst01/spec2017/Parest.trace.gz
SORTED
TRACE STRING: /mnt/beegfs/iconst01/spec2017/Parest.trace.gz
INITIAL
TRACE STRING: /mnt/beegfs/iconst01/spec2017/Parest.trace.gz

champsim_seed used: 623

CPU 0 L1D next line prefetcher
CPU 0 L2C IP-based stride prefetcher
Initialize DRRIP state
Assign rand_sets[0]: 454  LLC: 2048
rand_sets[0]: 454
Assign rand_sets[1]: 1662  LLC: 2048
rand_sets[1]: 1662
Assign rand_sets[2]: 1921  LLC: 2048
rand_sets[2]: 1921
Assign rand_sets[3]: 1131  LLC: 2048
rand_sets[3]: 1131
Assign rand_sets[4]: 331  LLC: 2048
rand_sets[4]: 331
Assign rand_sets[5]: 1531  LLC: 2048
rand_sets[5]: 1531
Assign rand_sets[6]: 482  LLC: 2048
rand_sets[6]: 482
Assign rand_sets[7]: 1275  LLC: 2048
rand_sets[7]: 1275
Assign rand_sets[8]: 1876  LLC: 2048
rand_sets[8]: 1876
Assign rand_sets[9]: 2038  LLC: 2048
rand_sets[9]: 2038
Assign rand_sets[10]: 701  LLC: 2048
rand_sets[10]: 701
Assign rand_sets[11]: 479  LLC: 2048
rand_sets[11]: 479
Assign rand_sets[12]: 892  LLC: 2048
rand_sets[12]: 892
Assign rand_sets[13]: 1820  LLC: 2048
rand_sets[13]: 1820
Assign rand_sets[14]: 1505  LLC: 2048
rand_sets[14]: 1505
Assign rand_sets[15]: 1159  LLC: 2048
rand_sets[15]: 1159
Assign rand_sets[16]: 513  LLC: 2048
rand_sets[16]: 513
Assign rand_sets[17]: 703  LLC: 2048
rand_sets[17]: 703
Assign rand_sets[18]: 561  LLC: 2048
rand_sets[18]: 561
Assign rand_sets[19]: 990  LLC: 2048
rand_sets[19]: 990
Assign rand_sets[20]: 342  LLC: 2048
rand_sets[20]: 342
Assign rand_sets[21]: 882  LLC: 2048
rand_sets[21]: 882
Assign rand_sets[22]: 15  LLC: 2048
rand_sets[22]: 15
Assign rand_sets[23]: 71  LLC: 2048
rand_sets[23]: 71
Assign rand_sets[24]: 1127  LLC: 2048
rand_sets[24]: 1127
Assign rand_sets[25]: 1382  LLC: 2048
rand_sets[25]: 1382
Assign rand_sets[26]: 647  LLC: 2048
rand_sets[26]: 647
Assign rand_sets[27]: 857  LLC: 2048
rand_sets[27]: 857
Assign rand_sets[28]: 1450  LLC: 2048
rand_sets[28]: 1450
Assign rand_sets[29]: 1160  LLC: 2048
rand_sets[29]: 1160
Assign rand_sets[30]: 1852  LLC: 2048
rand_sets[30]: 1852
Assign rand_sets[31]: 1881  LLC: 2048
rand_sets[31]: 1881
Assign rand_sets[32]: 1770  LLC: 2048
rand_sets[32]: 1770
Assign rand_sets[33]: 1622  LLC: 2048
rand_sets[33]: 1622
Assign rand_sets[34]: 275  LLC: 2048
rand_sets[34]: 275
Assign rand_sets[35]: 635  LLC: 2048
rand_sets[35]: 635
Assign rand_sets[36]: 466  LLC: 2048
rand_sets[36]: 466
Assign rand_sets[37]: 1413  LLC: 2048
rand_sets[37]: 1413
Assign rand_sets[38]: 417  LLC: 2048
rand_sets[38]: 417
Assign rand_sets[39]: 472  LLC: 2048
rand_sets[39]: 472
Assign rand_sets[40]: 1340  LLC: 2048
rand_sets[40]: 1340
Assign rand_sets[41]: 852  LLC: 2048
rand_sets[41]: 852
Assign rand_sets[42]: 1365  LLC: 2048
rand_sets[42]: 1365
Assign rand_sets[43]: 47  LLC: 2048
rand_sets[43]: 47
Assign rand_sets[44]: 823  LLC: 2048
rand_sets[44]: 823
Assign rand_sets[45]: 686  LLC: 2048
rand_sets[45]: 686
Assign rand_sets[46]: 1637  LLC: 2048
rand_sets[46]: 1637
Assign rand_sets[47]: 1115  LLC: 2048
rand_sets[47]: 1115
Assign rand_sets[48]: 986  LLC: 2048
rand_sets[48]: 986
Assign rand_sets[49]: 258  LLC: 2048
rand_sets[49]: 258
Assign rand_sets[50]: 633  LLC: 2048
rand_sets[50]: 633
Assign rand_sets[51]: 920  LLC: 2048
rand_sets[51]: 920
Assign rand_sets[52]: 204  LLC: 2048
rand_sets[52]: 204
Assign rand_sets[53]: 227  LLC: 2048
rand_sets[53]: 227
Assign rand_sets[54]: 1818  LLC: 2048
rand_sets[54]: 1818
Assign rand_sets[55]: 886  LLC: 2048
rand_sets[55]: 886
Assign rand_sets[56]: 1422  LLC: 2048
rand_sets[56]: 1422
Assign rand_sets[57]: 607  LLC: 2048
rand_sets[57]: 607
Assign rand_sets[58]: 217  LLC: 2048
rand_sets[58]: 217
Assign rand_sets[59]: 1945  LLC: 2048
rand_sets[59]: 1945
Assign rand_sets[60]: 143  LLC: 2048
rand_sets[60]: 143
Assign rand_sets[61]: 1311  LLC: 2048
rand_sets[61]: 1311
Assign rand_sets[62]: 319  LLC: 2048
rand_sets[62]: 319
Assign rand_sets[63]: 1846  LLC: 2048
rand_sets[63]: 1846
 CLEAN-RRIP-POLICY-1: 1-3-1-2-0-3-0-0- CLEAN-RRIP-POLICY-2: 1-3-1-2-0-3-0-0-
 DIRTY-RRIP-POLICY-1: 1-3-0-2-0-3-0-0- DIRTY-RRIP-POLICY-2: 1-3-0-2-0-3-0-0-
 PSEL width: 10
Heartbeat CPU 0 instructions: 10000001 cycles: 4387217 heartbeat IPC: 2.27935 cumulative IPC: 2.27935 (Simulation time: 0 hr 0 min 14 sec) 
Heartbeat CPU 0 instructions: 20000000 cycles: 8781171 heartbeat IPC: 2.27585 cumulative IPC: 2.2776 (Simulation time: 0 hr 0 min 28 sec) 
Heartbeat CPU 0 instructions: 30000003 cycles: 13213053 heartbeat IPC: 2.25638 cumulative IPC: 2.27048 (Simulation time: 0 hr 0 min 43 sec) 
Heartbeat CPU 0 instructions: 40000000 cycles: 17643890 heartbeat IPC: 2.25691 cumulative IPC: 2.26707 (Simulation time: 0 hr 0 min 56 sec) 
Heartbeat CPU 0 instructions: 50000000 cycles: 22051878 heartbeat IPC: 2.26861 cumulative IPC: 2.26738 (Simulation time: 0 hr 1 min 10 sec) 
Heartbeat CPU 0 instructions: 60000000 cycles: 26457460 heartbeat IPC: 2.26985 cumulative IPC: 2.26779 (Simulation time: 0 hr 1 min 24 sec) 
Heartbeat CPU 0 instructions: 70000000 cycles: 30858372 heartbeat IPC: 2.27226 cumulative IPC: 2.26843 (Simulation time: 0 hr 1 min 38 sec) 
Heartbeat CPU 0 instructions: 80000000 cycles: 35254084 heartbeat IPC: 2.27494 cumulative IPC: 2.26924 (Simulation time: 0 hr 1 min 52 sec) 
Heartbeat CPU 0 instructions: 90000000 cycles: 39648217 heartbeat IPC: 2.27576 cumulative IPC: 2.26996 (Simulation time: 0 hr 2 min 6 sec) 
Heartbeat CPU 0 instructions: 100000000 cycles: 44045523 heartbeat IPC: 2.27412 cumulative IPC: 2.27038 (Simulation time: 0 hr 2 min 21 sec) 

Warmup complete CPU 0 instructions: 100000002 cycles: 44045533 (Simulation time: 0 hr 2 min 21 sec) 

Heartbeat CPU 0 instructions: 110000000 cycles: 54847985 heartbeat IPC: 0.925715 cumulative IPC: 0.925716 (Simulation time: 0 hr 2 min 40 sec) 
Heartbeat CPU 0 instructions: 120000000 cycles: 65037821 heartbeat IPC: 0.98137 cumulative IPC: 0.952731 (Simulation time: 0 hr 2 min 58 sec) 
Heartbeat CPU 0 instructions: 130000000 cycles: 75280078 heartbeat IPC: 0.976347 cumulative IPC: 0.960475 (Simulation time: 0 hr 3 min 16 sec) 
Heartbeat CPU 0 instructions: 140000000 cycles: 85663171 heartbeat IPC: 0.963104 cumulative IPC: 0.961131 (Simulation time: 0 hr 3 min 35 sec) 
Heartbeat CPU 0 instructions: 150000000 cycles: 97239503 heartbeat IPC: 0.863831 cumulative IPC: 0.939956 (Simulation time: 0 hr 3 min 54 sec) 
Heartbeat CPU 0 instructions: 160000000 cycles: 108158451 heartbeat IPC: 0.915839 cumulative IPC: 0.935849 (Simulation time: 0 hr 4 min 12 sec) 
Heartbeat CPU 0 instructions: 170000000 cycles: 118843581 heartbeat IPC: 0.93588 cumulative IPC: 0.935853 (Simulation time: 0 hr 4 min 30 sec) 
Heartbeat CPU 0 instructions: 180000000 cycles: 129564416 heartbeat IPC: 0.932763 cumulative IPC: 0.935466 (Simulation time: 0 hr 4 min 49 sec) 
Heartbeat CPU 0 instructions: 190000002 cycles: 140386854 heartbeat IPC: 0.924006 cumulative IPC: 0.934179 (Simulation time: 0 hr 5 min 7 sec) 
Heartbeat CPU 0 instructions: 200000000 cycles: 150669617 heartbeat IPC: 0.972501 cumulative IPC: 0.937874 (Simulation time: 0 hr 5 min 26 sec) 
Heartbeat CPU 0 instructions: 210000000 cycles: 161333038 heartbeat IPC: 0.937785 cumulative IPC: 0.937866 (Simulation time: 0 hr 5 min 44 sec) 
Heartbeat CPU 0 instructions: 220000000 cycles: 171404528 heartbeat IPC: 0.992902 cumulative IPC: 0.942218 (Simulation time: 0 hr 6 min 3 sec) 
Heartbeat CPU 0 instructions: 230000001 cycles: 183841186 heartbeat IPC: 0.804075 cumulative IPC: 0.929929 (Simulation time: 0 hr 6 min 22 sec) 
Heartbeat CPU 0 instructions: 240000000 cycles: 195159917 heartbeat IPC: 0.883491 cumulative IPC: 0.92645 (Simulation time: 0 hr 6 min 41 sec) 
Heartbeat CPU 0 instructions: 250000002 cycles: 206014040 heartbeat IPC: 0.921309 cumulative IPC: 0.926106 (Simulation time: 0 hr 6 min 59 sec) 
Heartbeat CPU 0 instructions: 260000000 cycles: 216674296 heartbeat IPC: 0.938064 cumulative IPC: 0.926844 (Simulation time: 0 hr 7 min 18 sec) 
Heartbeat CPU 0 instructions: 270000001 cycles: 227237820 heartbeat IPC: 0.946654 cumulative IPC: 0.927987 (Simulation time: 0 hr 7 min 36 sec) 
Heartbeat CPU 0 instructions: 280000000 cycles: 238042875 heartbeat IPC: 0.925493 cumulative IPC: 0.927848 (Simulation time: 0 hr 7 min 55 sec) 
Heartbeat CPU 0 instructions: 290000002 cycles: 248222487 heartbeat IPC: 0.982356 cumulative IPC: 0.930565 (Simulation time: 0 hr 8 min 13 sec) 
Heartbeat CPU 0 instructions: 300000000 cycles: 258900284 heartbeat IPC: 0.936523 cumulative IPC: 0.930861 (Simulation time: 0 hr 8 min 32 sec) 
Heartbeat CPU 0 instructions: 310000000 cycles: 269025168 heartbeat IPC: 0.987666 cumulative IPC: 0.933418 (Simulation time: 0 hr 8 min 50 sec) 
Heartbeat CPU 0 instructions: 320000000 cycles: 279205092 heartbeat IPC: 0.982326 cumulative IPC: 0.935535 (Simulation time: 0 hr 9 min 8 sec) 
Heartbeat CPU 0 instructions: 330000003 cycles: 289463707 heartbeat IPC: 0.974791 cumulative IPC: 0.937176 (Simulation time: 0 hr 9 min 27 sec) 
Heartbeat CPU 0 instructions: 340000000 cycles: 300351573 heartbeat IPC: 0.918453 cumulative IPC: 0.936381 (Simulation time: 0 hr 9 min 45 sec) 
Heartbeat CPU 0 instructions: 350000000 cycles: 311356578 heartbeat IPC: 0.908677 cumulative IPC: 0.93524 (Simulation time: 0 hr 10 min 4 sec) 
Heartbeat CPU 0 instructions: 360000000 cycles: 322118832 heartbeat IPC: 0.929173 cumulative IPC: 0.935005 (Simulation time: 0 hr 10 min 22 sec) 
Heartbeat CPU 0 instructions: 370000000 cycles: 332595601 heartbeat IPC: 0.954493 cumulative IPC: 0.935713 (Simulation time: 0 hr 10 min 40 sec) 
Heartbeat CPU 0 instructions: 380000000 cycles: 342914091 heartbeat IPC: 0.969134 cumulative IPC: 0.936867 (Simulation time: 0 hr 10 min 59 sec) 
Heartbeat CPU 0 instructions: 390000002 cycles: 353132411 heartbeat IPC: 0.978635 cumulative IPC: 0.938248 (Simulation time: 0 hr 11 min 17 sec) 
Heartbeat CPU 0 instructions: 400000000 cycles: 363683868 heartbeat IPC: 0.947736 cumulative IPC: 0.938561 (Simulation time: 0 hr 11 min 35 sec) 
Heartbeat CPU 0 instructions: 410000000 cycles: 373640082 heartbeat IPC: 1.0044 cumulative IPC: 0.94055 (Simulation time: 0 hr 11 min 54 sec) 
Heartbeat CPU 0 instructions: 420000000 cycles: 385044429 heartbeat IPC: 0.876859 cumulative IPC: 0.938419 (Simulation time: 0 hr 12 min 12 sec) 
Heartbeat CPU 0 instructions: 430000000 cycles: 396866985 heartbeat IPC: 0.845841 cumulative IPC: 0.935317 (Simulation time: 0 hr 12 min 31 sec) 
Heartbeat CPU 0 instructions: 440000000 cycles: 407789945 heartbeat IPC: 0.915503 cumulative IPC: 0.934722 (Simulation time: 0 hr 12 min 49 sec) 
Heartbeat CPU 0 instructions: 450000000 cycles: 418598270 heartbeat IPC: 0.925213 cumulative IPC: 0.934448 (Simulation time: 0 hr 13 min 7 sec) 
Heartbeat CPU 0 instructions: 460000000 cycles: 429434471 heartbeat IPC: 0.922833 cumulative IPC: 0.934121 (Simulation time: 0 hr 13 min 25 sec) 
Heartbeat CPU 0 instructions: 470000002 cycles: 440304156 heartbeat IPC: 0.91999 cumulative IPC: 0.933734 (Simulation time: 0 hr 13 min 44 sec) 
Heartbeat CPU 0 instructions: 480000000 cycles: 450609300 heartbeat IPC: 0.970389 cumulative IPC: 0.934663 (Simulation time: 0 hr 14 min 2 sec) 
Heartbeat CPU 0 instructions: 490000002 cycles: 461377451 heartbeat IPC: 0.928665 cumulative IPC: 0.934508 (Simulation time: 0 hr 14 min 20 sec) 
Heartbeat CPU 0 instructions: 500000000 cycles: 471767739 heartbeat IPC: 0.962437 cumulative IPC: 0.935186 (Simulation time: 0 hr 14 min 38 sec) 
Heartbeat CPU 0 instructions: 510000000 cycles: 481952296 heartbeat IPC: 0.981879 cumulative IPC: 0.936272 (Simulation time: 0 hr 14 min 57 sec) 
Heartbeat CPU 0 instructions: 520000000 cycles: 492331374 heartbeat IPC: 0.963477 cumulative IPC: 0.936902 (Simulation time: 0 hr 15 min 15 sec) 
Heartbeat CPU 0 instructions: 530000001 cycles: 503440144 heartbeat IPC: 0.90019 cumulative IPC: 0.936014 (Simulation time: 0 hr 15 min 33 sec) 
Heartbeat CPU 0 instructions: 540000000 cycles: 514527679 heartbeat IPC: 0.901914 cumulative IPC: 0.935211 (Simulation time: 0 hr 15 min 51 sec) 
Heartbeat CPU 0 instructions: 550000003 cycles: 525484384 heartbeat IPC: 0.912683 cumulative IPC: 0.934698 (Simulation time: 0 hr 16 min 9 sec) 
Heartbeat CPU 0 instructions: 560000000 cycles: 536130756 heartbeat IPC: 0.939287 cumulative IPC: 0.934797 (Simulation time: 0 hr 16 min 27 sec) 
Heartbeat CPU 0 instructions: 570000002 cycles: 546622179 heartbeat IPC: 0.95316 cumulative IPC: 0.935181 (Simulation time: 0 hr 16 min 45 sec) 
Heartbeat CPU 0 instructions: 580000000 cycles: 557100847 heartbeat IPC: 0.95432 cumulative IPC: 0.935572 (Simulation time: 0 hr 17 min 3 sec) 
Heartbeat CPU 0 instructions: 590000001 cycles: 567705540 heartbeat IPC: 0.942979 cumulative IPC: 0.935722 (Simulation time: 0 hr 17 min 20 sec) 
Heartbeat CPU 0 instructions: 600000000 cycles: 577987223 heartbeat IPC: 0.972603 cumulative IPC: 0.936432 (Simulation time: 0 hr 17 min 38 sec) 
Finished CPU 0 instructions: 500000000 cycles: 533941704 cumulative IPC: 0.936432 (Simulation time: 0 hr 17 min 38 sec) 

CPU 0 Branch Prediction Accuracy: 97.8526% MPKI: 2.66709
Number of Branches: 62099103 Number of Mispredictions: 1333545
Number of LOAD Instructions: 210576465
Number of LOAD Instructions (ROI): 210576465
Number of STORE Instructions: 16915507
Number of STORE Instructions (ROI): 16915507
Total Destination Memory Operands: 16918869
Total Destination Memory Operands (ROI): 16918869
Total Source Memory Operands: 210576465
Total Source Memory Operands (ROI): 210576465
Number of DEPENDED LOADS: 314432
Number of DEPENDED LOADS (ROI): 314432
Number of SQ_ADDED: 16918826
Number of SQ_ADDED (ROI): 16918826
Number of LQ_ADDED: 210622839
Number of LQ_ADDED (ROI): 210622839
Number of Instructions read from trace: 600000257

ChampSim completed all CPUs

Region of Interest Statistics

CPU 0 cumulative IPC: 0.936432 instructions: 500000000 cycles: 533941704
ITLB TOTAL     ACCESS:   76323948  HIT:   76323910  MISS:         38
ITLB LOAD      ACCESS:   76323948  HIT:   76323910  MISS:         38
ITLB RFO       ACCESS:          0  HIT:          0  MISS:          0
ITLB PREFETCH  ACCESS:          0  HIT:          0  MISS:          0
ITLB WRITEBACK ACCESS:          0  HIT:          0  MISS:          0
ITLB PREFETCH  REQUESTED:          0  ISSUED:          0  USEFUL:          0  USELESS:          0
ITLB TOTAL MSHR MERGED:         37
ITLB LOAD MSHR MERGED:         37
ITLB RFO MSHR MERGED:          0
ITLB PREFETCH MSHR MERGED:          0
ITLB WRITEBACK MSHR MERGED:          0
ITLB TOTAL ACCESSES:   76323985 HITS:   76323910 MISSES:         75
ITLB LOAD ACCESSES:   76323985 HITS:   76323910 MISSES:         75
ITLB RFO ACCESSES:          0 HITS:          0 MISSES:          0
ITLB PREFETCH ACCESSES:          0 HITS:          0 MISSES:          0
ITLB WRITEBACK ACCESSES:          0 HITS:          0 MISSES:          0
ITLB RQ ACCESS:  500000188
ITLB RQ TO_CACHE:   76323986
ITLB RQ MERGED:  423676202
ITLB RQ FORWARD:          0
ITLB WQ ACCESS:          0
ITLB WQ TO_CACHE:          0
ITLB WQ MERGED:          0
ITLB WQ FORWARD:          0
DTLB TOTAL     ACCESS:  136979289  HIT:  136776497  MISS:     202792
DTLB LOAD      ACCESS:  128916352  HIT:  128716281  MISS:     200071
DTLB RFO       ACCESS:    8062937  HIT:    8060216  MISS:       2721
DTLB PREFETCH  ACCESS:          0  HIT:          0  MISS:          0
DTLB WRITEBACK ACCESS:          0  HIT:          0  MISS:          0
DTLB PREFETCH  REQUESTED:          0  ISSUED:          0  USEFUL:          0  USELESS:          0
DTLB TOTAL MSHR MERGED:     443499
DTLB LOAD MSHR MERGED:     440058
DTLB RFO MSHR MERGED:       3441
DTLB PREFETCH MSHR MERGED:          0
DTLB WRITEBACK MSHR MERGED:          0
DTLB TOTAL ACCESSES:  137422788 HITS:  136776497 MISSES:     646291
DTLB LOAD ACCESSES:  129356410 HITS:  128716281 MISSES:     640129
DTLB RFO ACCESSES:    8066378 HITS:    8060216 MISSES:       6162
DTLB PREFETCH ACCESSES:          0 HITS:          0 MISSES:          0
DTLB WRITEBACK ACCESSES:          0 HITS:          0 MISSES:          0
DTLB RQ ACCESS:  189449454
DTLB RQ TO_CACHE:  137422788
DTLB RQ MERGED:   52026666
DTLB RQ FORWARD:          0
DTLB WQ ACCESS:          0
DTLB WQ TO_CACHE:          0
DTLB WQ MERGED:          0
DTLB WQ FORWARD:          0
L1D TOTAL     ACCESS:  127162258  HIT:  109605381  MISS:   17556877
L1D LOAD      ACCESS:   72996660  HIT:   62946530  MISS:   10050130
L1D RFO       ACCESS:   14010622  HIT:   13857792  MISS:     152830
L1D PREFETCH  ACCESS:   40154976  HIT:   32801059  MISS:    7353917
L1D WRITEBACK ACCESS:          0  HIT:          0  MISS:          0
L1D PREFETCH  REQUESTED:   85964307  ISSUED:   84636240  USEFUL:    6094656  USELESS:    1259272
L1D TOTAL MSHR MERGED:   30700263
L1D LOAD MSHR MERGED:   17985442
L1D RFO MSHR MERGED:     269560
L1D PREFETCH MSHR MERGED:   12445261
L1D WRITEBACK MSHR MERGED:          0
L1D TOTAL ACCESSES:  157863070 HITS:  109605931 MISSES:   48257139
L1D LOAD ACCESSES:   85964332 HITS:   62946555 MISSES:   23017777
L1D RFO ACCESSES:   14280166 HITS:   13857792 MISSES:     422374
L1D PREFETCH ACCESSES:   57618572 HITS:   32801584 MISSES:   24816988
L1D WRITEBACK ACCESSES:          0 HITS:          0 MISSES:          0
L1D RQ ACCESS:  175160432
L1D RQ TO_CACHE:   85964307
L1D RQ MERGED:   89196100
L1D RQ FORWARD:          0
L1D WQ ACCESS:   14289037
L1D WQ TO_CACHE:   14280166
L1D WQ MERGED:       8871
L1D WQ FORWARD:        550
L1I TOTAL     ACCESS:   93355559  HIT:   93353763  MISS:       1796
L1I LOAD      ACCESS:   93355559  HIT:   93353763  MISS:       1796
L1I RFO       ACCESS:          0  HIT:          0  MISS:          0
L1I PREFETCH  ACCESS:          0  HIT:          0  MISS:          0
L1I WRITEBACK ACCESS:          0  HIT:          0  MISS:          0
L1I PREFETCH  REQUESTED:          0  ISSUED:          0  USEFUL:          0  USELESS:          0
L1I TOTAL MSHR MERGED:       2339
L1I LOAD MSHR MERGED:       2339
L1I RFO MSHR MERGED:          0
L1I PREFETCH MSHR MERGED:          0
L1I WRITEBACK MSHR MERGED:          0
L1I TOTAL ACCESSES:   93357898 HITS:   93353763 MISSES:       4135
L1I LOAD ACCESSES:   93357898 HITS:   93353763 MISSES:       4135
L1I RFO ACCESSES:          0 HITS:          0 MISSES:          0
L1I PREFETCH ACCESSES:          0 HITS:          0 MISSES:          0
L1I WRITEBACK ACCESSES:          0 HITS:          0 MISSES:          0
L1I RQ ACCESS:  500000187
L1I RQ TO_CACHE:   93357898
L1I RQ MERGED:  406642289
L1I RQ FORWARD:          0
L1I WQ ACCESS:          0
L1I WQ TO_CACHE:          0
L1I WQ MERGED:          0
L1I WQ FORWARD:          0
L2C TOTAL     ACCESS:   20885628  HIT:    8657550  MISS:   12228078
L2C LOAD      ACCESS:    5034108  HIT:    2129234  MISS:    2904874
L2C RFO       ACCESS:     152814  HIT:       6504  MISS:     146310
L2C PREFETCH  ACCESS:   13925949  HIT:    4749163  MISS:    9176786
L2C WRITEBACK ACCESS:    1772757  HIT:    1772649  MISS:        108
L2C PREFETCH  REQUESTED:    1775729  ISSUED:    1775729  USEFUL:    1070408  USELESS:    8107998
L2C TOTAL MSHR MERGED:      73715
L2C LOAD MSHR MERGED:      18030
L2C RFO MSHR MERGED:          0
L2C PREFETCH MSHR MERGED:      55685
L2C WRITEBACK MSHR MERGED:          0
L2C TOTAL ACCESSES:   21001618 HITS:    8657590 MISSES:   12344028
L2C LOAD ACCESSES:    5034131 HITS:    2129257 MISSES:    2904874
L2C RFO ACCESSES:     152814 HITS:       6504 MISSES:     146310
L2C PREFETCH ACCESSES:   14041916 HITS:    4749180 MISSES:    9292736
L2C WRITEBACK ACCESSES:    1772757 HITS:    1772649 MISSES:        108
L2C RQ ACCESS:    5186945
L2C RQ TO_CACHE:    5186922
L2C RQ MERGED:          0
L2C RQ FORWARD:          0
L2C WQ ACCESS:    1772757
L2C WQ TO_CACHE:    1772757
L2C WQ MERGED:          0
L2C WQ FORWARD:         40
LLC TOTAL     ACCESS:   12538098  HIT:    5387670  MISS:    7150428
LLC LOAD      ACCESS:    2886825  HIT:    1626885  MISS:    1259940
LLC RFO       ACCESS:     146310  HIT:      17384  MISS:     128926
LLC PREFETCH  ACCESS:    9218975  HIT:    3587135  MISS:    5631840
LLC WRITEBACK ACCESS:     285988  HIT:     156266  MISS:     129722
LLC PREFETCH  REQUESTED:          0  ISSUED:          0  USEFUL:     242974  USELESS:    5399142
LLC TOTAL MSHR MERGED:      10135
LLC LOAD MSHR MERGED:       3017
LLC RFO MSHR MERGED:          0
LLC PREFETCH MSHR MERGED:       7118
LLC WRITEBACK MSHR MERGED:          0
LLC TOTAL ACCESSES:   12548272 HITS:    5387709 MISSES:    7160563
LLC LOAD ACCESSES:    2886844 HITS:    1626904 MISSES:    1259940
LLC RFO ACCESSES:     146310 HITS:      17384 MISSES:     128926
LLC PREFETCH ACCESSES:    9229130 HITS:    3587155 MISSES:    5641975
LLC WRITEBACK ACCESSES:     285988 HITS:     156266 MISSES:     129722
LLC 0 RQ ACCESS:    3033154
LLC 0 RQ TO_CACHE:    3033135
LLC 0 RQ MERGED:          0
LLC 0 RQ FORWARD:          0
LLC WQ ACCESS:     285988
LLC WQ TO_CACHE:     285988
LLC WQ MERGED:          0
LLC WQ FORWARD:         39
Major fault: 0 Minor fault: 6524
CPU 0 L1D next line prefetcher final stats
CPU 0 L2C PC-based stride prefetcher final stats
All Misses: 8717826
All Hits: 6345275
SD Algo Stats - Switches: 0 SRR-Repls: 1363841 BRR-Repls: 0

DRAM Statistics
 CHANNEL 0
 RQ ROW_BUFFER_HIT:    6122201  ROW_BUFFER_MISS:     881954
 DBUS_CONGESTED:    2719465
 WQ ROW_BUFFER_HIT:      85234  ROW_BUFFER_MISS:     149688  FULL:          0

 AVG_CONGESTED_CYCLE: 11
LOADS RETIRED: 175418235
INSTR RETIRED: 500000000
