
*** ChampSim Multicore Out-of-Order Simulator ***

Warmup Instructions: 100000000
Simulation Instructions: 500000000
Number of CPUs: 1
LLC sets: 2048
LLC ways: 16
Clean RRIP Policies: 320000303200003 Dirty RRIP Policies: 2300200323002003 PSEL Width: 10 Track Set: 4294967295 PSEL Mask: 1 Demote Mask: 2313133323131333DS Algo: 0Window size: 0
Off-chip DRAM Size: 4096 MB Channels: 1 Width: 64-bit Data Rate: 1600 MT/s

CPU 0 runs /mnt/beegfs/iconst01/spec2017/Gcc.trace.gz
NOT SORTED
TRACE STRING: /mnt/beegfs/iconst01/spec2017/Gcc.trace.gz
SORTED
TRACE STRING: /mnt/beegfs/iconst01/spec2017/Gcc.trace.gz
INITIAL
TRACE STRING: /mnt/beegfs/iconst01/spec2017/Gcc.trace.gz

champsim_seed used: 269

CPU 0 L1D next line prefetcher
CPU 0 L2C IP-based stride prefetcher
Initialize DRRIP state
Assign rand_sets[0]: 454  LLC: 2048
rand_sets[0]: 454
Assign rand_sets[1]: 1662  LLC: 2048
rand_sets[1]: 1662
Assign rand_sets[2]: 1921  LLC: 2048
rand_sets[2]: 1921
Assign rand_sets[3]: 1131  LLC: 2048
rand_sets[3]: 1131
Assign rand_sets[4]: 331  LLC: 2048
rand_sets[4]: 331
Assign rand_sets[5]: 1531  LLC: 2048
rand_sets[5]: 1531
Assign rand_sets[6]: 482  LLC: 2048
rand_sets[6]: 482
Assign rand_sets[7]: 1275  LLC: 2048
rand_sets[7]: 1275
Assign rand_sets[8]: 1876  LLC: 2048
rand_sets[8]: 1876
Assign rand_sets[9]: 2038  LLC: 2048
rand_sets[9]: 2038
Assign rand_sets[10]: 701  LLC: 2048
rand_sets[10]: 701
Assign rand_sets[11]: 479  LLC: 2048
rand_sets[11]: 479
Assign rand_sets[12]: 892  LLC: 2048
rand_sets[12]: 892
Assign rand_sets[13]: 1820  LLC: 2048
rand_sets[13]: 1820
Assign rand_sets[14]: 1505  LLC: 2048
rand_sets[14]: 1505
Assign rand_sets[15]: 1159  LLC: 2048
rand_sets[15]: 1159
Assign rand_sets[16]: 513  LLC: 2048
rand_sets[16]: 513
Assign rand_sets[17]: 703  LLC: 2048
rand_sets[17]: 703
Assign rand_sets[18]: 561  LLC: 2048
rand_sets[18]: 561
Assign rand_sets[19]: 990  LLC: 2048
rand_sets[19]: 990
Assign rand_sets[20]: 342  LLC: 2048
rand_sets[20]: 342
Assign rand_sets[21]: 882  LLC: 2048
rand_sets[21]: 882
Assign rand_sets[22]: 15  LLC: 2048
rand_sets[22]: 15
Assign rand_sets[23]: 71  LLC: 2048
rand_sets[23]: 71
Assign rand_sets[24]: 1127  LLC: 2048
rand_sets[24]: 1127
Assign rand_sets[25]: 1382  LLC: 2048
rand_sets[25]: 1382
Assign rand_sets[26]: 647  LLC: 2048
rand_sets[26]: 647
Assign rand_sets[27]: 857  LLC: 2048
rand_sets[27]: 857
Assign rand_sets[28]: 1450  LLC: 2048
rand_sets[28]: 1450
Assign rand_sets[29]: 1160  LLC: 2048
rand_sets[29]: 1160
Assign rand_sets[30]: 1852  LLC: 2048
rand_sets[30]: 1852
Assign rand_sets[31]: 1881  LLC: 2048
rand_sets[31]: 1881
Assign rand_sets[32]: 1770  LLC: 2048
rand_sets[32]: 1770
Assign rand_sets[33]: 1622  LLC: 2048
rand_sets[33]: 1622
Assign rand_sets[34]: 275  LLC: 2048
rand_sets[34]: 275
Assign rand_sets[35]: 635  LLC: 2048
rand_sets[35]: 635
Assign rand_sets[36]: 466  LLC: 2048
rand_sets[36]: 466
Assign rand_sets[37]: 1413  LLC: 2048
rand_sets[37]: 1413
Assign rand_sets[38]: 417  LLC: 2048
rand_sets[38]: 417
Assign rand_sets[39]: 472  LLC: 2048
rand_sets[39]: 472
Assign rand_sets[40]: 1340  LLC: 2048
rand_sets[40]: 1340
Assign rand_sets[41]: 852  LLC: 2048
rand_sets[41]: 852
Assign rand_sets[42]: 1365  LLC: 2048
rand_sets[42]: 1365
Assign rand_sets[43]: 47  LLC: 2048
rand_sets[43]: 47
Assign rand_sets[44]: 823  LLC: 2048
rand_sets[44]: 823
Assign rand_sets[45]: 686  LLC: 2048
rand_sets[45]: 686
Assign rand_sets[46]: 1637  LLC: 2048
rand_sets[46]: 1637
Assign rand_sets[47]: 1115  LLC: 2048
rand_sets[47]: 1115
Assign rand_sets[48]: 986  LLC: 2048
rand_sets[48]: 986
Assign rand_sets[49]: 258  LLC: 2048
rand_sets[49]: 258
Assign rand_sets[50]: 633  LLC: 2048
rand_sets[50]: 633
Assign rand_sets[51]: 920  LLC: 2048
rand_sets[51]: 920
Assign rand_sets[52]: 204  LLC: 2048
rand_sets[52]: 204
Assign rand_sets[53]: 227  LLC: 2048
rand_sets[53]: 227
Assign rand_sets[54]: 1818  LLC: 2048
rand_sets[54]: 1818
Assign rand_sets[55]: 886  LLC: 2048
rand_sets[55]: 886
Assign rand_sets[56]: 1422  LLC: 2048
rand_sets[56]: 1422
Assign rand_sets[57]: 607  LLC: 2048
rand_sets[57]: 607
Assign rand_sets[58]: 217  LLC: 2048
rand_sets[58]: 217
Assign rand_sets[59]: 1945  LLC: 2048
rand_sets[59]: 1945
Assign rand_sets[60]: 143  LLC: 2048
rand_sets[60]: 143
Assign rand_sets[61]: 1311  LLC: 2048
rand_sets[61]: 1311
Assign rand_sets[62]: 319  LLC: 2048
rand_sets[62]: 319
Assign rand_sets[63]: 1846  LLC: 2048
rand_sets[63]: 1846
 CLEAN-RRIP-POLICY-1: 0-3-2-0-0-0-0-3- CLEAN-RRIP-POLICY-2: 0-3-2-0-0-0-0-3-
 DIRTY-RRIP-POLICY-1: 2-3-0-0-2-0-0-3- DIRTY-RRIP-POLICY-2: 2-3-0-0-2-0-0-3-
 PSEL width: 10
Heartbeat CPU 0 instructions: 10000001 cycles: 7320972 heartbeat IPC: 1.36594 cumulative IPC: 1.36594 (Simulation time: 0 hr 0 min 15 sec) 
Heartbeat CPU 0 instructions: 20000000 cycles: 14325623 heartbeat IPC: 1.42762 cumulative IPC: 1.3961 (Simulation time: 0 hr 0 min 30 sec) 
Heartbeat CPU 0 instructions: 30000001 cycles: 21042099 heartbeat IPC: 1.48888 cumulative IPC: 1.42571 (Simulation time: 0 hr 0 min 45 sec) 
Heartbeat CPU 0 instructions: 40000000 cycles: 27504049 heartbeat IPC: 1.54752 cumulative IPC: 1.45433 (Simulation time: 0 hr 1 min 1 sec) 
Heartbeat CPU 0 instructions: 50000001 cycles: 33606917 heartbeat IPC: 1.63857 cumulative IPC: 1.48779 (Simulation time: 0 hr 1 min 17 sec) 
Heartbeat CPU 0 instructions: 60000000 cycles: 40089178 heartbeat IPC: 1.54267 cumulative IPC: 1.49666 (Simulation time: 0 hr 1 min 33 sec) 
Heartbeat CPU 0 instructions: 70000000 cycles: 47132418 heartbeat IPC: 1.4198 cumulative IPC: 1.48518 (Simulation time: 0 hr 1 min 47 sec) 
Heartbeat CPU 0 instructions: 80000000 cycles: 54228130 heartbeat IPC: 1.4093 cumulative IPC: 1.47525 (Simulation time: 0 hr 2 min 2 sec) 
Heartbeat CPU 0 instructions: 90000003 cycles: 61238866 heartbeat IPC: 1.42638 cumulative IPC: 1.46965 (Simulation time: 0 hr 2 min 17 sec) 
Heartbeat CPU 0 instructions: 100000000 cycles: 68412621 heartbeat IPC: 1.39397 cumulative IPC: 1.46172 (Simulation time: 0 hr 2 min 31 sec) 

Warmup complete CPU 0 instructions: 100000004 cycles: 68412622 (Simulation time: 0 hr 2 min 31 sec) 

Heartbeat CPU 0 instructions: 110000003 cycles: 97058558 heartbeat IPC: 0.34909 cumulative IPC: 0.34909 (Simulation time: 0 hr 3 min 0 sec) 
Heartbeat CPU 0 instructions: 120000000 cycles: 124881764 heartbeat IPC: 0.359412 cumulative IPC: 0.354176 (Simulation time: 0 hr 3 min 28 sec) 
Heartbeat CPU 0 instructions: 130000000 cycles: 150184837 heartbeat IPC: 0.395209 cumulative IPC: 0.366873 (Simulation time: 0 hr 3 min 57 sec) 
Heartbeat CPU 0 instructions: 140000000 cycles: 181582815 heartbeat IPC: 0.318492 cumulative IPC: 0.35345 (Simulation time: 0 hr 4 min 25 sec) 
Heartbeat CPU 0 instructions: 150000000 cycles: 212679759 heartbeat IPC: 0.321575 cumulative IPC: 0.346579 (Simulation time: 0 hr 4 min 54 sec) 
Heartbeat CPU 0 instructions: 160000000 cycles: 240512607 heartbeat IPC: 0.359288 cumulative IPC: 0.348635 (Simulation time: 0 hr 5 min 21 sec) 
Heartbeat CPU 0 instructions: 170000001 cycles: 269062893 heartbeat IPC: 0.350259 cumulative IPC: 0.348866 (Simulation time: 0 hr 5 min 51 sec) 
Heartbeat CPU 0 instructions: 180000000 cycles: 298149903 heartbeat IPC: 0.343796 cumulative IPC: 0.348224 (Simulation time: 0 hr 6 min 20 sec) 
Heartbeat CPU 0 instructions: 190000002 cycles: 326857729 heartbeat IPC: 0.348337 cumulative IPC: 0.348236 (Simulation time: 0 hr 6 min 48 sec) 
Heartbeat CPU 0 instructions: 200000000 cycles: 355920410 heartbeat IPC: 0.344084 cumulative IPC: 0.347817 (Simulation time: 0 hr 7 min 17 sec) 
Heartbeat CPU 0 instructions: 210000002 cycles: 384417923 heartbeat IPC: 0.350908 cumulative IPC: 0.348095 (Simulation time: 0 hr 7 min 46 sec) 
Heartbeat CPU 0 instructions: 220000000 cycles: 415275346 heartbeat IPC: 0.324071 cumulative IPC: 0.345958 (Simulation time: 0 hr 8 min 14 sec) 
Heartbeat CPU 0 instructions: 230000000 cycles: 443641719 heartbeat IPC: 0.35253 cumulative IPC: 0.346455 (Simulation time: 0 hr 8 min 42 sec) 
Heartbeat CPU 0 instructions: 240000000 cycles: 470151975 heartbeat IPC: 0.377212 cumulative IPC: 0.348485 (Simulation time: 0 hr 9 min 9 sec) 
Heartbeat CPU 0 instructions: 250000000 cycles: 500749574 heartbeat IPC: 0.326823 cumulative IPC: 0.346952 (Simulation time: 0 hr 9 min 38 sec) 
Heartbeat CPU 0 instructions: 260000000 cycles: 528093620 heartbeat IPC: 0.36571 cumulative IPC: 0.348067 (Simulation time: 0 hr 10 min 6 sec) 
Heartbeat CPU 0 instructions: 270000003 cycles: 557006482 heartbeat IPC: 0.345867 cumulative IPC: 0.347937 (Simulation time: 0 hr 10 min 36 sec) 
Heartbeat CPU 0 instructions: 280000000 cycles: 585786158 heartbeat IPC: 0.347467 cumulative IPC: 0.347911 (Simulation time: 0 hr 11 min 5 sec) 
Heartbeat CPU 0 instructions: 290000000 cycles: 615159481 heartbeat IPC: 0.340445 cumulative IPC: 0.34751 (Simulation time: 0 hr 11 min 35 sec) 
Heartbeat CPU 0 instructions: 300000000 cycles: 646510505 heartbeat IPC: 0.318969 cumulative IPC: 0.345962 (Simulation time: 0 hr 12 min 3 sec) 
Heartbeat CPU 0 instructions: 310000001 cycles: 676932325 heartbeat IPC: 0.328711 cumulative IPC: 0.3451 (Simulation time: 0 hr 12 min 31 sec) 
Heartbeat CPU 0 instructions: 320000000 cycles: 706310626 heartbeat IPC: 0.340387 cumulative IPC: 0.344883 (Simulation time: 0 hr 13 min 0 sec) 
Heartbeat CPU 0 instructions: 330000000 cycles: 735764347 heartbeat IPC: 0.339516 cumulative IPC: 0.344646 (Simulation time: 0 hr 13 min 28 sec) 
Heartbeat CPU 0 instructions: 340000000 cycles: 766022871 heartbeat IPC: 0.330485 cumulative IPC: 0.344032 (Simulation time: 0 hr 13 min 56 sec) 
Heartbeat CPU 0 instructions: 350000003 cycles: 793600668 heartbeat IPC: 0.362611 cumulative IPC: 0.344738 (Simulation time: 0 hr 14 min 24 sec) 
Heartbeat CPU 0 instructions: 360000000 cycles: 824473240 heartbeat IPC: 0.323912 cumulative IPC: 0.343888 (Simulation time: 0 hr 14 min 52 sec) 
Heartbeat CPU 0 instructions: 370000000 cycles: 855425039 heartbeat IPC: 0.323083 cumulative IPC: 0.34307 (Simulation time: 0 hr 15 min 20 sec) 
Heartbeat CPU 0 instructions: 380000000 cycles: 886824807 heartbeat IPC: 0.318474 cumulative IPC: 0.342126 (Simulation time: 0 hr 15 min 48 sec) 
Heartbeat CPU 0 instructions: 390000001 cycles: 917199142 heartbeat IPC: 0.329225 cumulative IPC: 0.341664 (Simulation time: 0 hr 16 min 16 sec) 
Heartbeat CPU 0 instructions: 400000000 cycles: 948562143 heartbeat IPC: 0.318847 cumulative IPC: 0.340851 (Simulation time: 0 hr 16 min 44 sec) 
Heartbeat CPU 0 instructions: 410000001 cycles: 978712738 heartbeat IPC: 0.331668 cumulative IPC: 0.340547 (Simulation time: 0 hr 17 min 12 sec) 
Heartbeat CPU 0 instructions: 420000000 cycles: 1008871993 heartbeat IPC: 0.331573 cumulative IPC: 0.340259 (Simulation time: 0 hr 17 min 40 sec) 
Heartbeat CPU 0 instructions: 430000002 cycles: 1039427706 heartbeat IPC: 0.327271 cumulative IPC: 0.339851 (Simulation time: 0 hr 18 min 7 sec) 
Heartbeat CPU 0 instructions: 440000000 cycles: 1071291261 heartbeat IPC: 0.313838 cumulative IPC: 0.339024 (Simulation time: 0 hr 18 min 36 sec) 
Heartbeat CPU 0 instructions: 450000002 cycles: 1103010866 heartbeat IPC: 0.315262 cumulative IPC: 0.338296 (Simulation time: 0 hr 19 min 4 sec) 
Heartbeat CPU 0 instructions: 460000000 cycles: 1133478389 heartbeat IPC: 0.328218 cumulative IPC: 0.338007 (Simulation time: 0 hr 19 min 32 sec) 
Heartbeat CPU 0 instructions: 470000000 cycles: 1163495280 heartbeat IPC: 0.333146 cumulative IPC: 0.337874 (Simulation time: 0 hr 19 min 59 sec) 
Heartbeat CPU 0 instructions: 480000000 cycles: 1193781288 heartbeat IPC: 0.330185 cumulative IPC: 0.337667 (Simulation time: 0 hr 20 min 27 sec) 
Heartbeat CPU 0 instructions: 490000000 cycles: 1223836828 heartbeat IPC: 0.332717 cumulative IPC: 0.337538 (Simulation time: 0 hr 20 min 55 sec) 
Heartbeat CPU 0 instructions: 500000000 cycles: 1254337444 heartbeat IPC: 0.327862 cumulative IPC: 0.33729 (Simulation time: 0 hr 21 min 23 sec) 
Heartbeat CPU 0 instructions: 510000000 cycles: 1290009081 heartbeat IPC: 0.280335 cumulative IPC: 0.335626 (Simulation time: 0 hr 21 min 53 sec) 
Heartbeat CPU 0 instructions: 520000000 cycles: 1318335081 heartbeat IPC: 0.353033 cumulative IPC: 0.336021 (Simulation time: 0 hr 22 min 21 sec) 
Heartbeat CPU 0 instructions: 530000001 cycles: 1349160397 heartbeat IPC: 0.324409 cumulative IPC: 0.335741 (Simulation time: 0 hr 22 min 50 sec) 
Heartbeat CPU 0 instructions: 540000000 cycles: 1378314647 heartbeat IPC: 0.343003 cumulative IPC: 0.335903 (Simulation time: 0 hr 23 min 18 sec) 
Heartbeat CPU 0 instructions: 550000001 cycles: 1407879891 heartbeat IPC: 0.338235 cumulative IPC: 0.335954 (Simulation time: 0 hr 23 min 48 sec) 
Heartbeat CPU 0 instructions: 560000000 cycles: 1433577475 heartbeat IPC: 0.389142 cumulative IPC: 0.336956 (Simulation time: 0 hr 24 min 15 sec) 
Heartbeat CPU 0 instructions: 570000000 cycles: 1464206363 heartbeat IPC: 0.326489 cumulative IPC: 0.336726 (Simulation time: 0 hr 24 min 44 sec) 
Heartbeat CPU 0 instructions: 580000000 cycles: 1493023579 heartbeat IPC: 0.347015 cumulative IPC: 0.336934 (Simulation time: 0 hr 25 min 12 sec) 
Heartbeat CPU 0 instructions: 590000001 cycles: 1518201865 heartbeat IPC: 0.397168 cumulative IPC: 0.33798 (Simulation time: 0 hr 25 min 39 sec) 
Heartbeat CPU 0 instructions: 600000000 cycles: 1545207760 heartbeat IPC: 0.370289 cumulative IPC: 0.338571 (Simulation time: 0 hr 26 min 6 sec) 
Finished CPU 0 instructions: 500000000 cycles: 1476795160 cumulative IPC: 0.338571 (Simulation time: 0 hr 26 min 6 sec) 

CPU 0 Branch Prediction Accuracy: 86.4311% MPKI: 26.2662
Number of Branches: 96788573 Number of Mispredictions: 13133102
Number of LOAD Instructions: 164682285
Number of LOAD Instructions (ROI): 164682285
Number of STORE Instructions: 78194750
Number of STORE Instructions (ROI): 78194750
Total Destination Memory Operands: 83268534
Total Destination Memory Operands (ROI): 83268534
Total Source Memory Operands: 164712438
Total Source Memory Operands (ROI): 164712438
Number of DEPENDED LOADS: 7056746
Number of DEPENDED LOADS (ROI): 7056746
Number of SQ_ADDED: 83268522
Number of SQ_ADDED (ROI): 83268522
Number of LQ_ADDED: 236400825
Number of LQ_ADDED (ROI): 236400825
Number of Instructions read from trace: 600000066

ChampSim completed all CPUs

Region of Interest Statistics

CPU 0 cumulative IPC: 0.338571 instructions: 500000000 cycles: 1476795160
ITLB TOTAL     ACCESS:  100525569  HIT:  100321123  MISS:     204446
ITLB LOAD      ACCESS:  100525569  HIT:  100321123  MISS:     204446
ITLB RFO       ACCESS:          0  HIT:          0  MISS:          0
ITLB PREFETCH  ACCESS:          0  HIT:          0  MISS:          0
ITLB WRITEBACK ACCESS:          0  HIT:          0  MISS:          0
ITLB PREFETCH  REQUESTED:          0  ISSUED:          0  USEFUL:          0  USELESS:          0
ITLB TOTAL MSHR MERGED:     172422
ITLB LOAD MSHR MERGED:     172422
ITLB RFO MSHR MERGED:          0
ITLB PREFETCH MSHR MERGED:          0
ITLB WRITEBACK MSHR MERGED:          0
ITLB TOTAL ACCESSES:  100697991 HITS:  100321123 MISSES:     376868
ITLB LOAD ACCESSES:  100697991 HITS:  100321123 MISSES:     376868
ITLB RFO ACCESSES:          0 HITS:          0 MISSES:          0
ITLB PREFETCH ACCESSES:          0 HITS:          0 MISSES:          0
ITLB WRITEBACK ACCESSES:          0 HITS:          0 MISSES:          0
ITLB RQ ACCESS:  500000057
ITLB RQ TO_CACHE:  100697991
ITLB RQ MERGED:  399302066
ITLB RQ FORWARD:          0
ITLB WQ ACCESS:          0
ITLB WQ TO_CACHE:          0
ITLB WQ MERGED:          0
ITLB WQ FORWARD:          0
DTLB TOTAL     ACCESS:  165353954  HIT:  164719600  MISS:     634354
DTLB LOAD      ACCESS:  106304311  HIT:  105734257  MISS:     570054
DTLB RFO       ACCESS:   59049643  HIT:   58985343  MISS:      64300
DTLB PREFETCH  ACCESS:          0  HIT:          0  MISS:          0
DTLB WRITEBACK ACCESS:          0  HIT:          0  MISS:          0
DTLB PREFETCH  REQUESTED:          0  ISSUED:          0  USEFUL:          0  USELESS:          0
DTLB TOTAL MSHR MERGED:      99548
DTLB LOAD MSHR MERGED:      59190
DTLB RFO MSHR MERGED:      40358
DTLB PREFETCH MSHR MERGED:          0
DTLB WRITEBACK MSHR MERGED:          0
DTLB TOTAL ACCESSES:  165453502 HITS:  164719600 MISSES:     733902
DTLB LOAD ACCESSES:  106363501 HITS:  105734257 MISSES:     629244
DTLB RFO ACCESSES:   59090001 HITS:   58985343 MISSES:     104658
DTLB PREFETCH ACCESSES:          0 HITS:          0 MISSES:          0
DTLB WRITEBACK ACCESSES:          0 HITS:          0 MISSES:          0
DTLB RQ ACCESS:  200314162
DTLB RQ TO_CACHE:  165453502
DTLB RQ MERGED:   34860660
DTLB RQ FORWARD:          0
DTLB WQ ACCESS:          0
DTLB WQ TO_CACHE:          0
DTLB WQ MERGED:          0
DTLB WQ FORWARD:          0
L1D TOTAL     ACCESS:  281900681  HIT:  273991217  MISS:    7909464
L1D LOAD      ACCESS:  110442160  HIT:  107167051  MISS:    3275109
L1D RFO       ACCESS:   67124727  HIT:   66234208  MISS:     890519
L1D PREFETCH  ACCESS:  104333794  HIT:  100589958  MISS:    3743836
L1D WRITEBACK ACCESS:          0  HIT:          0  MISS:          0
L1D PREFETCH  REQUESTED:  110832553  ISSUED:  109132931  USEFUL:    1664426  USELESS:    2079374
L1D TOTAL MSHR MERGED:    2841199
L1D LOAD MSHR MERGED:     485338
L1D RFO MSHR MERGED:    1860852
L1D PREFETCH MSHR MERGED:     495009
L1D WRITEBACK MSHR MERGED:          0
L1D TOTAL ACCESSES:  284769371 HITS:  274018708 MISSES:   10750663
L1D LOAD ACCESSES:  110834039 HITS:  107168537 MISSES:    3665502
L1D RFO ACCESSES:   68973800 HITS:   66234208 MISSES:    2739592
L1D PREFETCH ACCESSES:  104961532 HITS:  100615963 MISSES:    4345569
L1D WRITEBACK ACCESSES:          0 HITS:          0 MISSES:          0
L1D RQ ACCESS:  130761559
L1D RQ TO_CACHE:  110832556
L1D RQ MERGED:   19927517
L1D RQ FORWARD:          0
L1D WQ ACCESS:   69552603
L1D WQ TO_CACHE:   68973801
L1D WQ MERGED:     578802
L1D WQ FORWARD:      27491
L1I TOTAL     ACCESS:  126569209  HIT:  122330684  MISS:    4238525
L1I LOAD      ACCESS:  126569209  HIT:  122330684  MISS:    4238525
L1I RFO       ACCESS:          0  HIT:          0  MISS:          0
L1I PREFETCH  ACCESS:          0  HIT:          0  MISS:          0
L1I WRITEBACK ACCESS:          0  HIT:          0  MISS:          0
L1I PREFETCH  REQUESTED:          0  ISSUED:          0  USEFUL:          0  USELESS:          0
L1I TOTAL MSHR MERGED:    1839082
L1I LOAD MSHR MERGED:    1839082
L1I RFO MSHR MERGED:          0
L1I PREFETCH MSHR MERGED:          0
L1I WRITEBACK MSHR MERGED:          0
L1I TOTAL ACCESSES:  128408294 HITS:  122330684 MISSES:    6077610
L1I LOAD ACCESSES:  128408294 HITS:  122330684 MISSES:    6077610
L1I RFO ACCESSES:          0 HITS:          0 MISSES:          0
L1I PREFETCH ACCESSES:          0 HITS:          0 MISSES:          0
L1I WRITEBACK ACCESSES:          0 HITS:          0 MISSES:          0
L1I RQ ACCESS:  500000057
L1I RQ TO_CACHE:  128408294
L1I RQ MERGED:  371591763
L1I RQ FORWARD:          0
L1I WQ ACCESS:          0
L1I WQ TO_CACHE:          0
L1I WQ MERGED:          0
L1I WQ FORWARD:          0
L2C TOTAL     ACCESS:   14905413  HIT:   11158949  MISS:    3746464
L2C LOAD      ACCESS:    7418486  HIT:    5098630  MISS:    2319856
L2C RFO       ACCESS:     878644  HIT:     409948  MISS:     468696
L2C PREFETCH  ACCESS:    4569021  HIT:    3628373  MISS:     940648
L2C WRITEBACK ACCESS:    2039262  HIT:    2021998  MISS:      17264
L2C PREFETCH  REQUESTED:     842790  ISSUED:     842790  USEFUL:     203404  USELESS:     736950
L2C TOTAL MSHR MERGED:       6997
L2C LOAD MSHR MERGED:        850
L2C RFO MSHR MERGED:          0
L2C PREFETCH MSHR MERGED:       6147
L2C WRITEBACK MSHR MERGED:          0
L2C TOTAL ACCESSES:   14913285 HITS:   11159392 MISSES:    3753893
L2C LOAD ACCESSES:    7418689 HITS:    5098833 MISSES:    2319856
L2C RFO ACCESSES:     878740 HITS:     410044 MISSES:     468696
L2C PREFETCH ACCESSES:    4576594 HITS:    3628517 MISSES:     948077
L2C WRITEBACK ACCESSES:    2039262 HITS:    2021998 MISSES:      17264
L2C RQ ACCESS:    8297432
L2C RQ TO_CACHE:    8297133
L2C RQ MERGED:          0
L2C RQ FORWARD:          0
L2C WQ ACCESS:    2039262
L2C WQ TO_CACHE:    2039262
L2C WQ MERGED:          0
L2C WQ FORWARD:        443
LLC TOTAL     ACCESS:    4609790  HIT:    3272966  MISS:    1336824
LLC LOAD      ACCESS:    2318995  HIT:    1389055  MISS:     929940
LLC RFO       ACCESS:     468687  HIT:     390941  MISS:      77746
LLC PREFETCH  ACCESS:     941822  HIT:     674278  MISS:     267544
LLC WRITEBACK ACCESS:     880286  HIT:     818692  MISS:      61594
LLC PREFETCH  REQUESTED:          0  ISSUED:          0  USEFUL:      33292  USELESS:     236033
LLC TOTAL MSHR MERGED:         91
LLC LOAD MSHR MERGED:         29
LLC RFO MSHR MERGED:          0
LLC PREFETCH MSHR MERGED:         62
LLC WRITEBACK MSHR MERGED:          0
LLC TOTAL ACCESSES:    4609911 HITS:    3272996 MISSES:    1336915
LLC LOAD ACCESSES:    2319006 HITS:    1389066 MISSES:     929940
LLC RFO ACCESSES:     468696 HITS:     390950 MISSES:      77746
LLC PREFETCH ACCESSES:     941923 HITS:     674288 MISSES:     267635
LLC WRITEBACK ACCESSES:     880286 HITS:     818692 MISSES:      61594
LLC 0 RQ ACCESS:    2787702
LLC 0 RQ TO_CACHE:    2787682
LLC 0 RQ MERGED:          0
LLC 0 RQ FORWARD:          0
LLC WQ ACCESS:     880286
LLC WQ TO_CACHE:     880286
LLC WQ MERGED:          0
LLC WQ FORWARD:         30
Major fault: 0 Minor fault: 12862
CPU 0 L1D next line prefetcher final stats
CPU 0 L2C PC-based stride prefetcher final stats
All Misses: 1554344
All Hits: 3872450
SD Algo Stats - Switches: 0 SRR-Repls: 1058874 BRR-Repls: 0

DRAM Statistics
 CHANNEL 0
 RQ ROW_BUFFER_HIT:     396038  ROW_BUFFER_MISS:     876189
 DBUS_CONGESTED:     506495
 WQ ROW_BUFFER_HIT:      14312  ROW_BUFFER_MISS:     210261  FULL:          0

 AVG_CONGESTED_CYCLE: 13
LOADS RETIRED: 136549171
INSTR RETIRED: 500000000
