
*** ChampSim Multicore Out-of-Order Simulator ***

Warmup Instructions: 100000000
Simulation Instructions: 500000000
Number of CPUs: 1
LLC sets: 2048
LLC ways: 16
Clean RRIP Policies: 1111130111111301 Dirty RRIP Policies: 1101130111011301 PSEL Width: 10 Track Set: 4294967295 PSEL Mask: 1 Demote Mask: 4002144440021444DS Algo: 0Window size: 0
Off-chip DRAM Size: 4096 MB Channels: 1 Width: 64-bit Data Rate: 1600 MT/s

CPU 0 runs /mnt/beegfs/iconst01/spec2017/Gcc.trace.gz
NOT SORTED
TRACE STRING: /mnt/beegfs/iconst01/spec2017/Gcc.trace.gz
SORTED
TRACE STRING: /mnt/beegfs/iconst01/spec2017/Gcc.trace.gz
INITIAL
TRACE STRING: /mnt/beegfs/iconst01/spec2017/Gcc.trace.gz

champsim_seed used: 269

CPU 0 L1D next line prefetcher
CPU 0 L2C IP-based stride prefetcher
Initialize DRRIP state
Assign rand_sets[0]: 454  LLC: 2048
rand_sets[0]: 454
Assign rand_sets[1]: 1662  LLC: 2048
rand_sets[1]: 1662
Assign rand_sets[2]: 1921  LLC: 2048
rand_sets[2]: 1921
Assign rand_sets[3]: 1131  LLC: 2048
rand_sets[3]: 1131
Assign rand_sets[4]: 331  LLC: 2048
rand_sets[4]: 331
Assign rand_sets[5]: 1531  LLC: 2048
rand_sets[5]: 1531
Assign rand_sets[6]: 482  LLC: 2048
rand_sets[6]: 482
Assign rand_sets[7]: 1275  LLC: 2048
rand_sets[7]: 1275
Assign rand_sets[8]: 1876  LLC: 2048
rand_sets[8]: 1876
Assign rand_sets[9]: 2038  LLC: 2048
rand_sets[9]: 2038
Assign rand_sets[10]: 701  LLC: 2048
rand_sets[10]: 701
Assign rand_sets[11]: 479  LLC: 2048
rand_sets[11]: 479
Assign rand_sets[12]: 892  LLC: 2048
rand_sets[12]: 892
Assign rand_sets[13]: 1820  LLC: 2048
rand_sets[13]: 1820
Assign rand_sets[14]: 1505  LLC: 2048
rand_sets[14]: 1505
Assign rand_sets[15]: 1159  LLC: 2048
rand_sets[15]: 1159
Assign rand_sets[16]: 513  LLC: 2048
rand_sets[16]: 513
Assign rand_sets[17]: 703  LLC: 2048
rand_sets[17]: 703
Assign rand_sets[18]: 561  LLC: 2048
rand_sets[18]: 561
Assign rand_sets[19]: 990  LLC: 2048
rand_sets[19]: 990
Assign rand_sets[20]: 342  LLC: 2048
rand_sets[20]: 342
Assign rand_sets[21]: 882  LLC: 2048
rand_sets[21]: 882
Assign rand_sets[22]: 15  LLC: 2048
rand_sets[22]: 15
Assign rand_sets[23]: 71  LLC: 2048
rand_sets[23]: 71
Assign rand_sets[24]: 1127  LLC: 2048
rand_sets[24]: 1127
Assign rand_sets[25]: 1382  LLC: 2048
rand_sets[25]: 1382
Assign rand_sets[26]: 647  LLC: 2048
rand_sets[26]: 647
Assign rand_sets[27]: 857  LLC: 2048
rand_sets[27]: 857
Assign rand_sets[28]: 1450  LLC: 2048
rand_sets[28]: 1450
Assign rand_sets[29]: 1160  LLC: 2048
rand_sets[29]: 1160
Assign rand_sets[30]: 1852  LLC: 2048
rand_sets[30]: 1852
Assign rand_sets[31]: 1881  LLC: 2048
rand_sets[31]: 1881
Assign rand_sets[32]: 1770  LLC: 2048
rand_sets[32]: 1770
Assign rand_sets[33]: 1622  LLC: 2048
rand_sets[33]: 1622
Assign rand_sets[34]: 275  LLC: 2048
rand_sets[34]: 275
Assign rand_sets[35]: 635  LLC: 2048
rand_sets[35]: 635
Assign rand_sets[36]: 466  LLC: 2048
rand_sets[36]: 466
Assign rand_sets[37]: 1413  LLC: 2048
rand_sets[37]: 1413
Assign rand_sets[38]: 417  LLC: 2048
rand_sets[38]: 417
Assign rand_sets[39]: 472  LLC: 2048
rand_sets[39]: 472
Assign rand_sets[40]: 1340  LLC: 2048
rand_sets[40]: 1340
Assign rand_sets[41]: 852  LLC: 2048
rand_sets[41]: 852
Assign rand_sets[42]: 1365  LLC: 2048
rand_sets[42]: 1365
Assign rand_sets[43]: 47  LLC: 2048
rand_sets[43]: 47
Assign rand_sets[44]: 823  LLC: 2048
rand_sets[44]: 823
Assign rand_sets[45]: 686  LLC: 2048
rand_sets[45]: 686
Assign rand_sets[46]: 1637  LLC: 2048
rand_sets[46]: 1637
Assign rand_sets[47]: 1115  LLC: 2048
rand_sets[47]: 1115
Assign rand_sets[48]: 986  LLC: 2048
rand_sets[48]: 986
Assign rand_sets[49]: 258  LLC: 2048
rand_sets[49]: 258
Assign rand_sets[50]: 633  LLC: 2048
rand_sets[50]: 633
Assign rand_sets[51]: 920  LLC: 2048
rand_sets[51]: 920
Assign rand_sets[52]: 204  LLC: 2048
rand_sets[52]: 204
Assign rand_sets[53]: 227  LLC: 2048
rand_sets[53]: 227
Assign rand_sets[54]: 1818  LLC: 2048
rand_sets[54]: 1818
Assign rand_sets[55]: 886  LLC: 2048
rand_sets[55]: 886
Assign rand_sets[56]: 1422  LLC: 2048
rand_sets[56]: 1422
Assign rand_sets[57]: 607  LLC: 2048
rand_sets[57]: 607
Assign rand_sets[58]: 217  LLC: 2048
rand_sets[58]: 217
Assign rand_sets[59]: 1945  LLC: 2048
rand_sets[59]: 1945
Assign rand_sets[60]: 143  LLC: 2048
rand_sets[60]: 143
Assign rand_sets[61]: 1311  LLC: 2048
rand_sets[61]: 1311
Assign rand_sets[62]: 319  LLC: 2048
rand_sets[62]: 319
Assign rand_sets[63]: 1846  LLC: 2048
rand_sets[63]: 1846
 CLEAN-RRIP-POLICY-1: 1-1-1-1-1-3-0-1- CLEAN-RRIP-POLICY-2: 1-1-1-1-1-3-0-1-
 DIRTY-RRIP-POLICY-1: 1-1-0-1-1-3-0-1- DIRTY-RRIP-POLICY-2: 1-1-0-1-1-3-0-1-
 PSEL width: 10
Heartbeat CPU 0 instructions: 10000001 cycles: 7315907 heartbeat IPC: 1.36688 cumulative IPC: 1.36688 (Simulation time: 0 hr 0 min 15 sec) 
Heartbeat CPU 0 instructions: 20000000 cycles: 14307520 heartbeat IPC: 1.43028 cumulative IPC: 1.39787 (Simulation time: 0 hr 0 min 29 sec) 
Heartbeat CPU 0 instructions: 30000001 cycles: 21020500 heartbeat IPC: 1.48965 cumulative IPC: 1.42718 (Simulation time: 0 hr 0 min 45 sec) 
Heartbeat CPU 0 instructions: 40000000 cycles: 27481297 heartbeat IPC: 1.5478 cumulative IPC: 1.45554 (Simulation time: 0 hr 1 min 1 sec) 
Heartbeat CPU 0 instructions: 50000001 cycles: 33583011 heartbeat IPC: 1.63888 cumulative IPC: 1.48885 (Simulation time: 0 hr 1 min 17 sec) 
Heartbeat CPU 0 instructions: 60000000 cycles: 40064145 heartbeat IPC: 1.54294 cumulative IPC: 1.4976 (Simulation time: 0 hr 1 min 33 sec) 
Heartbeat CPU 0 instructions: 70000000 cycles: 47101784 heartbeat IPC: 1.42093 cumulative IPC: 1.48614 (Simulation time: 0 hr 1 min 48 sec) 
Heartbeat CPU 0 instructions: 80000000 cycles: 54191318 heartbeat IPC: 1.41053 cumulative IPC: 1.47625 (Simulation time: 0 hr 2 min 2 sec) 
Heartbeat CPU 0 instructions: 90000003 cycles: 61195644 heartbeat IPC: 1.42769 cumulative IPC: 1.47069 (Simulation time: 0 hr 2 min 17 sec) 
Heartbeat CPU 0 instructions: 100000000 cycles: 68362814 heartbeat IPC: 1.39525 cumulative IPC: 1.46278 (Simulation time: 0 hr 2 min 31 sec) 

Warmup complete CPU 0 instructions: 100000004 cycles: 68362815 (Simulation time: 0 hr 2 min 31 sec) 

Heartbeat CPU 0 instructions: 110000003 cycles: 96005130 heartbeat IPC: 0.361764 cumulative IPC: 0.361764 (Simulation time: 0 hr 3 min 0 sec) 
Heartbeat CPU 0 instructions: 120000000 cycles: 123446496 heartbeat IPC: 0.364413 cumulative IPC: 0.363084 (Simulation time: 0 hr 3 min 28 sec) 
Heartbeat CPU 0 instructions: 130000000 cycles: 148421423 heartbeat IPC: 0.400402 cumulative IPC: 0.374725 (Simulation time: 0 hr 3 min 57 sec) 
Heartbeat CPU 0 instructions: 140000000 cycles: 177836135 heartbeat IPC: 0.339966 cumulative IPC: 0.365386 (Simulation time: 0 hr 4 min 24 sec) 
Heartbeat CPU 0 instructions: 150000000 cycles: 207672502 heartbeat IPC: 0.335161 cumulative IPC: 0.358913 (Simulation time: 0 hr 4 min 53 sec) 
Heartbeat CPU 0 instructions: 160000000 cycles: 235068215 heartbeat IPC: 0.365021 cumulative IPC: 0.359916 (Simulation time: 0 hr 5 min 20 sec) 
Heartbeat CPU 0 instructions: 170000001 cycles: 263075907 heartbeat IPC: 0.357045 cumulative IPC: 0.359503 (Simulation time: 0 hr 5 min 50 sec) 
Heartbeat CPU 0 instructions: 180000000 cycles: 291491291 heartbeat IPC: 0.351922 cumulative IPC: 0.358538 (Simulation time: 0 hr 6 min 19 sec) 
Heartbeat CPU 0 instructions: 190000002 cycles: 319461319 heartbeat IPC: 0.357526 cumulative IPC: 0.358425 (Simulation time: 0 hr 6 min 47 sec) 
Heartbeat CPU 0 instructions: 200000000 cycles: 347785164 heartbeat IPC: 0.353059 cumulative IPC: 0.357881 (Simulation time: 0 hr 7 min 16 sec) 
Heartbeat CPU 0 instructions: 210000002 cycles: 375601382 heartbeat IPC: 0.359503 cumulative IPC: 0.358028 (Simulation time: 0 hr 7 min 44 sec) 
Heartbeat CPU 0 instructions: 220000000 cycles: 404681768 heartbeat IPC: 0.343874 cumulative IPC: 0.356804 (Simulation time: 0 hr 8 min 11 sec) 
Heartbeat CPU 0 instructions: 230000000 cycles: 432207881 heartbeat IPC: 0.363291 cumulative IPC: 0.357295 (Simulation time: 0 hr 8 min 39 sec) 
Heartbeat CPU 0 instructions: 240000000 cycles: 458162616 heartbeat IPC: 0.385286 cumulative IPC: 0.359159 (Simulation time: 0 hr 9 min 6 sec) 
Heartbeat CPU 0 instructions: 250000000 cycles: 488272081 heartbeat IPC: 0.332121 cumulative IPC: 0.35722 (Simulation time: 0 hr 9 min 35 sec) 
Heartbeat CPU 0 instructions: 260000000 cycles: 515370639 heartbeat IPC: 0.369023 cumulative IPC: 0.357936 (Simulation time: 0 hr 10 min 3 sec) 
Heartbeat CPU 0 instructions: 270000003 cycles: 543778932 heartbeat IPC: 0.35201 cumulative IPC: 0.357581 (Simulation time: 0 hr 10 min 33 sec) 
Heartbeat CPU 0 instructions: 280000000 cycles: 571884651 heartbeat IPC: 0.355799 cumulative IPC: 0.357482 (Simulation time: 0 hr 11 min 2 sec) 
Heartbeat CPU 0 instructions: 290000000 cycles: 600738037 heartbeat IPC: 0.34658 cumulative IPC: 0.356891 (Simulation time: 0 hr 11 min 31 sec) 
Heartbeat CPU 0 instructions: 300000000 cycles: 630562814 heartbeat IPC: 0.335292 cumulative IPC: 0.355745 (Simulation time: 0 hr 11 min 59 sec) 
Heartbeat CPU 0 instructions: 310000001 cycles: 659909345 heartbeat IPC: 0.340756 cumulative IPC: 0.355002 (Simulation time: 0 hr 12 min 27 sec) 
Heartbeat CPU 0 instructions: 320000000 cycles: 688086608 heartbeat IPC: 0.354896 cumulative IPC: 0.354997 (Simulation time: 0 hr 12 min 55 sec) 
Heartbeat CPU 0 instructions: 330000000 cycles: 716706306 heartbeat IPC: 0.34941 cumulative IPC: 0.35475 (Simulation time: 0 hr 13 min 23 sec) 
Heartbeat CPU 0 instructions: 340000000 cycles: 745951638 heartbeat IPC: 0.341935 cumulative IPC: 0.354197 (Simulation time: 0 hr 13 min 51 sec) 
Heartbeat CPU 0 instructions: 350000003 cycles: 772958484 heartbeat IPC: 0.370277 cumulative IPC: 0.354813 (Simulation time: 0 hr 14 min 19 sec) 
Heartbeat CPU 0 instructions: 360000000 cycles: 801026230 heartbeat IPC: 0.356281 cumulative IPC: 0.35487 (Simulation time: 0 hr 14 min 46 sec) 
Heartbeat CPU 0 instructions: 370000000 cycles: 829168216 heartbeat IPC: 0.355341 cumulative IPC: 0.354887 (Simulation time: 0 hr 15 min 13 sec) 
Heartbeat CPU 0 instructions: 380000000 cycles: 857648482 heartbeat IPC: 0.35112 cumulative IPC: 0.354751 (Simulation time: 0 hr 15 min 40 sec) 
Heartbeat CPU 0 instructions: 390000001 cycles: 885235873 heartbeat IPC: 0.362484 cumulative IPC: 0.355012 (Simulation time: 0 hr 16 min 7 sec) 
Heartbeat CPU 0 instructions: 400000000 cycles: 913859466 heartbeat IPC: 0.349362 cumulative IPC: 0.354821 (Simulation time: 0 hr 16 min 34 sec) 
Heartbeat CPU 0 instructions: 410000001 cycles: 941132126 heartbeat IPC: 0.366668 cumulative IPC: 0.355191 (Simulation time: 0 hr 17 min 1 sec) 
Heartbeat CPU 0 instructions: 420000000 cycles: 968412832 heartbeat IPC: 0.366559 cumulative IPC: 0.355536 (Simulation time: 0 hr 17 min 28 sec) 
Heartbeat CPU 0 instructions: 430000002 cycles: 996085325 heartbeat IPC: 0.36137 cumulative IPC: 0.35571 (Simulation time: 0 hr 17 min 54 sec) 
Heartbeat CPU 0 instructions: 440000000 cycles: 1025620109 heartbeat IPC: 0.338584 cumulative IPC: 0.355181 (Simulation time: 0 hr 18 min 22 sec) 
Heartbeat CPU 0 instructions: 450000002 cycles: 1054854809 heartbeat IPC: 0.342059 cumulative IPC: 0.354793 (Simulation time: 0 hr 18 min 49 sec) 
Heartbeat CPU 0 instructions: 460000000 cycles: 1082520932 heartbeat IPC: 0.361453 cumulative IPC: 0.354974 (Simulation time: 0 hr 19 min 16 sec) 
Heartbeat CPU 0 instructions: 470000000 cycles: 1110132972 heartbeat IPC: 0.362161 cumulative IPC: 0.355165 (Simulation time: 0 hr 19 min 43 sec) 
Heartbeat CPU 0 instructions: 480000000 cycles: 1137992309 heartbeat IPC: 0.358946 cumulative IPC: 0.355263 (Simulation time: 0 hr 20 min 10 sec) 
Heartbeat CPU 0 instructions: 490000000 cycles: 1165560754 heartbeat IPC: 0.362734 cumulative IPC: 0.355451 (Simulation time: 0 hr 20 min 37 sec) 
Heartbeat CPU 0 instructions: 500000000 cycles: 1193853741 heartbeat IPC: 0.353444 cumulative IPC: 0.3554 (Simulation time: 0 hr 21 min 4 sec) 
Heartbeat CPU 0 instructions: 510000000 cycles: 1229075388 heartbeat IPC: 0.283916 cumulative IPC: 0.353231 (Simulation time: 0 hr 21 min 35 sec) 
Heartbeat CPU 0 instructions: 520000000 cycles: 1257111271 heartbeat IPC: 0.356686 cumulative IPC: 0.353313 (Simulation time: 0 hr 22 min 3 sec) 
Heartbeat CPU 0 instructions: 530000001 cycles: 1286389151 heartbeat IPC: 0.341555 cumulative IPC: 0.35303 (Simulation time: 0 hr 22 min 31 sec) 
Heartbeat CPU 0 instructions: 540000000 cycles: 1314409402 heartbeat IPC: 0.356885 cumulative IPC: 0.353117 (Simulation time: 0 hr 22 min 59 sec) 
Heartbeat CPU 0 instructions: 550000001 cycles: 1343582501 heartbeat IPC: 0.342782 cumulative IPC: 0.35288 (Simulation time: 0 hr 23 min 28 sec) 
Heartbeat CPU 0 instructions: 560000000 cycles: 1368951825 heartbeat IPC: 0.394177 cumulative IPC: 0.353686 (Simulation time: 0 hr 23 min 56 sec) 
Heartbeat CPU 0 instructions: 570000000 cycles: 1398376422 heartbeat IPC: 0.339852 cumulative IPC: 0.35338 (Simulation time: 0 hr 24 min 24 sec) 
Heartbeat CPU 0 instructions: 580000000 cycles: 1426270618 heartbeat IPC: 0.358498 cumulative IPC: 0.353485 (Simulation time: 0 hr 24 min 53 sec) 
Heartbeat CPU 0 instructions: 590000001 cycles: 1451036424 heartbeat IPC: 0.403783 cumulative IPC: 0.354386 (Simulation time: 0 hr 25 min 19 sec) 
Heartbeat CPU 0 instructions: 600000000 cycles: 1477171355 heartbeat IPC: 0.38263 cumulative IPC: 0.35491 (Simulation time: 0 hr 25 min 47 sec) 
Finished CPU 0 instructions: 500000000 cycles: 1408808562 cumulative IPC: 0.35491 (Simulation time: 0 hr 25 min 47 sec) 

CPU 0 Branch Prediction Accuracy: 86.4311% MPKI: 26.2662
Number of Branches: 96788573 Number of Mispredictions: 13133102
Number of LOAD Instructions: 164682285
Number of LOAD Instructions (ROI): 164682285
Number of STORE Instructions: 78194750
Number of STORE Instructions (ROI): 78194750
Total Destination Memory Operands: 83268534
Total Destination Memory Operands (ROI): 83268534
Total Source Memory Operands: 164712438
Total Source Memory Operands (ROI): 164712438
Number of DEPENDED LOADS: 7061373
Number of DEPENDED LOADS (ROI): 7061373
Number of SQ_ADDED: 83268522
Number of SQ_ADDED (ROI): 83268522
Number of LQ_ADDED: 236560670
Number of LQ_ADDED (ROI): 236560670
Number of Instructions read from trace: 600000066

ChampSim completed all CPUs

Region of Interest Statistics

CPU 0 cumulative IPC: 0.35491 instructions: 500000000 cycles: 1408808562
ITLB TOTAL     ACCESS:  100511110  HIT:  100306664  MISS:     204446
ITLB LOAD      ACCESS:  100511110  HIT:  100306664  MISS:     204446
ITLB RFO       ACCESS:          0  HIT:          0  MISS:          0
ITLB PREFETCH  ACCESS:          0  HIT:          0  MISS:          0
ITLB WRITEBACK ACCESS:          0  HIT:          0  MISS:          0
ITLB PREFETCH  REQUESTED:          0  ISSUED:          0  USEFUL:          0  USELESS:          0
ITLB TOTAL MSHR MERGED:     172424
ITLB LOAD MSHR MERGED:     172424
ITLB RFO MSHR MERGED:          0
ITLB PREFETCH MSHR MERGED:          0
ITLB WRITEBACK MSHR MERGED:          0
ITLB TOTAL ACCESSES:  100683534 HITS:  100306664 MISSES:     376870
ITLB LOAD ACCESSES:  100683534 HITS:  100306664 MISSES:     376870
ITLB RFO ACCESSES:          0 HITS:          0 MISSES:          0
ITLB PREFETCH ACCESSES:          0 HITS:          0 MISSES:          0
ITLB WRITEBACK ACCESSES:          0 HITS:          0 MISSES:          0
ITLB RQ ACCESS:  500000057
ITLB RQ TO_CACHE:  100683534
ITLB RQ MERGED:  399316523
ITLB RQ FORWARD:          0
ITLB WQ ACCESS:          0
ITLB WQ TO_CACHE:          0
ITLB WQ MERGED:          0
ITLB WQ FORWARD:          0
DTLB TOTAL     ACCESS:  165334612  HIT:  164700268  MISS:     634344
DTLB LOAD      ACCESS:  106291352  HIT:  105721376  MISS:     569976
DTLB RFO       ACCESS:   59043260  HIT:   58978892  MISS:      64368
DTLB PREFETCH  ACCESS:          0  HIT:          0  MISS:          0
DTLB WRITEBACK ACCESS:          0  HIT:          0  MISS:          0
DTLB PREFETCH  REQUESTED:          0  ISSUED:          0  USEFUL:          0  USELESS:          0
DTLB TOTAL MSHR MERGED:      99902
DTLB LOAD MSHR MERGED:      59447
DTLB RFO MSHR MERGED:      40455
DTLB PREFETCH MSHR MERGED:          0
DTLB WRITEBACK MSHR MERGED:          0
DTLB TOTAL ACCESSES:  165434514 HITS:  164700268 MISSES:     734246
DTLB LOAD ACCESSES:  106350799 HITS:  105721376 MISSES:     629423
DTLB RFO ACCESSES:   59083715 HITS:   58978892 MISSES:     104823
DTLB PREFETCH ACCESSES:          0 HITS:          0 MISSES:          0
DTLB WRITEBACK ACCESSES:          0 HITS:          0 MISSES:          0
DTLB RQ ACCESS:  200309548
DTLB RQ TO_CACHE:  165434514
DTLB RQ MERGED:   34875034
DTLB RQ FORWARD:          0
DTLB WQ ACCESS:          0
DTLB WQ TO_CACHE:          0
DTLB WQ MERGED:          0
DTLB WQ FORWARD:          0
L1D TOTAL     ACCESS:  281835751  HIT:  273926389  MISS:    7909362
L1D LOAD      ACCESS:  110425191  HIT:  107150701  MISS:    3274490
L1D RFO       ACCESS:   67097821  HIT:   66206380  MISS:     891441
L1D PREFETCH  ACCESS:  104312739  HIT:  100569308  MISS:    3743431
L1D WRITEBACK ACCESS:          0  HIT:          0  MISS:          0
L1D PREFETCH  REQUESTED:  110814366  ISSUED:  109115054  USEFUL:    1664217  USELESS:    2079178
L1D TOTAL MSHR MERGED:    2862948
L1D LOAD MSHR MERGED:     483130
L1D RFO MSHR MERGED:    1888946
L1D PREFETCH MSHR MERGED:     490872
L1D WRITEBACK MSHR MERGED:          0
L1D TOTAL ACCESSES:  284726224 HITS:  273953914 MISSES:   10772310
L1D LOAD ACCESSES:  110815908 HITS:  107152243 MISSES:    3663665
L1D RFO ACCESSES:   68974130 HITS:   66206380 MISSES:    2767750
L1D PREFETCH ACCESSES:  104936186 HITS:  100595291 MISSES:    4340895
L1D WRITEBACK ACCESSES:          0 HITS:          0 MISSES:          0
L1D RQ ACCESS:  130756945
L1D RQ TO_CACHE:  110814369
L1D RQ MERGED:   19941034
L1D RQ FORWARD:          0
L1D WQ ACCESS:   69552603
L1D WQ TO_CACHE:   68974131
L1D WQ MERGED:     578472
L1D WQ FORWARD:      27525
L1I TOTAL     ACCESS:  126558931  HIT:  122320378  MISS:    4238553
L1I LOAD      ACCESS:  126558931  HIT:  122320378  MISS:    4238553
L1I RFO       ACCESS:          0  HIT:          0  MISS:          0
L1I PREFETCH  ACCESS:          0  HIT:          0  MISS:          0
L1I WRITEBACK ACCESS:          0  HIT:          0  MISS:          0
L1I PREFETCH  REQUESTED:          0  ISSUED:          0  USEFUL:          0  USELESS:          0
L1I TOTAL MSHR MERGED:    1834507
L1I LOAD MSHR MERGED:    1834507
L1I RFO MSHR MERGED:          0
L1I PREFETCH MSHR MERGED:          0
L1I WRITEBACK MSHR MERGED:          0
L1I TOTAL ACCESSES:  128393441 HITS:  122320378 MISSES:    6073063
L1I LOAD ACCESSES:  128393441 HITS:  122320378 MISSES:    6073063
L1I RFO ACCESSES:          0 HITS:          0 MISSES:          0
L1I PREFETCH ACCESSES:          0 HITS:          0 MISSES:          0
L1I WRITEBACK ACCESSES:          0 HITS:          0 MISSES:          0
L1I RQ ACCESS:  500000057
L1I RQ TO_CACHE:  128393441
L1I RQ MERGED:  371606616
L1I RQ FORWARD:          0
L1I WQ ACCESS:          0
L1I WQ TO_CACHE:          0
L1I WQ MERGED:          0
L1I WQ FORWARD:          0
L2C TOTAL     ACCESS:   14904924  HIT:   11158505  MISS:    3746419
L2C LOAD      ACCESS:    7418880  HIT:    5098819  MISS:    2320061
L2C RFO       ACCESS:     878703  HIT:     409918  MISS:     468785
L2C PREFETCH  ACCESS:    4568094  HIT:    3627779  MISS:     940315
L2C WRITEBACK ACCESS:    2039247  HIT:    2021989  MISS:      17258
L2C PREFETCH  REQUESTED:     842761  ISSUED:     842761  USEFUL:     203286  USELESS:     736735
L2C TOTAL MSHR MERGED:       7359
L2C LOAD MSHR MERGED:        870
L2C RFO MSHR MERGED:          1
L2C PREFETCH MSHR MERGED:       6488
L2C WRITEBACK MSHR MERGED:          0
L2C TOTAL ACCESSES:   14913197 HITS:   11158957 MISSES:    3754240
L2C LOAD ACCESSES:    7419088 HITS:    5099027 MISSES:    2320061
L2C RFO ACCESSES:     878804 HITS:     410019 MISSES:     468785
L2C PREFETCH ACCESSES:    4576058 HITS:    3627922 MISSES:     948136
L2C WRITEBACK ACCESSES:    2039247 HITS:    2021989 MISSES:      17258
L2C RQ ACCESS:    8297895
L2C RQ TO_CACHE:    8297586
L2C RQ MERGED:          0
L2C RQ FORWARD:          0
L2C WQ ACCESS:    2039247
L2C WQ TO_CACHE:    2039247
L2C WQ MERGED:          0
L2C WQ FORWARD:        452
LLC TOTAL     ACCESS:    4609731  HIT:    3992319  MISS:     617412
LLC LOAD      ACCESS:    2319178  HIT:    2085101  MISS:     234077
LLC RFO       ACCESS:     468773  HIT:     369914  MISS:      98859
LLC PREFETCH  ACCESS:     941521  HIT:     706142  MISS:     235379
LLC WRITEBACK ACCESS:     880259  HIT:     831162  MISS:      49097
LLC PREFETCH  REQUESTED:          0  ISSUED:          0  USEFUL:      40607  USELESS:     195970
LLC TOTAL MSHR MERGED:        107
LLC LOAD MSHR MERGED:         34
LLC RFO MSHR MERGED:          0
LLC PREFETCH MSHR MERGED:         73
LLC WRITEBACK MSHR MERGED:          0
LLC TOTAL ACCESSES:    4609872 HITS:    3992353 MISSES:     617519
LLC LOAD ACCESSES:    2319191 HITS:    2085114 MISSES:     234077
LLC RFO ACCESSES:     468784 HITS:     369925 MISSES:      98859
LLC PREFETCH ACCESSES:     941638 HITS:     706152 MISSES:     235486
LLC WRITEBACK ACCESSES:     880259 HITS:     831162 MISSES:      49097
LLC 0 RQ ACCESS:    2787975
LLC 0 RQ TO_CACHE:    2787951
LLC 0 RQ MERGED:          0
LLC 0 RQ FORWARD:          0
LLC WQ ACCESS:     880259
LLC WQ TO_CACHE:     880259
LLC WQ MERGED:          0
LLC WQ FORWARD:         34
Major fault: 0 Minor fault: 12862
CPU 0 L1D next line prefetcher final stats
CPU 0 L2C PC-based stride prefetcher final stats
All Misses: 729046
All Hits: 4697691
SD Algo Stats - Switches: 0 SRR-Repls: 274136 BRR-Repls: 0

DRAM Statistics
 CHANNEL 0
 RQ ROW_BUFFER_HIT:     122388  ROW_BUFFER_MISS:     444274
 DBUS_CONGESTED:     422668
 WQ ROW_BUFFER_HIT:      26771  ROW_BUFFER_MISS:     230682  FULL:          0

 AVG_CONGESTED_CYCLE: 13
LOADS RETIRED: 136549171
INSTR RETIRED: 500000000
