
*** ChampSim Multicore Out-of-Order Simulator ***

Warmup Instructions: 100000000
Simulation Instructions: 500000000
Number of CPUs: 1
LLC sets: 2048
LLC ways: 16
Clean RRIP Policies: 1303112013031120 Dirty RRIP Policies: 1303210013032100 PSEL Width: 10 Track Set: 4294967295 PSEL Mask: 1 Demote Mask: 1020442310204423DS Algo: 0Window size: 0
Off-chip DRAM Size: 4096 MB Channels: 1 Width: 64-bit Data Rate: 1600 MT/s

CPU 0 runs /mnt/beegfs/iconst01/spec2017/Gcc.trace.gz
NOT SORTED
TRACE STRING: /mnt/beegfs/iconst01/spec2017/Gcc.trace.gz
SORTED
TRACE STRING: /mnt/beegfs/iconst01/spec2017/Gcc.trace.gz
INITIAL
TRACE STRING: /mnt/beegfs/iconst01/spec2017/Gcc.trace.gz

champsim_seed used: 269

CPU 0 L1D next line prefetcher
CPU 0 L2C IP-based stride prefetcher
Initialize DRRIP state
Assign rand_sets[0]: 454  LLC: 2048
rand_sets[0]: 454
Assign rand_sets[1]: 1662  LLC: 2048
rand_sets[1]: 1662
Assign rand_sets[2]: 1921  LLC: 2048
rand_sets[2]: 1921
Assign rand_sets[3]: 1131  LLC: 2048
rand_sets[3]: 1131
Assign rand_sets[4]: 331  LLC: 2048
rand_sets[4]: 331
Assign rand_sets[5]: 1531  LLC: 2048
rand_sets[5]: 1531
Assign rand_sets[6]: 482  LLC: 2048
rand_sets[6]: 482
Assign rand_sets[7]: 1275  LLC: 2048
rand_sets[7]: 1275
Assign rand_sets[8]: 1876  LLC: 2048
rand_sets[8]: 1876
Assign rand_sets[9]: 2038  LLC: 2048
rand_sets[9]: 2038
Assign rand_sets[10]: 701  LLC: 2048
rand_sets[10]: 701
Assign rand_sets[11]: 479  LLC: 2048
rand_sets[11]: 479
Assign rand_sets[12]: 892  LLC: 2048
rand_sets[12]: 892
Assign rand_sets[13]: 1820  LLC: 2048
rand_sets[13]: 1820
Assign rand_sets[14]: 1505  LLC: 2048
rand_sets[14]: 1505
Assign rand_sets[15]: 1159  LLC: 2048
rand_sets[15]: 1159
Assign rand_sets[16]: 513  LLC: 2048
rand_sets[16]: 513
Assign rand_sets[17]: 703  LLC: 2048
rand_sets[17]: 703
Assign rand_sets[18]: 561  LLC: 2048
rand_sets[18]: 561
Assign rand_sets[19]: 990  LLC: 2048
rand_sets[19]: 990
Assign rand_sets[20]: 342  LLC: 2048
rand_sets[20]: 342
Assign rand_sets[21]: 882  LLC: 2048
rand_sets[21]: 882
Assign rand_sets[22]: 15  LLC: 2048
rand_sets[22]: 15
Assign rand_sets[23]: 71  LLC: 2048
rand_sets[23]: 71
Assign rand_sets[24]: 1127  LLC: 2048
rand_sets[24]: 1127
Assign rand_sets[25]: 1382  LLC: 2048
rand_sets[25]: 1382
Assign rand_sets[26]: 647  LLC: 2048
rand_sets[26]: 647
Assign rand_sets[27]: 857  LLC: 2048
rand_sets[27]: 857
Assign rand_sets[28]: 1450  LLC: 2048
rand_sets[28]: 1450
Assign rand_sets[29]: 1160  LLC: 2048
rand_sets[29]: 1160
Assign rand_sets[30]: 1852  LLC: 2048
rand_sets[30]: 1852
Assign rand_sets[31]: 1881  LLC: 2048
rand_sets[31]: 1881
Assign rand_sets[32]: 1770  LLC: 2048
rand_sets[32]: 1770
Assign rand_sets[33]: 1622  LLC: 2048
rand_sets[33]: 1622
Assign rand_sets[34]: 275  LLC: 2048
rand_sets[34]: 275
Assign rand_sets[35]: 635  LLC: 2048
rand_sets[35]: 635
Assign rand_sets[36]: 466  LLC: 2048
rand_sets[36]: 466
Assign rand_sets[37]: 1413  LLC: 2048
rand_sets[37]: 1413
Assign rand_sets[38]: 417  LLC: 2048
rand_sets[38]: 417
Assign rand_sets[39]: 472  LLC: 2048
rand_sets[39]: 472
Assign rand_sets[40]: 1340  LLC: 2048
rand_sets[40]: 1340
Assign rand_sets[41]: 852  LLC: 2048
rand_sets[41]: 852
Assign rand_sets[42]: 1365  LLC: 2048
rand_sets[42]: 1365
Assign rand_sets[43]: 47  LLC: 2048
rand_sets[43]: 47
Assign rand_sets[44]: 823  LLC: 2048
rand_sets[44]: 823
Assign rand_sets[45]: 686  LLC: 2048
rand_sets[45]: 686
Assign rand_sets[46]: 1637  LLC: 2048
rand_sets[46]: 1637
Assign rand_sets[47]: 1115  LLC: 2048
rand_sets[47]: 1115
Assign rand_sets[48]: 986  LLC: 2048
rand_sets[48]: 986
Assign rand_sets[49]: 258  LLC: 2048
rand_sets[49]: 258
Assign rand_sets[50]: 633  LLC: 2048
rand_sets[50]: 633
Assign rand_sets[51]: 920  LLC: 2048
rand_sets[51]: 920
Assign rand_sets[52]: 204  LLC: 2048
rand_sets[52]: 204
Assign rand_sets[53]: 227  LLC: 2048
rand_sets[53]: 227
Assign rand_sets[54]: 1818  LLC: 2048
rand_sets[54]: 1818
Assign rand_sets[55]: 886  LLC: 2048
rand_sets[55]: 886
Assign rand_sets[56]: 1422  LLC: 2048
rand_sets[56]: 1422
Assign rand_sets[57]: 607  LLC: 2048
rand_sets[57]: 607
Assign rand_sets[58]: 217  LLC: 2048
rand_sets[58]: 217
Assign rand_sets[59]: 1945  LLC: 2048
rand_sets[59]: 1945
Assign rand_sets[60]: 143  LLC: 2048
rand_sets[60]: 143
Assign rand_sets[61]: 1311  LLC: 2048
rand_sets[61]: 1311
Assign rand_sets[62]: 319  LLC: 2048
rand_sets[62]: 319
Assign rand_sets[63]: 1846  LLC: 2048
rand_sets[63]: 1846
 CLEAN-RRIP-POLICY-1: 1-3-0-3-1-1-2-0- CLEAN-RRIP-POLICY-2: 1-3-0-3-1-1-2-0-
 DIRTY-RRIP-POLICY-1: 1-3-0-3-2-1-0-0- DIRTY-RRIP-POLICY-2: 1-3-0-3-2-1-0-0-
 PSEL width: 10
Heartbeat CPU 0 instructions: 10000001 cycles: 7316005 heartbeat IPC: 1.36687 cumulative IPC: 1.36687 (Simulation time: 0 hr 0 min 14 sec) 
Heartbeat CPU 0 instructions: 20000000 cycles: 14308061 heartbeat IPC: 1.43019 cumulative IPC: 1.39781 (Simulation time: 0 hr 0 min 29 sec) 
Heartbeat CPU 0 instructions: 30000001 cycles: 21021340 heartbeat IPC: 1.48959 cumulative IPC: 1.42712 (Simulation time: 0 hr 0 min 45 sec) 
Heartbeat CPU 0 instructions: 40000000 cycles: 27482186 heartbeat IPC: 1.54778 cumulative IPC: 1.45549 (Simulation time: 0 hr 1 min 1 sec) 
Heartbeat CPU 0 instructions: 50000001 cycles: 33583672 heartbeat IPC: 1.63895 cumulative IPC: 1.48882 (Simulation time: 0 hr 1 min 17 sec) 
Heartbeat CPU 0 instructions: 60000000 cycles: 40064699 heartbeat IPC: 1.54297 cumulative IPC: 1.49758 (Simulation time: 0 hr 1 min 33 sec) 
Heartbeat CPU 0 instructions: 70000000 cycles: 47103076 heartbeat IPC: 1.42078 cumulative IPC: 1.4861 (Simulation time: 0 hr 1 min 48 sec) 
Heartbeat CPU 0 instructions: 80000000 cycles: 54193071 heartbeat IPC: 1.41044 cumulative IPC: 1.4762 (Simulation time: 0 hr 2 min 2 sec) 
Heartbeat CPU 0 instructions: 90000003 cycles: 61197916 heartbeat IPC: 1.42758 cumulative IPC: 1.47064 (Simulation time: 0 hr 2 min 17 sec) 
Heartbeat CPU 0 instructions: 100000000 cycles: 68365868 heartbeat IPC: 1.3951 cumulative IPC: 1.46272 (Simulation time: 0 hr 2 min 32 sec) 

Warmup complete CPU 0 instructions: 100000004 cycles: 68365869 (Simulation time: 0 hr 2 min 32 sec) 

Heartbeat CPU 0 instructions: 110000003 cycles: 96240798 heartbeat IPC: 0.358745 cumulative IPC: 0.358745 (Simulation time: 0 hr 3 min 0 sec) 
Heartbeat CPU 0 instructions: 120000000 cycles: 123741533 heartbeat IPC: 0.363627 cumulative IPC: 0.361169 (Simulation time: 0 hr 3 min 29 sec) 
Heartbeat CPU 0 instructions: 130000000 cycles: 148718576 heartbeat IPC: 0.400368 cumulative IPC: 0.373354 (Simulation time: 0 hr 3 min 57 sec) 
Heartbeat CPU 0 instructions: 140000000 cycles: 178467954 heartbeat IPC: 0.336141 cumulative IPC: 0.363299 (Simulation time: 0 hr 4 min 25 sec) 
Heartbeat CPU 0 instructions: 150000000 cycles: 208607688 heartbeat IPC: 0.331788 cumulative IPC: 0.356527 (Simulation time: 0 hr 4 min 53 sec) 
Heartbeat CPU 0 instructions: 160000000 cycles: 236048599 heartbeat IPC: 0.364419 cumulative IPC: 0.357819 (Simulation time: 0 hr 5 min 21 sec) 
Heartbeat CPU 0 instructions: 170000001 cycles: 264173822 heartbeat IPC: 0.355553 cumulative IPC: 0.357493 (Simulation time: 0 hr 5 min 50 sec) 
Heartbeat CPU 0 instructions: 180000000 cycles: 292817181 heartbeat IPC: 0.349121 cumulative IPC: 0.356425 (Simulation time: 0 hr 6 min 19 sec) 
Heartbeat CPU 0 instructions: 190000002 cycles: 320949327 heartbeat IPC: 0.355465 cumulative IPC: 0.356318 (Simulation time: 0 hr 6 min 48 sec) 
Heartbeat CPU 0 instructions: 200000000 cycles: 349520452 heartbeat IPC: 0.350004 cumulative IPC: 0.355676 (Simulation time: 0 hr 7 min 17 sec) 
Heartbeat CPU 0 instructions: 210000002 cycles: 377447203 heartbeat IPC: 0.35808 cumulative IPC: 0.355893 (Simulation time: 0 hr 7 min 45 sec) 
Heartbeat CPU 0 instructions: 220000000 cycles: 406860806 heartbeat IPC: 0.339979 cumulative IPC: 0.35451 (Simulation time: 0 hr 8 min 13 sec) 
Heartbeat CPU 0 instructions: 230000000 cycles: 434592393 heartbeat IPC: 0.3606 cumulative IPC: 0.354972 (Simulation time: 0 hr 8 min 40 sec) 
Heartbeat CPU 0 instructions: 240000000 cycles: 460900414 heartbeat IPC: 0.380112 cumulative IPC: 0.356656 (Simulation time: 0 hr 9 min 7 sec) 
Heartbeat CPU 0 instructions: 250000000 cycles: 491160176 heartbeat IPC: 0.330472 cumulative IPC: 0.354782 (Simulation time: 0 hr 9 min 37 sec) 
Heartbeat CPU 0 instructions: 260000000 cycles: 518277741 heartbeat IPC: 0.368765 cumulative IPC: 0.355625 (Simulation time: 0 hr 10 min 5 sec) 
Heartbeat CPU 0 instructions: 270000003 cycles: 546706496 heartbeat IPC: 0.351757 cumulative IPC: 0.355395 (Simulation time: 0 hr 10 min 34 sec) 
Heartbeat CPU 0 instructions: 280000000 cycles: 575082852 heartbeat IPC: 0.352406 cumulative IPC: 0.355228 (Simulation time: 0 hr 11 min 4 sec) 
Heartbeat CPU 0 instructions: 290000000 cycles: 603969906 heartbeat IPC: 0.346176 cumulative IPC: 0.35474 (Simulation time: 0 hr 11 min 33 sec) 
Heartbeat CPU 0 instructions: 300000000 cycles: 634083181 heartbeat IPC: 0.332079 cumulative IPC: 0.353533 (Simulation time: 0 hr 12 min 1 sec) 
Heartbeat CPU 0 instructions: 310000001 cycles: 663761257 heartbeat IPC: 0.336949 cumulative IPC: 0.352707 (Simulation time: 0 hr 12 min 29 sec) 
Heartbeat CPU 0 instructions: 320000000 cycles: 692238366 heartbeat IPC: 0.351159 cumulative IPC: 0.352636 (Simulation time: 0 hr 12 min 57 sec) 
Heartbeat CPU 0 instructions: 330000000 cycles: 720999240 heartbeat IPC: 0.347695 cumulative IPC: 0.352418 (Simulation time: 0 hr 13 min 25 sec) 
Heartbeat CPU 0 instructions: 340000000 cycles: 750636955 heartbeat IPC: 0.337408 cumulative IPC: 0.351766 (Simulation time: 0 hr 13 min 54 sec) 
Heartbeat CPU 0 instructions: 350000003 cycles: 777722436 heartbeat IPC: 0.369202 cumulative IPC: 0.352432 (Simulation time: 0 hr 14 min 21 sec) 
Heartbeat CPU 0 instructions: 360000000 cycles: 806402678 heartbeat IPC: 0.348672 cumulative IPC: 0.352286 (Simulation time: 0 hr 14 min 49 sec) 
Heartbeat CPU 0 instructions: 370000000 cycles: 835119702 heartbeat IPC: 0.348226 cumulative IPC: 0.352134 (Simulation time: 0 hr 15 min 16 sec) 
Heartbeat CPU 0 instructions: 380000000 cycles: 864248411 heartbeat IPC: 0.343304 cumulative IPC: 0.351811 (Simulation time: 0 hr 15 min 43 sec) 
Heartbeat CPU 0 instructions: 390000001 cycles: 892367626 heartbeat IPC: 0.355629 cumulative IPC: 0.351941 (Simulation time: 0 hr 16 min 10 sec) 
Heartbeat CPU 0 instructions: 400000000 cycles: 921561039 heartbeat IPC: 0.342543 cumulative IPC: 0.351619 (Simulation time: 0 hr 16 min 37 sec) 
Heartbeat CPU 0 instructions: 410000001 cycles: 949382559 heartbeat IPC: 0.359434 cumulative IPC: 0.351866 (Simulation time: 0 hr 17 min 5 sec) 
Heartbeat CPU 0 instructions: 420000000 cycles: 977161646 heartbeat IPC: 0.359983 cumulative IPC: 0.352114 (Simulation time: 0 hr 17 min 32 sec) 
Heartbeat CPU 0 instructions: 430000002 cycles: 1005355393 heartbeat IPC: 0.354689 cumulative IPC: 0.352192 (Simulation time: 0 hr 17 min 59 sec) 
Heartbeat CPU 0 instructions: 440000000 cycles: 1035317473 heartbeat IPC: 0.333755 cumulative IPC: 0.35162 (Simulation time: 0 hr 18 min 26 sec) 
Heartbeat CPU 0 instructions: 450000002 cycles: 1065109582 heartbeat IPC: 0.335659 cumulative IPC: 0.351143 (Simulation time: 0 hr 18 min 54 sec) 
Heartbeat CPU 0 instructions: 460000000 cycles: 1093318539 heartbeat IPC: 0.354497 cumulative IPC: 0.351236 (Simulation time: 0 hr 19 min 21 sec) 
Heartbeat CPU 0 instructions: 470000000 cycles: 1121407898 heartbeat IPC: 0.356007 cumulative IPC: 0.351363 (Simulation time: 0 hr 19 min 48 sec) 
Heartbeat CPU 0 instructions: 480000000 cycles: 1149700421 heartbeat IPC: 0.35345 cumulative IPC: 0.351418 (Simulation time: 0 hr 20 min 15 sec) 
Heartbeat CPU 0 instructions: 490000000 cycles: 1177712782 heartbeat IPC: 0.356985 cumulative IPC: 0.351558 (Simulation time: 0 hr 20 min 42 sec) 
Heartbeat CPU 0 instructions: 500000000 cycles: 1206329102 heartbeat IPC: 0.349451 cumulative IPC: 0.351505 (Simulation time: 0 hr 21 min 10 sec) 
Heartbeat CPU 0 instructions: 510000000 cycles: 1241629932 heartbeat IPC: 0.283279 cumulative IPC: 0.349452 (Simulation time: 0 hr 21 min 40 sec) 
Heartbeat CPU 0 instructions: 520000000 cycles: 1269672501 heartbeat IPC: 0.356601 cumulative IPC: 0.349619 (Simulation time: 0 hr 22 min 8 sec) 
Heartbeat CPU 0 instructions: 530000001 cycles: 1299774614 heartbeat IPC: 0.332203 cumulative IPC: 0.349194 (Simulation time: 0 hr 22 min 37 sec) 
Heartbeat CPU 0 instructions: 540000000 cycles: 1328395536 heartbeat IPC: 0.349395 cumulative IPC: 0.349198 (Simulation time: 0 hr 23 min 5 sec) 
Heartbeat CPU 0 instructions: 550000001 cycles: 1357909636 heartbeat IPC: 0.338821 cumulative IPC: 0.348961 (Simulation time: 0 hr 23 min 35 sec) 
Heartbeat CPU 0 instructions: 560000000 cycles: 1383541058 heartbeat IPC: 0.390146 cumulative IPC: 0.349763 (Simulation time: 0 hr 24 min 2 sec) 
Heartbeat CPU 0 instructions: 570000000 cycles: 1413642398 heartbeat IPC: 0.332211 cumulative IPC: 0.349371 (Simulation time: 0 hr 24 min 31 sec) 
Heartbeat CPU 0 instructions: 580000000 cycles: 1442070243 heartbeat IPC: 0.351768 cumulative IPC: 0.34942 (Simulation time: 0 hr 24 min 59 sec) 
Heartbeat CPU 0 instructions: 590000001 cycles: 1467132895 heartbeat IPC: 0.399 cumulative IPC: 0.350309 (Simulation time: 0 hr 25 min 26 sec) 
Heartbeat CPU 0 instructions: 600000000 cycles: 1493836094 heartbeat IPC: 0.374487 cumulative IPC: 0.350761 (Simulation time: 0 hr 25 min 54 sec) 
Finished CPU 0 instructions: 500000000 cycles: 1425470247 cumulative IPC: 0.350761 (Simulation time: 0 hr 25 min 54 sec) 

CPU 0 Branch Prediction Accuracy: 86.4311% MPKI: 26.2662
Number of Branches: 96788573 Number of Mispredictions: 13133102
Number of LOAD Instructions: 164682285
Number of LOAD Instructions (ROI): 164682285
Number of STORE Instructions: 78194750
Number of STORE Instructions (ROI): 78194750
Total Destination Memory Operands: 83268534
Total Destination Memory Operands (ROI): 83268534
Total Source Memory Operands: 164712438
Total Source Memory Operands (ROI): 164712438
Number of DEPENDED LOADS: 7064265
Number of DEPENDED LOADS (ROI): 7064265
Number of SQ_ADDED: 83268522
Number of SQ_ADDED (ROI): 83268522
Number of LQ_ADDED: 236717386
Number of LQ_ADDED (ROI): 236717386
Number of Instructions read from trace: 600000066

ChampSim completed all CPUs

Region of Interest Statistics

CPU 0 cumulative IPC: 0.350761 instructions: 500000000 cycles: 1425470247
ITLB TOTAL     ACCESS:  100503372  HIT:  100298926  MISS:     204446
ITLB LOAD      ACCESS:  100503372  HIT:  100298926  MISS:     204446
ITLB RFO       ACCESS:          0  HIT:          0  MISS:          0
ITLB PREFETCH  ACCESS:          0  HIT:          0  MISS:          0
ITLB WRITEBACK ACCESS:          0  HIT:          0  MISS:          0
ITLB PREFETCH  REQUESTED:          0  ISSUED:          0  USEFUL:          0  USELESS:          0
ITLB TOTAL MSHR MERGED:     172424
ITLB LOAD MSHR MERGED:     172424
ITLB RFO MSHR MERGED:          0
ITLB PREFETCH MSHR MERGED:          0
ITLB WRITEBACK MSHR MERGED:          0
ITLB TOTAL ACCESSES:  100675796 HITS:  100298926 MISSES:     376870
ITLB LOAD ACCESSES:  100675796 HITS:  100298926 MISSES:     376870
ITLB RFO ACCESSES:          0 HITS:          0 MISSES:          0
ITLB PREFETCH ACCESSES:          0 HITS:          0 MISSES:          0
ITLB WRITEBACK ACCESSES:          0 HITS:          0 MISSES:          0
ITLB RQ ACCESS:  500000057
ITLB RQ TO_CACHE:  100675796
ITLB RQ MERGED:  399324261
ITLB RQ FORWARD:          0
ITLB WQ ACCESS:          0
ITLB WQ TO_CACHE:          0
ITLB WQ MERGED:          0
ITLB WQ FORWARD:          0
DTLB TOTAL     ACCESS:  165333801  HIT:  164699449  MISS:     634352
DTLB LOAD      ACCESS:  106289523  HIT:  105719531  MISS:     569992
DTLB RFO       ACCESS:   59044278  HIT:   58979918  MISS:      64360
DTLB PREFETCH  ACCESS:          0  HIT:          0  MISS:          0
DTLB WRITEBACK ACCESS:          0  HIT:          0  MISS:          0
DTLB PREFETCH  REQUESTED:          0  ISSUED:          0  USEFUL:          0  USELESS:          0
DTLB TOTAL MSHR MERGED:      99756
DTLB LOAD MSHR MERGED:      59368
DTLB RFO MSHR MERGED:      40388
DTLB PREFETCH MSHR MERGED:          0
DTLB WRITEBACK MSHR MERGED:          0
DTLB TOTAL ACCESSES:  165433557 HITS:  164699449 MISSES:     734108
DTLB LOAD ACCESSES:  106348891 HITS:  105719531 MISSES:     629360
DTLB RFO ACCESSES:   59084666 HITS:   58979918 MISSES:     104748
DTLB PREFETCH ACCESSES:          0 HITS:          0 MISSES:          0
DTLB WRITEBACK ACCESSES:          0 HITS:          0 MISSES:          0
DTLB RQ ACCESS:  200306666
DTLB RQ TO_CACHE:  165433557
DTLB RQ MERGED:   34873109
DTLB RQ FORWARD:          0
DTLB WQ ACCESS:          0
DTLB WQ TO_CACHE:          0
DTLB WQ MERGED:          0
DTLB WQ FORWARD:          0
L1D TOTAL     ACCESS:  281789654  HIT:  273880405  MISS:    7909249
L1D LOAD      ACCESS:  110413234  HIT:  107134342  MISS:    3278892
L1D RFO       ACCESS:   67089484  HIT:   66197528  MISS:     891956
L1D PREFETCH  ACCESS:  104286936  HIT:  100548535  MISS:    3738401
L1D WRITEBACK ACCESS:          0  HIT:          0  MISS:          0
L1D PREFETCH  REQUESTED:  110816427  ISSUED:  109117044  USEFUL:    1659282  USELESS:    2079083
L1D TOTAL MSHR MERGED:    2914741
L1D LOAD MSHR MERGED:     501678
L1D RFO MSHR MERGED:    1897404
L1D PREFETCH MSHR MERGED:     515659
L1D WRITEBACK MSHR MERGED:          0
L1D TOTAL ACCESSES:  284731987 HITS:  273907997 MISSES:   10823990
L1D LOAD ACCESSES:  110818032 HITS:  107135947 MISSES:    3682085
L1D RFO ACCESSES:   68973758 HITS:   66197528 MISSES:    2776230
L1D PREFETCH ACCESSES:  104940197 HITS:  100574522 MISSES:    4365675
L1D WRITEBACK ACCESSES:          0 HITS:          0 MISSES:          0
L1D RQ ACCESS:  130754063
L1D RQ TO_CACHE:  110816430
L1D RQ MERGED:   19936028
L1D RQ FORWARD:          0
L1D WQ ACCESS:   69552603
L1D WQ TO_CACHE:   68973759
L1D WQ MERGED:     578844
L1D WQ FORWARD:      27592
L1I TOTAL     ACCESS:  126550878  HIT:  122312324  MISS:    4238554
L1I LOAD      ACCESS:  126550878  HIT:  122312324  MISS:    4238554
L1I RFO       ACCESS:          0  HIT:          0  MISS:          0
L1I PREFETCH  ACCESS:          0  HIT:          0  MISS:          0
L1I WRITEBACK ACCESS:          0  HIT:          0  MISS:          0
L1I PREFETCH  REQUESTED:          0  ISSUED:          0  USEFUL:          0  USELESS:          0
L1I TOTAL MSHR MERGED:    1834932
L1I LOAD MSHR MERGED:    1834932
L1I RFO MSHR MERGED:          0
L1I PREFETCH MSHR MERGED:          0
L1I WRITEBACK MSHR MERGED:          0
L1I TOTAL ACCESSES:  128385813 HITS:  122312324 MISSES:    6073489
L1I LOAD ACCESSES:  128385813 HITS:  122312324 MISSES:    6073489
L1I RFO ACCESSES:          0 HITS:          0 MISSES:          0
L1I PREFETCH ACCESSES:          0 HITS:          0 MISSES:          0
L1I WRITEBACK ACCESSES:          0 HITS:          0 MISSES:          0
L1I RQ ACCESS:  500000057
L1I RQ TO_CACHE:  128385813
L1I RQ MERGED:  371614244
L1I RQ FORWARD:          0
L1I WQ ACCESS:          0
L1I WQ TO_CACHE:          0
L1I WQ MERGED:          0
L1I WQ FORWARD:          0
L2C TOTAL     ACCESS:   14904109  HIT:   11157749  MISS:    3746360
L2C LOAD      ACCESS:    7418759  HIT:    5098566  MISS:    2320193
L2C RFO       ACCESS:     878728  HIT:     409929  MISS:     468799
L2C PREFETCH  ACCESS:    4567407  HIT:    3627294  MISS:     940113
L2C WRITEBACK ACCESS:    2039215  HIT:    2021960  MISS:      17255
L2C PREFETCH  REQUESTED:     842706  ISSUED:     842706  USEFUL:     203098  USELESS:     736722
L2C TOTAL MSHR MERGED:       8011
L2C LOAD MSHR MERGED:       1037
L2C RFO MSHR MERGED:          0
L2C PREFETCH MSHR MERGED:       6974
L2C WRITEBACK MSHR MERGED:          0
L2C TOTAL ACCESSES:   14913038 HITS:   11158192 MISSES:    3754846
L2C LOAD ACCESSES:    7418961 HITS:    5098768 MISSES:    2320193
L2C RFO ACCESSES:     878826 HITS:     410027 MISSES:     468799
L2C PREFETCH ACCESSES:    4576036 HITS:    3627437 MISSES:     948599
L2C WRITEBACK ACCESSES:    2039215 HITS:    2021960 MISSES:      17255
L2C RQ ACCESS:    8297790
L2C RQ TO_CACHE:    8297490
L2C RQ MERGED:          0
L2C RQ FORWARD:          0
L2C WQ ACCESS:    2039215
L2C WQ TO_CACHE:    2039215
L2C WQ MERGED:          0
L2C WQ FORWARD:        443
LLC TOTAL     ACCESS:    4609663  HIT:    3738177  MISS:     871486
LLC LOAD      ACCESS:    2319142  HIT:    1973058  MISS:     346084
LLC RFO       ACCESS:     468788  HIT:     350586  MISS:     118202
LLC PREFETCH  ACCESS:     941490  HIT:     616064  MISS:     325426
LLC WRITEBACK ACCESS:     880243  HIT:     798469  MISS:      81774
LLC PREFETCH  REQUESTED:          0  ISSUED:          0  USEFUL:      16222  USELESS:     309523
LLC TOTAL MSHR MERGED:        117
LLC LOAD MSHR MERGED:         41
LLC RFO MSHR MERGED:          0
LLC PREFETCH MSHR MERGED:         76
LLC WRITEBACK MSHR MERGED:          0
LLC TOTAL ACCESSES:    4609814 HITS:    3738211 MISSES:     871603
LLC LOAD ACCESSES:    2319156 HITS:    1973072 MISSES:     346084
LLC RFO ACCESSES:     468799 HITS:     350597 MISSES:     118202
LLC PREFETCH ACCESSES:     941616 HITS:     616073 MISSES:     325543
LLC WRITEBACK ACCESSES:     880243 HITS:     798469 MISSES:      81774
LLC 0 RQ ACCESS:    2787955
LLC 0 RQ TO_CACHE:    2787930
LLC 0 RQ MERGED:          0
LLC 0 RQ FORWARD:          0
LLC WQ ACCESS:     880243
LLC WQ TO_CACHE:     880243
LLC WQ MERGED:          0
LLC WQ FORWARD:         34
Major fault: 0 Minor fault: 12862
CPU 0 L1D next line prefetcher final stats
CPU 0 L2C PC-based stride prefetcher final stats
All Misses: 997102
All Hits: 4429567
SD Algo Stats - Switches: 0 SRR-Repls: 388960 BRR-Repls: 0

DRAM Statistics
 CHANNEL 0
 RQ ROW_BUFFER_HIT:     154097  ROW_BUFFER_MISS:     632993
 DBUS_CONGESTED:     492074
 WQ ROW_BUFFER_HIT:      29163  ROW_BUFFER_MISS:     275853  FULL:          0

 AVG_CONGESTED_CYCLE: 13
LOADS RETIRED: 136549171
INSTR RETIRED: 500000000
