
*** ChampSim Multicore Out-of-Order Simulator ***

Warmup Instructions: 100000000
Simulation Instructions: 500000000
Number of CPUs: 1
LLC sets: 2048
LLC ways: 16
Clean RRIP Policies: 2203200222032002 Dirty RRIP Policies: 1203100212031002 PSEL Width: 10 Track Set: 4294967295 PSEL Mask: 1 Demote Mask: 1040100010401000DS Algo: 0Window size: 0
Off-chip DRAM Size: 4096 MB Channels: 1 Width: 64-bit Data Rate: 1600 MT/s

CPU 0 runs /mnt/beegfs/iconst01/spec2017/Gcc.trace.gz
NOT SORTED
TRACE STRING: /mnt/beegfs/iconst01/spec2017/Gcc.trace.gz
SORTED
TRACE STRING: /mnt/beegfs/iconst01/spec2017/Gcc.trace.gz
INITIAL
TRACE STRING: /mnt/beegfs/iconst01/spec2017/Gcc.trace.gz

champsim_seed used: 269

CPU 0 L1D next line prefetcher
CPU 0 L2C IP-based stride prefetcher
Initialize DRRIP state
Assign rand_sets[0]: 454  LLC: 2048
rand_sets[0]: 454
Assign rand_sets[1]: 1662  LLC: 2048
rand_sets[1]: 1662
Assign rand_sets[2]: 1921  LLC: 2048
rand_sets[2]: 1921
Assign rand_sets[3]: 1131  LLC: 2048
rand_sets[3]: 1131
Assign rand_sets[4]: 331  LLC: 2048
rand_sets[4]: 331
Assign rand_sets[5]: 1531  LLC: 2048
rand_sets[5]: 1531
Assign rand_sets[6]: 482  LLC: 2048
rand_sets[6]: 482
Assign rand_sets[7]: 1275  LLC: 2048
rand_sets[7]: 1275
Assign rand_sets[8]: 1876  LLC: 2048
rand_sets[8]: 1876
Assign rand_sets[9]: 2038  LLC: 2048
rand_sets[9]: 2038
Assign rand_sets[10]: 701  LLC: 2048
rand_sets[10]: 701
Assign rand_sets[11]: 479  LLC: 2048
rand_sets[11]: 479
Assign rand_sets[12]: 892  LLC: 2048
rand_sets[12]: 892
Assign rand_sets[13]: 1820  LLC: 2048
rand_sets[13]: 1820
Assign rand_sets[14]: 1505  LLC: 2048
rand_sets[14]: 1505
Assign rand_sets[15]: 1159  LLC: 2048
rand_sets[15]: 1159
Assign rand_sets[16]: 513  LLC: 2048
rand_sets[16]: 513
Assign rand_sets[17]: 703  LLC: 2048
rand_sets[17]: 703
Assign rand_sets[18]: 561  LLC: 2048
rand_sets[18]: 561
Assign rand_sets[19]: 990  LLC: 2048
rand_sets[19]: 990
Assign rand_sets[20]: 342  LLC: 2048
rand_sets[20]: 342
Assign rand_sets[21]: 882  LLC: 2048
rand_sets[21]: 882
Assign rand_sets[22]: 15  LLC: 2048
rand_sets[22]: 15
Assign rand_sets[23]: 71  LLC: 2048
rand_sets[23]: 71
Assign rand_sets[24]: 1127  LLC: 2048
rand_sets[24]: 1127
Assign rand_sets[25]: 1382  LLC: 2048
rand_sets[25]: 1382
Assign rand_sets[26]: 647  LLC: 2048
rand_sets[26]: 647
Assign rand_sets[27]: 857  LLC: 2048
rand_sets[27]: 857
Assign rand_sets[28]: 1450  LLC: 2048
rand_sets[28]: 1450
Assign rand_sets[29]: 1160  LLC: 2048
rand_sets[29]: 1160
Assign rand_sets[30]: 1852  LLC: 2048
rand_sets[30]: 1852
Assign rand_sets[31]: 1881  LLC: 2048
rand_sets[31]: 1881
Assign rand_sets[32]: 1770  LLC: 2048
rand_sets[32]: 1770
Assign rand_sets[33]: 1622  LLC: 2048
rand_sets[33]: 1622
Assign rand_sets[34]: 275  LLC: 2048
rand_sets[34]: 275
Assign rand_sets[35]: 635  LLC: 2048
rand_sets[35]: 635
Assign rand_sets[36]: 466  LLC: 2048
rand_sets[36]: 466
Assign rand_sets[37]: 1413  LLC: 2048
rand_sets[37]: 1413
Assign rand_sets[38]: 417  LLC: 2048
rand_sets[38]: 417
Assign rand_sets[39]: 472  LLC: 2048
rand_sets[39]: 472
Assign rand_sets[40]: 1340  LLC: 2048
rand_sets[40]: 1340
Assign rand_sets[41]: 852  LLC: 2048
rand_sets[41]: 852
Assign rand_sets[42]: 1365  LLC: 2048
rand_sets[42]: 1365
Assign rand_sets[43]: 47  LLC: 2048
rand_sets[43]: 47
Assign rand_sets[44]: 823  LLC: 2048
rand_sets[44]: 823
Assign rand_sets[45]: 686  LLC: 2048
rand_sets[45]: 686
Assign rand_sets[46]: 1637  LLC: 2048
rand_sets[46]: 1637
Assign rand_sets[47]: 1115  LLC: 2048
rand_sets[47]: 1115
Assign rand_sets[48]: 986  LLC: 2048
rand_sets[48]: 986
Assign rand_sets[49]: 258  LLC: 2048
rand_sets[49]: 258
Assign rand_sets[50]: 633  LLC: 2048
rand_sets[50]: 633
Assign rand_sets[51]: 920  LLC: 2048
rand_sets[51]: 920
Assign rand_sets[52]: 204  LLC: 2048
rand_sets[52]: 204
Assign rand_sets[53]: 227  LLC: 2048
rand_sets[53]: 227
Assign rand_sets[54]: 1818  LLC: 2048
rand_sets[54]: 1818
Assign rand_sets[55]: 886  LLC: 2048
rand_sets[55]: 886
Assign rand_sets[56]: 1422  LLC: 2048
rand_sets[56]: 1422
Assign rand_sets[57]: 607  LLC: 2048
rand_sets[57]: 607
Assign rand_sets[58]: 217  LLC: 2048
rand_sets[58]: 217
Assign rand_sets[59]: 1945  LLC: 2048
rand_sets[59]: 1945
Assign rand_sets[60]: 143  LLC: 2048
rand_sets[60]: 143
Assign rand_sets[61]: 1311  LLC: 2048
rand_sets[61]: 1311
Assign rand_sets[62]: 319  LLC: 2048
rand_sets[62]: 319
Assign rand_sets[63]: 1846  LLC: 2048
rand_sets[63]: 1846
 CLEAN-RRIP-POLICY-1: 2-2-0-3-2-0-0-2- CLEAN-RRIP-POLICY-2: 2-2-0-3-2-0-0-2-
 DIRTY-RRIP-POLICY-1: 1-2-0-3-1-0-0-2- DIRTY-RRIP-POLICY-2: 1-2-0-3-1-0-0-2-
 PSEL width: 10
Heartbeat CPU 0 instructions: 10000001 cycles: 7315977 heartbeat IPC: 1.36687 cumulative IPC: 1.36687 (Simulation time: 0 hr 0 min 14 sec) 
Heartbeat CPU 0 instructions: 20000000 cycles: 14307738 heartbeat IPC: 1.43025 cumulative IPC: 1.39785 (Simulation time: 0 hr 0 min 28 sec) 
Heartbeat CPU 0 instructions: 30000001 cycles: 21020719 heartbeat IPC: 1.48965 cumulative IPC: 1.42716 (Simulation time: 0 hr 0 min 44 sec) 
Heartbeat CPU 0 instructions: 40000000 cycles: 27481516 heartbeat IPC: 1.5478 cumulative IPC: 1.45552 (Simulation time: 0 hr 0 min 59 sec) 
Heartbeat CPU 0 instructions: 50000001 cycles: 33583334 heartbeat IPC: 1.63886 cumulative IPC: 1.48883 (Simulation time: 0 hr 1 min 14 sec) 
Heartbeat CPU 0 instructions: 60000000 cycles: 40064620 heartbeat IPC: 1.5429 cumulative IPC: 1.49758 (Simulation time: 0 hr 1 min 29 sec) 
Heartbeat CPU 0 instructions: 70000000 cycles: 47103989 heartbeat IPC: 1.42058 cumulative IPC: 1.48607 (Simulation time: 0 hr 1 min 43 sec) 
Heartbeat CPU 0 instructions: 80000000 cycles: 54194496 heartbeat IPC: 1.41034 cumulative IPC: 1.47616 (Simulation time: 0 hr 1 min 57 sec) 
Heartbeat CPU 0 instructions: 90000003 cycles: 61199416 heartbeat IPC: 1.42757 cumulative IPC: 1.4706 (Simulation time: 0 hr 2 min 11 sec) 
Heartbeat CPU 0 instructions: 100000000 cycles: 68367105 heartbeat IPC: 1.39515 cumulative IPC: 1.46269 (Simulation time: 0 hr 2 min 25 sec) 

Warmup complete CPU 0 instructions: 100000004 cycles: 68367106 (Simulation time: 0 hr 2 min 25 sec) 

Heartbeat CPU 0 instructions: 110000003 cycles: 96007116 heartbeat IPC: 0.361794 cumulative IPC: 0.361794 (Simulation time: 0 hr 2 min 52 sec) 
Heartbeat CPU 0 instructions: 120000000 cycles: 123456345 heartbeat IPC: 0.364309 cumulative IPC: 0.363047 (Simulation time: 0 hr 3 min 19 sec) 
Heartbeat CPU 0 instructions: 130000000 cycles: 148439305 heartbeat IPC: 0.400273 cumulative IPC: 0.374662 (Simulation time: 0 hr 3 min 46 sec) 
Heartbeat CPU 0 instructions: 140000000 cycles: 178058866 heartbeat IPC: 0.337615 cumulative IPC: 0.364658 (Simulation time: 0 hr 4 min 13 sec) 
Heartbeat CPU 0 instructions: 150000000 cycles: 207962732 heartbeat IPC: 0.334405 cumulative IPC: 0.358177 (Simulation time: 0 hr 4 min 40 sec) 
Heartbeat CPU 0 instructions: 160000000 cycles: 235393602 heartbeat IPC: 0.364553 cumulative IPC: 0.359224 (Simulation time: 0 hr 5 min 6 sec) 
Heartbeat CPU 0 instructions: 170000001 cycles: 263395019 heartbeat IPC: 0.357125 cumulative IPC: 0.358923 (Simulation time: 0 hr 5 min 34 sec) 
Heartbeat CPU 0 instructions: 180000000 cycles: 291857010 heartbeat IPC: 0.351346 cumulative IPC: 0.357958 (Simulation time: 0 hr 6 min 2 sec) 
Heartbeat CPU 0 instructions: 190000002 cycles: 319887798 heartbeat IPC: 0.356751 cumulative IPC: 0.357823 (Simulation time: 0 hr 6 min 29 sec) 
Heartbeat CPU 0 instructions: 200000000 cycles: 348257279 heartbeat IPC: 0.352491 cumulative IPC: 0.357283 (Simulation time: 0 hr 6 min 57 sec) 
Heartbeat CPU 0 instructions: 210000002 cycles: 376129455 heartbeat IPC: 0.358781 cumulative IPC: 0.357419 (Simulation time: 0 hr 7 min 24 sec) 
Heartbeat CPU 0 instructions: 220000000 cycles: 405370570 heartbeat IPC: 0.341984 cumulative IPC: 0.356079 (Simulation time: 0 hr 7 min 51 sec) 
Heartbeat CPU 0 instructions: 230000000 cycles: 432900375 heartbeat IPC: 0.363243 cumulative IPC: 0.35662 (Simulation time: 0 hr 8 min 17 sec) 
Heartbeat CPU 0 instructions: 240000000 cycles: 458825042 heartbeat IPC: 0.385733 cumulative IPC: 0.358553 (Simulation time: 0 hr 8 min 43 sec) 
Heartbeat CPU 0 instructions: 250000000 cycles: 488945290 heartbeat IPC: 0.332003 cumulative IPC: 0.356652 (Simulation time: 0 hr 9 min 11 sec) 
Heartbeat CPU 0 instructions: 260000000 cycles: 516036410 heartbeat IPC: 0.369125 cumulative IPC: 0.357407 (Simulation time: 0 hr 9 min 38 sec) 
Heartbeat CPU 0 instructions: 270000003 cycles: 544455168 heartbeat IPC: 0.35188 cumulative IPC: 0.357077 (Simulation time: 0 hr 10 min 6 sec) 
Heartbeat CPU 0 instructions: 280000000 cycles: 572644052 heartbeat IPC: 0.35475 cumulative IPC: 0.356947 (Simulation time: 0 hr 10 min 34 sec) 
Heartbeat CPU 0 instructions: 290000000 cycles: 601589232 heartbeat IPC: 0.345481 cumulative IPC: 0.356324 (Simulation time: 0 hr 11 min 3 sec) 
Heartbeat CPU 0 instructions: 300000000 cycles: 631679748 heartbeat IPC: 0.332331 cumulative IPC: 0.355043 (Simulation time: 0 hr 11 min 29 sec) 
Heartbeat CPU 0 instructions: 310000001 cycles: 661136127 heartbeat IPC: 0.339485 cumulative IPC: 0.35427 (Simulation time: 0 hr 11 min 56 sec) 
Heartbeat CPU 0 instructions: 320000000 cycles: 689407885 heartbeat IPC: 0.35371 cumulative IPC: 0.354244 (Simulation time: 0 hr 12 min 23 sec) 
Heartbeat CPU 0 instructions: 330000000 cycles: 718074581 heartbeat IPC: 0.348837 cumulative IPC: 0.354005 (Simulation time: 0 hr 12 min 49 sec) 
Heartbeat CPU 0 instructions: 340000000 cycles: 747359968 heartbeat IPC: 0.341467 cumulative IPC: 0.353465 (Simulation time: 0 hr 13 min 16 sec) 
Heartbeat CPU 0 instructions: 350000003 cycles: 774440752 heartbeat IPC: 0.369266 cumulative IPC: 0.354071 (Simulation time: 0 hr 13 min 42 sec) 
Heartbeat CPU 0 instructions: 360000000 cycles: 802630229 heartbeat IPC: 0.354742 cumulative IPC: 0.354097 (Simulation time: 0 hr 14 min 7 sec) 
Heartbeat CPU 0 instructions: 370000000 cycles: 830816269 heartbeat IPC: 0.354786 cumulative IPC: 0.354122 (Simulation time: 0 hr 14 min 33 sec) 
Heartbeat CPU 0 instructions: 380000000 cycles: 859316348 heartbeat IPC: 0.350876 cumulative IPC: 0.354005 (Simulation time: 0 hr 14 min 58 sec) 
Heartbeat CPU 0 instructions: 390000001 cycles: 886918974 heartbeat IPC: 0.362284 cumulative IPC: 0.354284 (Simulation time: 0 hr 15 min 23 sec) 
Heartbeat CPU 0 instructions: 400000000 cycles: 915556348 heartbeat IPC: 0.349194 cumulative IPC: 0.354112 (Simulation time: 0 hr 15 min 48 sec) 
Heartbeat CPU 0 instructions: 410000001 cycles: 942853010 heartbeat IPC: 0.366345 cumulative IPC: 0.354494 (Simulation time: 0 hr 16 min 13 sec) 
Heartbeat CPU 0 instructions: 420000000 cycles: 970170626 heartbeat IPC: 0.366064 cumulative IPC: 0.354844 (Simulation time: 0 hr 16 min 38 sec) 
Heartbeat CPU 0 instructions: 430000002 cycles: 997878827 heartbeat IPC: 0.360904 cumulative IPC: 0.355025 (Simulation time: 0 hr 17 min 4 sec) 
Heartbeat CPU 0 instructions: 440000000 cycles: 1027440138 heartbeat IPC: 0.33828 cumulative IPC: 0.354509 (Simulation time: 0 hr 17 min 29 sec) 
Heartbeat CPU 0 instructions: 450000002 cycles: 1056689650 heartbeat IPC: 0.341886 cumulative IPC: 0.354135 (Simulation time: 0 hr 17 min 54 sec) 
Heartbeat CPU 0 instructions: 460000000 cycles: 1084391373 heartbeat IPC: 0.360988 cumulative IPC: 0.354322 (Simulation time: 0 hr 18 min 20 sec) 
Heartbeat CPU 0 instructions: 470000000 cycles: 1112025978 heartbeat IPC: 0.361865 cumulative IPC: 0.354522 (Simulation time: 0 hr 18 min 45 sec) 
Heartbeat CPU 0 instructions: 480000000 cycles: 1139896005 heartbeat IPC: 0.358808 cumulative IPC: 0.354633 (Simulation time: 0 hr 19 min 10 sec) 
Heartbeat CPU 0 instructions: 490000000 cycles: 1167483081 heartbeat IPC: 0.362489 cumulative IPC: 0.354831 (Simulation time: 0 hr 19 min 35 sec) 
Heartbeat CPU 0 instructions: 500000000 cycles: 1195795943 heartbeat IPC: 0.353196 cumulative IPC: 0.35479 (Simulation time: 0 hr 20 min 0 sec) 
Heartbeat CPU 0 instructions: 510000000 cycles: 1229910993 heartbeat IPC: 0.293126 cumulative IPC: 0.352978 (Simulation time: 0 hr 20 min 29 sec) 
Heartbeat CPU 0 instructions: 520000000 cycles: 1257954122 heartbeat IPC: 0.356594 cumulative IPC: 0.353064 (Simulation time: 0 hr 20 min 55 sec) 
Heartbeat CPU 0 instructions: 530000001 cycles: 1287568446 heartbeat IPC: 0.337674 cumulative IPC: 0.35269 (Simulation time: 0 hr 21 min 21 sec) 
Heartbeat CPU 0 instructions: 540000000 cycles: 1315668664 heartbeat IPC: 0.355869 cumulative IPC: 0.352762 (Simulation time: 0 hr 21 min 47 sec) 
Heartbeat CPU 0 instructions: 550000001 cycles: 1344841626 heartbeat IPC: 0.342783 cumulative IPC: 0.352533 (Simulation time: 0 hr 22 min 15 sec) 
Heartbeat CPU 0 instructions: 560000000 cycles: 1370236106 heartbeat IPC: 0.393786 cumulative IPC: 0.353338 (Simulation time: 0 hr 22 min 41 sec) 
Heartbeat CPU 0 instructions: 570000000 cycles: 1399747392 heartbeat IPC: 0.338853 cumulative IPC: 0.353017 (Simulation time: 0 hr 23 min 7 sec) 
Heartbeat CPU 0 instructions: 580000000 cycles: 1427721590 heartbeat IPC: 0.357472 cumulative IPC: 0.353109 (Simulation time: 0 hr 23 min 34 sec) 
Heartbeat CPU 0 instructions: 590000001 cycles: 1452457347 heartbeat IPC: 0.404273 cumulative IPC: 0.354023 (Simulation time: 0 hr 23 min 58 sec) 
Heartbeat CPU 0 instructions: 600000000 cycles: 1478500146 heartbeat IPC: 0.383983 cumulative IPC: 0.354576 (Simulation time: 0 hr 24 min 24 sec) 
Finished CPU 0 instructions: 500000000 cycles: 1410133062 cumulative IPC: 0.354576 (Simulation time: 0 hr 24 min 24 sec) 

CPU 0 Branch Prediction Accuracy: 86.4311% MPKI: 26.2662
Number of Branches: 96788573 Number of Mispredictions: 13133102
Number of LOAD Instructions: 164682285
Number of LOAD Instructions (ROI): 164682285
Number of STORE Instructions: 78194750
Number of STORE Instructions (ROI): 78194750
Total Destination Memory Operands: 83268534
Total Destination Memory Operands (ROI): 83268534
Total Source Memory Operands: 164712438
Total Source Memory Operands (ROI): 164712438
Number of DEPENDED LOADS: 7057114
Number of DEPENDED LOADS (ROI): 7057114
Number of SQ_ADDED: 83268522
Number of SQ_ADDED (ROI): 83268522
Number of LQ_ADDED: 236687269
Number of LQ_ADDED (ROI): 236687269
Number of Instructions read from trace: 600000066

ChampSim completed all CPUs

Region of Interest Statistics

CPU 0 cumulative IPC: 0.354576 instructions: 500000000 cycles: 1410133062
ITLB TOTAL     ACCESS:  100518548  HIT:  100314102  MISS:     204446
ITLB LOAD      ACCESS:  100518548  HIT:  100314102  MISS:     204446
ITLB RFO       ACCESS:          0  HIT:          0  MISS:          0
ITLB PREFETCH  ACCESS:          0  HIT:          0  MISS:          0
ITLB WRITEBACK ACCESS:          0  HIT:          0  MISS:          0
ITLB PREFETCH  REQUESTED:          0  ISSUED:          0  USEFUL:          0  USELESS:          0
ITLB TOTAL MSHR MERGED:     172424
ITLB LOAD MSHR MERGED:     172424
ITLB RFO MSHR MERGED:          0
ITLB PREFETCH MSHR MERGED:          0
ITLB WRITEBACK MSHR MERGED:          0
ITLB TOTAL ACCESSES:  100690972 HITS:  100314102 MISSES:     376870
ITLB LOAD ACCESSES:  100690972 HITS:  100314102 MISSES:     376870
ITLB RFO ACCESSES:          0 HITS:          0 MISSES:          0
ITLB PREFETCH ACCESSES:          0 HITS:          0 MISSES:          0
ITLB WRITEBACK ACCESSES:          0 HITS:          0 MISSES:          0
ITLB RQ ACCESS:  500000057
ITLB RQ TO_CACHE:  100690972
ITLB RQ MERGED:  399309085
ITLB RQ FORWARD:          0
ITLB WQ ACCESS:          0
ITLB WQ TO_CACHE:          0
ITLB WQ MERGED:          0
ITLB WQ FORWARD:          0
DTLB TOTAL     ACCESS:  165339565  HIT:  164705212  MISS:     634353
DTLB LOAD      ACCESS:  106294193  HIT:  105724271  MISS:     569922
DTLB RFO       ACCESS:   59045372  HIT:   58980941  MISS:      64431
DTLB PREFETCH  ACCESS:          0  HIT:          0  MISS:          0
DTLB WRITEBACK ACCESS:          0  HIT:          0  MISS:          0
DTLB PREFETCH  REQUESTED:          0  ISSUED:          0  USEFUL:          0  USELESS:          0
DTLB TOTAL MSHR MERGED:      99969
DTLB LOAD MSHR MERGED:      59435
DTLB RFO MSHR MERGED:      40534
DTLB PREFETCH MSHR MERGED:          0
DTLB WRITEBACK MSHR MERGED:          0
DTLB TOTAL ACCESSES:  165439534 HITS:  164705212 MISSES:     734322
DTLB LOAD ACCESSES:  106353628 HITS:  105724271 MISSES:     629357
DTLB RFO ACCESSES:   59085906 HITS:   58980941 MISSES:     104965
DTLB PREFETCH ACCESSES:          0 HITS:          0 MISSES:          0
DTLB WRITEBACK ACCESSES:          0 HITS:          0 MISSES:          0
DTLB RQ ACCESS:  200313761
DTLB RQ TO_CACHE:  165439534
DTLB RQ MERGED:   34874227
DTLB RQ FORWARD:          0
DTLB WQ ACCESS:          0
DTLB WQ TO_CACHE:          0
DTLB WQ MERGED:          0
DTLB WQ FORWARD:          0
L1D TOTAL     ACCESS:  281863055  HIT:  273953662  MISS:    7909393
L1D LOAD      ACCESS:  110423326  HIT:  107146404  MISS:    3276922
L1D RFO       ACCESS:   67130751  HIT:   66240662  MISS:     890089
L1D PREFETCH  ACCESS:  104308978  HIT:  100566596  MISS:    3742382
L1D WRITEBACK ACCESS:          0  HIT:          0  MISS:          0
L1D PREFETCH  REQUESTED:  110819710  ISSUED:  109120410  USEFUL:    1662990  USELESS:    2079356
L1D TOTAL MSHR MERGED:    2846256
L1D LOAD MSHR MERGED:     492747
L1D RFO MSHR MERGED:    1854763
L1D PREFETCH MSHR MERGED:     498746
L1D WRITEBACK MSHR MERGED:          0
L1D TOTAL ACCESSES:  284736724 HITS:  273981075 MISSES:   10755649
L1D LOAD ACCESSES:  110821116 HITS:  107147810 MISSES:    3673306
L1D RFO ACCESSES:   68974222 HITS:   66240662 MISSES:    2733560
L1D PREFETCH ACCESSES:  104941386 HITS:  100592603 MISSES:    4348783
L1D WRITEBACK ACCESSES:          0 HITS:          0 MISSES:          0
L1D RQ ACCESS:  130761158
L1D RQ TO_CACHE:  110819713
L1D RQ MERGED:   19940039
L1D RQ FORWARD:          0
L1D WQ ACCESS:   69552603
L1D WQ TO_CACHE:   68974223
L1D WQ MERGED:     578380
L1D WQ FORWARD:      27413
L1I TOTAL     ACCESS:  126565654  HIT:  122327101  MISS:    4238553
L1I LOAD      ACCESS:  126565654  HIT:  122327101  MISS:    4238553
L1I RFO       ACCESS:          0  HIT:          0  MISS:          0
L1I PREFETCH  ACCESS:          0  HIT:          0  MISS:          0
L1I WRITEBACK ACCESS:          0  HIT:          0  MISS:          0
L1I PREFETCH  REQUESTED:          0  ISSUED:          0  USEFUL:          0  USELESS:          0
L1I TOTAL MSHR MERGED:    1834800
L1I LOAD MSHR MERGED:    1834800
L1I RFO MSHR MERGED:          0
L1I PREFETCH MSHR MERGED:          0
L1I WRITEBACK MSHR MERGED:          0
L1I TOTAL ACCESSES:  128400457 HITS:  122327101 MISSES:    6073356
L1I LOAD ACCESSES:  128400457 HITS:  122327101 MISSES:    6073356
L1I RFO ACCESSES:          0 HITS:          0 MISSES:          0
L1I PREFETCH ACCESSES:          0 HITS:          0 MISSES:          0
L1I WRITEBACK ACCESSES:          0 HITS:          0 MISSES:          0
L1I RQ ACCESS:  500000057
L1I RQ TO_CACHE:  128400457
L1I RQ MERGED:  371599600
L1I RQ FORWARD:          0
L1I WQ ACCESS:          0
L1I WQ TO_CACHE:          0
L1I WQ MERGED:          0
L1I WQ FORWARD:          0
L2C TOTAL     ACCESS:   14905631  HIT:   11159238  MISS:    3746393
L2C LOAD      ACCESS:    7418902  HIT:    5099000  MISS:    2319902
L2C RFO       ACCESS:     878699  HIT:     409914  MISS:     468785
L2C PREFETCH  ACCESS:    4568773  HIT:    3628322  MISS:     940451
L2C WRITEBACK ACCESS:    2039257  HIT:    2022002  MISS:      17255
L2C PREFETCH  REQUESTED:     842809  ISSUED:     842809  USEFUL:     203447  USELESS:     736710
L2C TOTAL MSHR MERGED:       6758
L2C LOAD MSHR MERGED:        728
L2C RFO MSHR MERGED:          0
L2C PREFETCH MSHR MERGED:       6030
L2C WRITEBACK MSHR MERGED:          0
L2C TOTAL ACCESSES:   14913276 HITS:   11159690 MISSES:    3753586
L2C LOAD ACCESSES:    7419112 HITS:    5099210 MISSES:    2319902
L2C RFO ACCESSES:     878797 HITS:     410012 MISSES:     468785
L2C PREFETCH ACCESSES:    4576110 HITS:    3628466 MISSES:     947644
L2C WRITEBACK ACCESSES:    2039257 HITS:    2022002 MISSES:      17255
L2C RQ ACCESS:    8297912
L2C RQ TO_CACHE:    8297604
L2C RQ MERGED:          0
L2C RQ FORWARD:          0
L2C WQ ACCESS:    2039257
L2C WQ TO_CACHE:    2039257
L2C WQ MERGED:          0
L2C WQ FORWARD:        452
LLC TOTAL     ACCESS:    4609684  HIT:    4024898  MISS:     584786
LLC LOAD      ACCESS:    2319158  HIT:    2059038  MISS:     260120
LLC RFO       ACCESS:     468774  HIT:     423548  MISS:      45226
LLC PREFETCH  ACCESS:     941497  HIT:     685245  MISS:     256252
LLC WRITEBACK ACCESS:     880255  HIT:     857067  MISS:      23188
LLC PREFETCH  REQUESTED:          0  ISSUED:          0  USEFUL:      14140  USELESS:     242281
LLC TOTAL MSHR MERGED:         92
LLC LOAD MSHR MERGED:         26
LLC RFO MSHR MERGED:          0
LLC PREFETCH MSHR MERGED:         66
LLC WRITEBACK MSHR MERGED:          0
LLC TOTAL ACCESSES:    4609816 HITS:    4024938 MISSES:     584878
LLC LOAD ACCESSES:    2319174 HITS:    2059054 MISSES:     260120
LLC RFO ACCESSES:     468785 HITS:     423559 MISSES:      45226
LLC PREFETCH ACCESSES:     941602 HITS:     685258 MISSES:     256344
LLC WRITEBACK ACCESSES:     880255 HITS:     857067 MISSES:      23188
LLC 0 RQ ACCESS:    2787959
LLC 0 RQ TO_CACHE:    2787932
LLC 0 RQ MERGED:          0
LLC 0 RQ FORWARD:          0
LLC WQ ACCESS:     880255
LLC WQ TO_CACHE:     880255
LLC WQ MERGED:          0
LLC WQ FORWARD:         40
Major fault: 0 Minor fault: 12862
CPU 0 L1D next line prefetcher final stats
CPU 0 L2C PC-based stride prefetcher final stats
All Misses: 699127
All Hits: 4727563
SD Algo Stats - Switches: 0 SRR-Repls: 308397 BRR-Repls: 0

DRAM Statistics
 CHANNEL 0
 RQ ROW_BUFFER_HIT:     117453  ROW_BUFFER_MISS:     443739
 DBUS_CONGESTED:     303897
 WQ ROW_BUFFER_HIT:       9342  ROW_BUFFER_MISS:     138522  FULL:          0

 AVG_CONGESTED_CYCLE: 13
LOADS RETIRED: 136549171
INSTR RETIRED: 500000000
