
*** ChampSim Multicore Out-of-Order Simulator ***

Warmup Instructions: 100000000
Simulation Instructions: 500000000
Number of CPUs: 1
LLC sets: 2048
LLC ways: 16
Clean RRIP Policies: 2203200222032002 Dirty RRIP Policies: 1203100212031002 PSEL Width: 10 Track Set: 4294967295 PSEL Mask: 1 Demote Mask: 1040100010401000DS Algo: 0Window size: 0
Off-chip DRAM Size: 4096 MB Channels: 1 Width: 64-bit Data Rate: 1600 MT/s

CPU 0 runs /mnt/beegfs/iconst01/spec2017/Xz.trace.gz
NOT SORTED
TRACE STRING: /mnt/beegfs/iconst01/spec2017/Xz.trace.gz
SORTED
TRACE STRING: /mnt/beegfs/iconst01/spec2017/Xz.trace.gz
INITIAL
TRACE STRING: /mnt/beegfs/iconst01/spec2017/Xz.trace.gz

champsim_seed used: 210

CPU 0 L1D next line prefetcher
CPU 0 L2C IP-based stride prefetcher
Initialize DRRIP state
Assign rand_sets[0]: 454  LLC: 2048
rand_sets[0]: 454
Assign rand_sets[1]: 1662  LLC: 2048
rand_sets[1]: 1662
Assign rand_sets[2]: 1921  LLC: 2048
rand_sets[2]: 1921
Assign rand_sets[3]: 1131  LLC: 2048
rand_sets[3]: 1131
Assign rand_sets[4]: 331  LLC: 2048
rand_sets[4]: 331
Assign rand_sets[5]: 1531  LLC: 2048
rand_sets[5]: 1531
Assign rand_sets[6]: 482  LLC: 2048
rand_sets[6]: 482
Assign rand_sets[7]: 1275  LLC: 2048
rand_sets[7]: 1275
Assign rand_sets[8]: 1876  LLC: 2048
rand_sets[8]: 1876
Assign rand_sets[9]: 2038  LLC: 2048
rand_sets[9]: 2038
Assign rand_sets[10]: 701  LLC: 2048
rand_sets[10]: 701
Assign rand_sets[11]: 479  LLC: 2048
rand_sets[11]: 479
Assign rand_sets[12]: 892  LLC: 2048
rand_sets[12]: 892
Assign rand_sets[13]: 1820  LLC: 2048
rand_sets[13]: 1820
Assign rand_sets[14]: 1505  LLC: 2048
rand_sets[14]: 1505
Assign rand_sets[15]: 1159  LLC: 2048
rand_sets[15]: 1159
Assign rand_sets[16]: 513  LLC: 2048
rand_sets[16]: 513
Assign rand_sets[17]: 703  LLC: 2048
rand_sets[17]: 703
Assign rand_sets[18]: 561  LLC: 2048
rand_sets[18]: 561
Assign rand_sets[19]: 990  LLC: 2048
rand_sets[19]: 990
Assign rand_sets[20]: 342  LLC: 2048
rand_sets[20]: 342
Assign rand_sets[21]: 882  LLC: 2048
rand_sets[21]: 882
Assign rand_sets[22]: 15  LLC: 2048
rand_sets[22]: 15
Assign rand_sets[23]: 71  LLC: 2048
rand_sets[23]: 71
Assign rand_sets[24]: 1127  LLC: 2048
rand_sets[24]: 1127
Assign rand_sets[25]: 1382  LLC: 2048
rand_sets[25]: 1382
Assign rand_sets[26]: 647  LLC: 2048
rand_sets[26]: 647
Assign rand_sets[27]: 857  LLC: 2048
rand_sets[27]: 857
Assign rand_sets[28]: 1450  LLC: 2048
rand_sets[28]: 1450
Assign rand_sets[29]: 1160  LLC: 2048
rand_sets[29]: 1160
Assign rand_sets[30]: 1852  LLC: 2048
rand_sets[30]: 1852
Assign rand_sets[31]: 1881  LLC: 2048
rand_sets[31]: 1881
Assign rand_sets[32]: 1770  LLC: 2048
rand_sets[32]: 1770
Assign rand_sets[33]: 1622  LLC: 2048
rand_sets[33]: 1622
Assign rand_sets[34]: 275  LLC: 2048
rand_sets[34]: 275
Assign rand_sets[35]: 635  LLC: 2048
rand_sets[35]: 635
Assign rand_sets[36]: 466  LLC: 2048
rand_sets[36]: 466
Assign rand_sets[37]: 1413  LLC: 2048
rand_sets[37]: 1413
Assign rand_sets[38]: 417  LLC: 2048
rand_sets[38]: 417
Assign rand_sets[39]: 472  LLC: 2048
rand_sets[39]: 472
Assign rand_sets[40]: 1340  LLC: 2048
rand_sets[40]: 1340
Assign rand_sets[41]: 852  LLC: 2048
rand_sets[41]: 852
Assign rand_sets[42]: 1365  LLC: 2048
rand_sets[42]: 1365
Assign rand_sets[43]: 47  LLC: 2048
rand_sets[43]: 47
Assign rand_sets[44]: 823  LLC: 2048
rand_sets[44]: 823
Assign rand_sets[45]: 686  LLC: 2048
rand_sets[45]: 686
Assign rand_sets[46]: 1637  LLC: 2048
rand_sets[46]: 1637
Assign rand_sets[47]: 1115  LLC: 2048
rand_sets[47]: 1115
Assign rand_sets[48]: 986  LLC: 2048
rand_sets[48]: 986
Assign rand_sets[49]: 258  LLC: 2048
rand_sets[49]: 258
Assign rand_sets[50]: 633  LLC: 2048
rand_sets[50]: 633
Assign rand_sets[51]: 920  LLC: 2048
rand_sets[51]: 920
Assign rand_sets[52]: 204  LLC: 2048
rand_sets[52]: 204
Assign rand_sets[53]: 227  LLC: 2048
rand_sets[53]: 227
Assign rand_sets[54]: 1818  LLC: 2048
rand_sets[54]: 1818
Assign rand_sets[55]: 886  LLC: 2048
rand_sets[55]: 886
Assign rand_sets[56]: 1422  LLC: 2048
rand_sets[56]: 1422
Assign rand_sets[57]: 607  LLC: 2048
rand_sets[57]: 607
Assign rand_sets[58]: 217  LLC: 2048
rand_sets[58]: 217
Assign rand_sets[59]: 1945  LLC: 2048
rand_sets[59]: 1945
Assign rand_sets[60]: 143  LLC: 2048
rand_sets[60]: 143
Assign rand_sets[61]: 1311  LLC: 2048
rand_sets[61]: 1311
Assign rand_sets[62]: 319  LLC: 2048
rand_sets[62]: 319
Assign rand_sets[63]: 1846  LLC: 2048
rand_sets[63]: 1846
 CLEAN-RRIP-POLICY-1: 2-2-0-3-2-0-0-2- CLEAN-RRIP-POLICY-2: 2-2-0-3-2-0-0-2-
 DIRTY-RRIP-POLICY-1: 1-2-0-3-1-0-0-2- DIRTY-RRIP-POLICY-2: 1-2-0-3-1-0-0-2-
 PSEL width: 10
Heartbeat CPU 0 instructions: 10000000 cycles: 4305270 heartbeat IPC: 2.32273 cumulative IPC: 2.32273 (Simulation time: 0 hr 0 min 11 sec) 
Heartbeat CPU 0 instructions: 20000000 cycles: 8617099 heartbeat IPC: 2.3192 cumulative IPC: 2.32097 (Simulation time: 0 hr 0 min 23 sec) 
Heartbeat CPU 0 instructions: 30000003 cycles: 13160973 heartbeat IPC: 2.20077 cumulative IPC: 2.27947 (Simulation time: 0 hr 0 min 35 sec) 
Heartbeat CPU 0 instructions: 40000000 cycles: 17515454 heartbeat IPC: 2.29648 cumulative IPC: 2.2837 (Simulation time: 0 hr 0 min 47 sec) 
Heartbeat CPU 0 instructions: 50000001 cycles: 21878225 heartbeat IPC: 2.29212 cumulative IPC: 2.28538 (Simulation time: 0 hr 0 min 59 sec) 
Heartbeat CPU 0 instructions: 60000000 cycles: 26178377 heartbeat IPC: 2.3255 cumulative IPC: 2.29197 (Simulation time: 0 hr 1 min 10 sec) 
Heartbeat CPU 0 instructions: 70000001 cycles: 30244242 heartbeat IPC: 2.4595 cumulative IPC: 2.31449 (Simulation time: 0 hr 1 min 21 sec) 
Heartbeat CPU 0 instructions: 80000000 cycles: 34522983 heartbeat IPC: 2.33714 cumulative IPC: 2.3173 (Simulation time: 0 hr 1 min 32 sec) 
Heartbeat CPU 0 instructions: 90000001 cycles: 38739572 heartbeat IPC: 2.37159 cumulative IPC: 2.32321 (Simulation time: 0 hr 1 min 44 sec) 
Heartbeat CPU 0 instructions: 100000000 cycles: 42979928 heartbeat IPC: 2.35829 cumulative IPC: 2.32667 (Simulation time: 0 hr 1 min 55 sec) 

Warmup complete CPU 0 instructions: 100000001 cycles: 42979929 (Simulation time: 0 hr 1 min 55 sec) 

Heartbeat CPU 0 instructions: 110000000 cycles: 53085560 heartbeat IPC: 0.989547 cumulative IPC: 0.989547 (Simulation time: 0 hr 2 min 12 sec) 
Heartbeat CPU 0 instructions: 120000000 cycles: 63687819 heartbeat IPC: 0.943195 cumulative IPC: 0.965815 (Simulation time: 0 hr 2 min 29 sec) 
Heartbeat CPU 0 instructions: 130000001 cycles: 74252378 heartbeat IPC: 0.946561 cumulative IPC: 0.959311 (Simulation time: 0 hr 2 min 46 sec) 
Heartbeat CPU 0 instructions: 140000000 cycles: 83926458 heartbeat IPC: 1.03369 cumulative IPC: 0.976884 (Simulation time: 0 hr 3 min 2 sec) 
Heartbeat CPU 0 instructions: 150000001 cycles: 94210893 heartbeat IPC: 0.972343 cumulative IPC: 0.975972 (Simulation time: 0 hr 3 min 19 sec) 
Heartbeat CPU 0 instructions: 160000000 cycles: 104238076 heartbeat IPC: 0.997289 cumulative IPC: 0.979462 (Simulation time: 0 hr 3 min 36 sec) 
Heartbeat CPU 0 instructions: 170000000 cycles: 113882331 heartbeat IPC: 1.03689 cumulative IPC: 0.987273 (Simulation time: 0 hr 3 min 52 sec) 
Heartbeat CPU 0 instructions: 180000000 cycles: 124399653 heartbeat IPC: 0.950812 cumulative IPC: 0.982563 (Simulation time: 0 hr 4 min 9 sec) 
Heartbeat CPU 0 instructions: 190000001 cycles: 134629637 heartbeat IPC: 0.977519 cumulative IPC: 0.982 (Simulation time: 0 hr 4 min 26 sec) 
Heartbeat CPU 0 instructions: 200000000 cycles: 145172893 heartbeat IPC: 0.948474 cumulative IPC: 0.978541 (Simulation time: 0 hr 4 min 43 sec) 
Heartbeat CPU 0 instructions: 210000002 cycles: 157593860 heartbeat IPC: 0.80509 cumulative IPC: 0.959744 (Simulation time: 0 hr 5 min 1 sec) 
Heartbeat CPU 0 instructions: 220000000 cycles: 170086845 heartbeat IPC: 0.800449 cumulative IPC: 0.944087 (Simulation time: 0 hr 5 min 20 sec) 
Heartbeat CPU 0 instructions: 230000000 cycles: 182214865 heartbeat IPC: 0.824537 cumulative IPC: 0.933674 (Simulation time: 0 hr 5 min 38 sec) 
Heartbeat CPU 0 instructions: 240000000 cycles: 194292671 heartbeat IPC: 0.827965 cumulative IPC: 0.925236 (Simulation time: 0 hr 5 min 56 sec) 
Heartbeat CPU 0 instructions: 250000000 cycles: 206216306 heartbeat IPC: 0.83867 cumulative IPC: 0.918913 (Simulation time: 0 hr 6 min 14 sec) 
Heartbeat CPU 0 instructions: 260000000 cycles: 217721845 heartbeat IPC: 0.869147 cumulative IPC: 0.915636 (Simulation time: 0 hr 6 min 31 sec) 
Heartbeat CPU 0 instructions: 270000003 cycles: 229535882 heartbeat IPC: 0.846451 cumulative IPC: 0.911255 (Simulation time: 0 hr 6 min 49 sec) 
Heartbeat CPU 0 instructions: 280000000 cycles: 241030261 heartbeat IPC: 0.86999 cumulative IPC: 0.90886 (Simulation time: 0 hr 7 min 7 sec) 
Heartbeat CPU 0 instructions: 290000002 cycles: 252489636 heartbeat IPC: 0.872648 cumulative IPC: 0.906879 (Simulation time: 0 hr 7 min 25 sec) 
Heartbeat CPU 0 instructions: 300000000 cycles: 264880827 heartbeat IPC: 0.807025 cumulative IPC: 0.901303 (Simulation time: 0 hr 7 min 43 sec) 
Heartbeat CPU 0 instructions: 310000000 cycles: 276974227 heartbeat IPC: 0.826897 cumulative IPC: 0.897458 (Simulation time: 0 hr 8 min 1 sec) 
Heartbeat CPU 0 instructions: 320000000 cycles: 289562646 heartbeat IPC: 0.794381 cumulative IPC: 0.892196 (Simulation time: 0 hr 8 min 19 sec) 
Heartbeat CPU 0 instructions: 330000003 cycles: 301446396 heartbeat IPC: 0.841486 cumulative IPC: 0.889864 (Simulation time: 0 hr 8 min 36 sec) 
Heartbeat CPU 0 instructions: 340000000 cycles: 313490195 heartbeat IPC: 0.830303 cumulative IPC: 0.887212 (Simulation time: 0 hr 8 min 54 sec) 
Heartbeat CPU 0 instructions: 350000001 cycles: 324450757 heartbeat IPC: 0.912362 cumulative IPC: 0.888192 (Simulation time: 0 hr 9 min 11 sec) 
Heartbeat CPU 0 instructions: 360000000 cycles: 336178983 heartbeat IPC: 0.852644 cumulative IPC: 0.88677 (Simulation time: 0 hr 9 min 29 sec) 
Heartbeat CPU 0 instructions: 370000001 cycles: 347570455 heartbeat IPC: 0.87785 cumulative IPC: 0.886436 (Simulation time: 0 hr 9 min 46 sec) 
Heartbeat CPU 0 instructions: 380000000 cycles: 358553730 heartbeat IPC: 0.910475 cumulative IPC: 0.887273 (Simulation time: 0 hr 10 min 3 sec) 
Heartbeat CPU 0 instructions: 390000003 cycles: 369146178 heartbeat IPC: 0.944069 cumulative IPC: 0.889117 (Simulation time: 0 hr 10 min 20 sec) 
Heartbeat CPU 0 instructions: 400000000 cycles: 379346067 heartbeat IPC: 0.980403 cumulative IPC: 0.891885 (Simulation time: 0 hr 10 min 37 sec) 
Heartbeat CPU 0 instructions: 410000000 cycles: 389842516 heartbeat IPC: 0.952703 cumulative IPC: 0.893726 (Simulation time: 0 hr 10 min 54 sec) 
Heartbeat CPU 0 instructions: 420000000 cycles: 399221520 heartbeat IPC: 1.06621 cumulative IPC: 0.898267 (Simulation time: 0 hr 11 min 11 sec) 
Heartbeat CPU 0 instructions: 430000002 cycles: 408310134 heartbeat IPC: 1.10028 cumulative IPC: 0.903292 (Simulation time: 0 hr 11 min 27 sec) 
Heartbeat CPU 0 instructions: 440000000 cycles: 418546097 heartbeat IPC: 0.976947 cumulative IPC: 0.9053 (Simulation time: 0 hr 11 min 44 sec) 
Heartbeat CPU 0 instructions: 450000002 cycles: 429585291 heartbeat IPC: 0.905863 cumulative IPC: 0.905316 (Simulation time: 0 hr 12 min 2 sec) 
Heartbeat CPU 0 instructions: 460000000 cycles: 441101043 heartbeat IPC: 0.868376 cumulative IPC: 0.904247 (Simulation time: 0 hr 12 min 19 sec) 
Heartbeat CPU 0 instructions: 470000003 cycles: 451280067 heartbeat IPC: 0.982413 cumulative IPC: 0.906196 (Simulation time: 0 hr 12 min 36 sec) 
Heartbeat CPU 0 instructions: 480000000 cycles: 461791393 heartbeat IPC: 0.951354 cumulative IPC: 0.907329 (Simulation time: 0 hr 12 min 53 sec) 
Heartbeat CPU 0 instructions: 490000000 cycles: 471737916 heartbeat IPC: 1.00538 cumulative IPC: 0.909604 (Simulation time: 0 hr 13 min 10 sec) 
Heartbeat CPU 0 instructions: 500000000 cycles: 483480880 heartbeat IPC: 0.851574 cumulative IPC: 0.908057 (Simulation time: 0 hr 13 min 27 sec) 
Heartbeat CPU 0 instructions: 510000002 cycles: 495865951 heartbeat IPC: 0.807424 cumulative IPC: 0.905305 (Simulation time: 0 hr 13 min 45 sec) 
Heartbeat CPU 0 instructions: 520000000 cycles: 507714603 heartbeat IPC: 0.843978 cumulative IPC: 0.903741 (Simulation time: 0 hr 14 min 3 sec) 
Heartbeat CPU 0 instructions: 530000001 cycles: 519526592 heartbeat IPC: 0.846598 cumulative IPC: 0.902325 (Simulation time: 0 hr 14 min 20 sec) 
Heartbeat CPU 0 instructions: 540000000 cycles: 531087634 heartbeat IPC: 0.864974 cumulative IPC: 0.90144 (Simulation time: 0 hr 14 min 38 sec) 
Heartbeat CPU 0 instructions: 550000001 cycles: 542432927 heartbeat IPC: 0.881423 cumulative IPC: 0.900986 (Simulation time: 0 hr 14 min 55 sec) 
Heartbeat CPU 0 instructions: 560000000 cycles: 553937623 heartbeat IPC: 0.86921 cumulative IPC: 0.90027 (Simulation time: 0 hr 15 min 12 sec) 
Heartbeat CPU 0 instructions: 570000000 cycles: 565305847 heartbeat IPC: 0.879645 cumulative IPC: 0.899821 (Simulation time: 0 hr 15 min 30 sec) 
Heartbeat CPU 0 instructions: 580000000 cycles: 576040047 heartbeat IPC: 0.931602 cumulative IPC: 0.900461 (Simulation time: 0 hr 15 min 47 sec) 
Heartbeat CPU 0 instructions: 590000003 cycles: 587392342 heartbeat IPC: 0.880879 cumulative IPC: 0.900053 (Simulation time: 0 hr 16 min 4 sec) 
Heartbeat CPU 0 instructions: 600000000 cycles: 597943818 heartbeat IPC: 0.947734 cumulative IPC: 0.900959 (Simulation time: 0 hr 16 min 21 sec) 
Finished CPU 0 instructions: 500000001 cycles: 554963897 cumulative IPC: 0.900959 (Simulation time: 0 hr 16 min 21 sec) 

CPU 0 Branch Prediction Accuracy: 93.0095% MPKI: 10.0046
Number of Branches: 71558147 Number of Mispredictions: 5002285
Number of LOAD Instructions: 145708893
Number of LOAD Instructions (ROI): 145708893
Number of STORE Instructions: 40463820
Number of STORE Instructions (ROI): 40463820
Total Destination Memory Operands: 45240498
Total Destination Memory Operands (ROI): 45240498
Total Source Memory Operands: 145708893
Total Source Memory Operands (ROI): 145708893
Number of DEPENDED LOADS: 10671331
Number of DEPENDED LOADS (ROI): 10671331
Number of SQ_ADDED: 45240498
Number of SQ_ADDED (ROI): 45240498
Number of LQ_ADDED: 193318659
Number of LQ_ADDED (ROI): 193318659
Number of Instructions read from trace: 600000002

ChampSim completed all CPUs

Region of Interest Statistics

CPU 0 cumulative IPC: 0.900959 instructions: 500000001 cycles: 554963897
ITLB TOTAL     ACCESS:   77992593  HIT:   77992592  MISS:          1
ITLB LOAD      ACCESS:   77992593  HIT:   77992592  MISS:          1
ITLB RFO       ACCESS:          0  HIT:          0  MISS:          0
ITLB PREFETCH  ACCESS:          0  HIT:          0  MISS:          0
ITLB WRITEBACK ACCESS:          0  HIT:          0  MISS:          0
ITLB PREFETCH  REQUESTED:          0  ISSUED:          0  USEFUL:          0  USELESS:          0
ITLB TOTAL MSHR MERGED:          0
ITLB LOAD MSHR MERGED:          0
ITLB RFO MSHR MERGED:          0
ITLB PREFETCH MSHR MERGED:          0
ITLB WRITEBACK MSHR MERGED:          0
ITLB TOTAL ACCESSES:   77992593 HITS:   77992592 MISSES:          1
ITLB LOAD ACCESSES:   77992593 HITS:   77992592 MISSES:          1
ITLB RFO ACCESSES:          0 HITS:          0 MISSES:          0
ITLB PREFETCH ACCESSES:          0 HITS:          0 MISSES:          0
ITLB WRITEBACK ACCESSES:          0 HITS:          0 MISSES:          0
ITLB RQ ACCESS:  499999995
ITLB RQ TO_CACHE:   77992593
ITLB RQ MERGED:  422007402
ITLB RQ FORWARD:          0
ITLB WQ ACCESS:          0
ITLB WQ TO_CACHE:          0
ITLB WQ MERGED:          0
ITLB WQ FORWARD:          0
DTLB TOTAL     ACCESS:   98669729  HIT:   97788393  MISS:     881336
DTLB LOAD      ACCESS:   70889770  HIT:   70028237  MISS:     861533
DTLB RFO       ACCESS:   27779959  HIT:   27760156  MISS:      19803
DTLB PREFETCH  ACCESS:          0  HIT:          0  MISS:          0
DTLB WRITEBACK ACCESS:          0  HIT:          0  MISS:          0
DTLB PREFETCH  REQUESTED:          0  ISSUED:          0  USEFUL:          0  USELESS:          0
DTLB TOTAL MSHR MERGED:      87412
DTLB LOAD MSHR MERGED:      65671
DTLB RFO MSHR MERGED:      21741
DTLB PREFETCH MSHR MERGED:          0
DTLB WRITEBACK MSHR MERGED:          0
DTLB TOTAL ACCESSES:   98757141 HITS:   97788393 MISSES:     968748
DTLB LOAD ACCESSES:   70955441 HITS:   70028237 MISSES:     927204
DTLB RFO ACCESSES:   27801700 HITS:   27760156 MISSES:      41544
DTLB PREFETCH ACCESSES:          0 HITS:          0 MISSES:          0
DTLB WRITEBACK ACCESSES:          0 HITS:          0 MISSES:          0
DTLB RQ ACCESS:  150273722
DTLB RQ TO_CACHE:   98757141
DTLB RQ MERGED:   51516581
DTLB RQ FORWARD:          0
DTLB WQ ACCESS:          0
DTLB WQ TO_CACHE:          0
DTLB WQ MERGED:          0
DTLB WQ FORWARD:          0
L1D TOTAL     ACCESS:  173331795  HIT:  169163157  MISS:    4168638
L1D LOAD      ACCESS:   75282114  HIT:   73400808  MISS:    1881306
L1D RFO       ACCESS:   36778564  HIT:   36571967  MISS:     206597
L1D PREFETCH  ACCESS:   61271117  HIT:   59190382  MISS:    2080735
L1D WRITEBACK ACCESS:          0  HIT:          0  MISS:          0
L1D PREFETCH  REQUESTED:   75385243  ISSUED:   74821065  USEFUL:     415174  USELESS:    1665550
L1D TOTAL MSHR MERGED:     371640
L1D LOAD MSHR MERGED:     111864
L1D RFO MSHR MERGED:     132881
L1D PREFETCH MSHR MERGED:     126895
L1D WRITEBACK MSHR MERGED:          0
L1D TOTAL ACCESSES:  173855043 HITS:  169314765 MISSES:    4540278
L1D LOAD ACCESSES:   75388230 HITS:   73403795 MISSES:    1984435
L1D RFO ACCESSES:   36910058 HITS:   36571967 MISSES:     338091
L1D PREFETCH ACCESSES:   61556755 HITS:   59339003 MISSES:    2217752
L1D WRITEBACK ACCESSES:          0 HITS:          0 MISSES:          0
L1D RQ ACCESS:  112611319
L1D RQ TO_CACHE:   75385243
L1D RQ MERGED:   37223089
L1D RQ FORWARD:          0
L1D WQ ACCESS:   37662403
L1D WQ TO_CACHE:   36910058
L1D WQ MERGED:     752345
L1D WQ FORWARD:     151608
L1I TOTAL     ACCESS:  100700521  HIT:  100700496  MISS:         25
L1I LOAD      ACCESS:  100700521  HIT:  100700496  MISS:         25
L1I RFO       ACCESS:          0  HIT:          0  MISS:          0
L1I PREFETCH  ACCESS:          0  HIT:          0  MISS:          0
L1I WRITEBACK ACCESS:          0  HIT:          0  MISS:          0
L1I PREFETCH  REQUESTED:          0  ISSUED:          0  USEFUL:          0  USELESS:          0
L1I TOTAL MSHR MERGED:         10
L1I LOAD MSHR MERGED:         10
L1I RFO MSHR MERGED:          0
L1I PREFETCH MSHR MERGED:          0
L1I WRITEBACK MSHR MERGED:          0
L1I TOTAL ACCESSES:  100700531 HITS:  100700496 MISSES:         35
L1I LOAD ACCESSES:  100700531 HITS:  100700496 MISSES:         35
L1I RFO ACCESSES:          0 HITS:          0 MISSES:          0
L1I PREFETCH ACCESSES:          0 HITS:          0 MISSES:          0
L1I WRITEBACK ACCESSES:          0 HITS:          0 MISSES:          0
L1I RQ ACCESS:  499999995
L1I RQ TO_CACHE:  100700531
L1I RQ MERGED:  399299464
L1I RQ FORWARD:          0
L1I WQ ACCESS:          0
L1I WQ TO_CACHE:          0
L1I WQ MERGED:          0
L1I WQ FORWARD:          0
L2C TOTAL     ACCESS:    5852632  HIT:    4009445  MISS:    1843187
L2C LOAD      ACCESS:    1872471  HIT:    1061527  MISS:     810944
L2C RFO       ACCESS:     205204  HIT:     100565  MISS:     104639
L2C PREFETCH  ACCESS:    2169322  HIT:    1246138  MISS:     923184
L2C WRITEBACK ACCESS:    1605635  HIT:    1601215  MISS:       4420
L2C PREFETCH  REQUESTED:      91712  ISSUED:      91712  USEFUL:      86468  USELESS:     836739
L2C TOTAL MSHR MERGED:        984
L2C LOAD MSHR MERGED:        246
L2C RFO MSHR MERGED:          0
L2C PREFETCH MSHR MERGED:        738
L2C WRITEBACK MSHR MERGED:          0
L2C TOTAL ACCESSES:    5853943 HITS:    4009613 MISSES:    1844330
L2C LOAD ACCESSES:    1872596 HITS:    1061652 MISSES:     810944
L2C RFO ACCESSES:     205210 HITS:     100571 MISSES:     104639
L2C PREFETCH ACCESSES:    2170502 HITS:    1246175 MISSES:     924327
L2C WRITEBACK ACCESSES:    1605635 HITS:    1601215 MISSES:       4420
L2C RQ ACCESS:    2077806
L2C RQ TO_CACHE:    2077675
L2C RQ MERGED:          0
L2C RQ FORWARD:          0
L2C WQ ACCESS:    1605635
L2C WQ TO_CACHE:    1605635
L2C WQ MERGED:          0
L2C WQ FORWARD:        168
LLC TOTAL     ACCESS:    2673570  HIT:    2236959  MISS:     436611
LLC LOAD      ACCESS:     810689  HIT:     648327  MISS:     162362
LLC RFO       ACCESS:     104639  HIT:      60693  MISS:      43946
LLC PREFETCH  ACCESS:     923569  HIT:     701315  MISS:     222254
LLC WRITEBACK ACCESS:     834673  HIT:     826624  MISS:       8049
LLC PREFETCH  REQUESTED:          0  ISSUED:          0  USEFUL:       7601  USELESS:     214732
LLC TOTAL MSHR MERGED:          9
LLC LOAD MSHR MERGED:          2
LLC RFO MSHR MERGED:          0
LLC PREFETCH MSHR MERGED:          7
LLC WRITEBACK MSHR MERGED:          0
LLC TOTAL ACCESSES:    2673591 HITS:    2236971 MISSES:     436620
LLC LOAD ACCESSES:     810698 HITS:     648336 MISSES:     162362
LLC RFO ACCESSES:     104639 HITS:      60693 MISSES:      43946
LLC PREFETCH ACCESSES:     923581 HITS:     701318 MISSES:     222263
LLC WRITEBACK ACCESSES:     834673 HITS:     826624 MISSES:       8049
LLC 0 RQ ACCESS:     915337
LLC 0 RQ TO_CACHE:     915328
LLC 0 RQ MERGED:          0
LLC 0 RQ FORWARD:          0
LLC WQ ACCESS:     834673
LLC WQ TO_CACHE:     834673
LLC WQ MERGED:          0
LLC WQ FORWARD:         12
Major fault: 0 Minor fault: 11278
CPU 0 L1D next line prefetcher final stats
CPU 0 L2C PC-based stride prefetcher final stats
All Misses: 541473
All Hits: 2513115
SD Algo Stats - Switches: 0 SRR-Repls: 194577 BRR-Repls: 0

DRAM Statistics
 CHANNEL 0
 RQ ROW_BUFFER_HIT:      28173  ROW_BUFFER_MISS:     400089
 DBUS_CONGESTED:     334178
 WQ ROW_BUFFER_HIT:      12722  ROW_BUFFER_MISS:     195160  FULL:          0

 AVG_CONGESTED_CYCLE: 13
LOADS RETIRED: 121769268
INSTR RETIRED: 500000000
