
*** ChampSim Multicore Out-of-Order Simulator ***

Warmup Instructions: 100000000
Simulation Instructions: 500000000
Number of CPUs: 1
LLC sets: 2048
LLC ways: 16
Clean RRIP Policies: 2213230222132302 Dirty RRIP Policies: 2203130222031302 PSEL Width: 10 Track Set: 4294967295 PSEL Mask: 1 Demote Mask: 3040200030402000DS Algo: 0Window size: 0
Off-chip DRAM Size: 4096 MB Channels: 1 Width: 64-bit Data Rate: 1600 MT/s

CPU 0 runs /mnt/beegfs/iconst01/spec2017/Xz.trace.gz
NOT SORTED
TRACE STRING: /mnt/beegfs/iconst01/spec2017/Xz.trace.gz
SORTED
TRACE STRING: /mnt/beegfs/iconst01/spec2017/Xz.trace.gz
INITIAL
TRACE STRING: /mnt/beegfs/iconst01/spec2017/Xz.trace.gz

champsim_seed used: 210

CPU 0 L1D next line prefetcher
CPU 0 L2C IP-based stride prefetcher
Initialize DRRIP state
Assign rand_sets[0]: 454  LLC: 2048
rand_sets[0]: 454
Assign rand_sets[1]: 1662  LLC: 2048
rand_sets[1]: 1662
Assign rand_sets[2]: 1921  LLC: 2048
rand_sets[2]: 1921
Assign rand_sets[3]: 1131  LLC: 2048
rand_sets[3]: 1131
Assign rand_sets[4]: 331  LLC: 2048
rand_sets[4]: 331
Assign rand_sets[5]: 1531  LLC: 2048
rand_sets[5]: 1531
Assign rand_sets[6]: 482  LLC: 2048
rand_sets[6]: 482
Assign rand_sets[7]: 1275  LLC: 2048
rand_sets[7]: 1275
Assign rand_sets[8]: 1876  LLC: 2048
rand_sets[8]: 1876
Assign rand_sets[9]: 2038  LLC: 2048
rand_sets[9]: 2038
Assign rand_sets[10]: 701  LLC: 2048
rand_sets[10]: 701
Assign rand_sets[11]: 479  LLC: 2048
rand_sets[11]: 479
Assign rand_sets[12]: 892  LLC: 2048
rand_sets[12]: 892
Assign rand_sets[13]: 1820  LLC: 2048
rand_sets[13]: 1820
Assign rand_sets[14]: 1505  LLC: 2048
rand_sets[14]: 1505
Assign rand_sets[15]: 1159  LLC: 2048
rand_sets[15]: 1159
Assign rand_sets[16]: 513  LLC: 2048
rand_sets[16]: 513
Assign rand_sets[17]: 703  LLC: 2048
rand_sets[17]: 703
Assign rand_sets[18]: 561  LLC: 2048
rand_sets[18]: 561
Assign rand_sets[19]: 990  LLC: 2048
rand_sets[19]: 990
Assign rand_sets[20]: 342  LLC: 2048
rand_sets[20]: 342
Assign rand_sets[21]: 882  LLC: 2048
rand_sets[21]: 882
Assign rand_sets[22]: 15  LLC: 2048
rand_sets[22]: 15
Assign rand_sets[23]: 71  LLC: 2048
rand_sets[23]: 71
Assign rand_sets[24]: 1127  LLC: 2048
rand_sets[24]: 1127
Assign rand_sets[25]: 1382  LLC: 2048
rand_sets[25]: 1382
Assign rand_sets[26]: 647  LLC: 2048
rand_sets[26]: 647
Assign rand_sets[27]: 857  LLC: 2048
rand_sets[27]: 857
Assign rand_sets[28]: 1450  LLC: 2048
rand_sets[28]: 1450
Assign rand_sets[29]: 1160  LLC: 2048
rand_sets[29]: 1160
Assign rand_sets[30]: 1852  LLC: 2048
rand_sets[30]: 1852
Assign rand_sets[31]: 1881  LLC: 2048
rand_sets[31]: 1881
Assign rand_sets[32]: 1770  LLC: 2048
rand_sets[32]: 1770
Assign rand_sets[33]: 1622  LLC: 2048
rand_sets[33]: 1622
Assign rand_sets[34]: 275  LLC: 2048
rand_sets[34]: 275
Assign rand_sets[35]: 635  LLC: 2048
rand_sets[35]: 635
Assign rand_sets[36]: 466  LLC: 2048
rand_sets[36]: 466
Assign rand_sets[37]: 1413  LLC: 2048
rand_sets[37]: 1413
Assign rand_sets[38]: 417  LLC: 2048
rand_sets[38]: 417
Assign rand_sets[39]: 472  LLC: 2048
rand_sets[39]: 472
Assign rand_sets[40]: 1340  LLC: 2048
rand_sets[40]: 1340
Assign rand_sets[41]: 852  LLC: 2048
rand_sets[41]: 852
Assign rand_sets[42]: 1365  LLC: 2048
rand_sets[42]: 1365
Assign rand_sets[43]: 47  LLC: 2048
rand_sets[43]: 47
Assign rand_sets[44]: 823  LLC: 2048
rand_sets[44]: 823
Assign rand_sets[45]: 686  LLC: 2048
rand_sets[45]: 686
Assign rand_sets[46]: 1637  LLC: 2048
rand_sets[46]: 1637
Assign rand_sets[47]: 1115  LLC: 2048
rand_sets[47]: 1115
Assign rand_sets[48]: 986  LLC: 2048
rand_sets[48]: 986
Assign rand_sets[49]: 258  LLC: 2048
rand_sets[49]: 258
Assign rand_sets[50]: 633  LLC: 2048
rand_sets[50]: 633
Assign rand_sets[51]: 920  LLC: 2048
rand_sets[51]: 920
Assign rand_sets[52]: 204  LLC: 2048
rand_sets[52]: 204
Assign rand_sets[53]: 227  LLC: 2048
rand_sets[53]: 227
Assign rand_sets[54]: 1818  LLC: 2048
rand_sets[54]: 1818
Assign rand_sets[55]: 886  LLC: 2048
rand_sets[55]: 886
Assign rand_sets[56]: 1422  LLC: 2048
rand_sets[56]: 1422
Assign rand_sets[57]: 607  LLC: 2048
rand_sets[57]: 607
Assign rand_sets[58]: 217  LLC: 2048
rand_sets[58]: 217
Assign rand_sets[59]: 1945  LLC: 2048
rand_sets[59]: 1945
Assign rand_sets[60]: 143  LLC: 2048
rand_sets[60]: 143
Assign rand_sets[61]: 1311  LLC: 2048
rand_sets[61]: 1311
Assign rand_sets[62]: 319  LLC: 2048
rand_sets[62]: 319
Assign rand_sets[63]: 1846  LLC: 2048
rand_sets[63]: 1846
 CLEAN-RRIP-POLICY-1: 2-2-1-3-2-3-0-2- CLEAN-RRIP-POLICY-2: 2-2-1-3-2-3-0-2-
 DIRTY-RRIP-POLICY-1: 2-2-0-3-1-3-0-2- DIRTY-RRIP-POLICY-2: 2-2-0-3-1-3-0-2-
 PSEL width: 10
Heartbeat CPU 0 instructions: 10000000 cycles: 4305270 heartbeat IPC: 2.32273 cumulative IPC: 2.32273 (Simulation time: 0 hr 0 min 11 sec) 
Heartbeat CPU 0 instructions: 20000000 cycles: 8617101 heartbeat IPC: 2.3192 cumulative IPC: 2.32097 (Simulation time: 0 hr 0 min 23 sec) 
Heartbeat CPU 0 instructions: 30000003 cycles: 13160978 heartbeat IPC: 2.20076 cumulative IPC: 2.27947 (Simulation time: 0 hr 0 min 35 sec) 
Heartbeat CPU 0 instructions: 40000000 cycles: 17515452 heartbeat IPC: 2.29649 cumulative IPC: 2.2837 (Simulation time: 0 hr 0 min 47 sec) 
Heartbeat CPU 0 instructions: 50000001 cycles: 21878257 heartbeat IPC: 2.2921 cumulative IPC: 2.28537 (Simulation time: 0 hr 0 min 58 sec) 
Heartbeat CPU 0 instructions: 60000000 cycles: 26178440 heartbeat IPC: 2.32548 cumulative IPC: 2.29196 (Simulation time: 0 hr 1 min 9 sec) 
Heartbeat CPU 0 instructions: 70000001 cycles: 30244318 heartbeat IPC: 2.45949 cumulative IPC: 2.31448 (Simulation time: 0 hr 1 min 20 sec) 
Heartbeat CPU 0 instructions: 80000000 cycles: 34523075 heartbeat IPC: 2.33713 cumulative IPC: 2.31729 (Simulation time: 0 hr 1 min 31 sec) 
Heartbeat CPU 0 instructions: 90000001 cycles: 38739679 heartbeat IPC: 2.37158 cumulative IPC: 2.3232 (Simulation time: 0 hr 1 min 42 sec) 
Heartbeat CPU 0 instructions: 100000000 cycles: 42980052 heartbeat IPC: 2.35828 cumulative IPC: 2.32666 (Simulation time: 0 hr 1 min 53 sec) 

Warmup complete CPU 0 instructions: 100000001 cycles: 42980053 (Simulation time: 0 hr 1 min 53 sec) 

Heartbeat CPU 0 instructions: 110000000 cycles: 53111449 heartbeat IPC: 0.987031 cumulative IPC: 0.987031 (Simulation time: 0 hr 2 min 10 sec) 
Heartbeat CPU 0 instructions: 120000000 cycles: 63731272 heartbeat IPC: 0.941635 cumulative IPC: 0.963799 (Simulation time: 0 hr 2 min 26 sec) 
Heartbeat CPU 0 instructions: 130000001 cycles: 74329352 heartbeat IPC: 0.943567 cumulative IPC: 0.956959 (Simulation time: 0 hr 2 min 43 sec) 
Heartbeat CPU 0 instructions: 140000000 cycles: 84016061 heartbeat IPC: 1.03234 cumulative IPC: 0.974754 (Simulation time: 0 hr 2 min 59 sec) 
Heartbeat CPU 0 instructions: 150000001 cycles: 94332636 heartbeat IPC: 0.969314 cumulative IPC: 0.973661 (Simulation time: 0 hr 3 min 16 sec) 
Heartbeat CPU 0 instructions: 160000000 cycles: 104388137 heartbeat IPC: 0.99448 cumulative IPC: 0.97707 (Simulation time: 0 hr 3 min 33 sec) 
Heartbeat CPU 0 instructions: 170000000 cycles: 114060758 heartbeat IPC: 1.03385 cumulative IPC: 0.984796 (Simulation time: 0 hr 3 min 49 sec) 
Heartbeat CPU 0 instructions: 180000000 cycles: 124622770 heartbeat IPC: 0.946789 cumulative IPC: 0.979879 (Simulation time: 0 hr 4 min 6 sec) 
Heartbeat CPU 0 instructions: 190000001 cycles: 134883500 heartbeat IPC: 0.97459 cumulative IPC: 0.979289 (Simulation time: 0 hr 4 min 22 sec) 
Heartbeat CPU 0 instructions: 200000000 cycles: 145456865 heartbeat IPC: 0.945773 cumulative IPC: 0.97583 (Simulation time: 0 hr 4 min 39 sec) 
Heartbeat CPU 0 instructions: 210000002 cycles: 157904050 heartbeat IPC: 0.803395 cumulative IPC: 0.957154 (Simulation time: 0 hr 4 min 57 sec) 
Heartbeat CPU 0 instructions: 220000000 cycles: 170436182 heartbeat IPC: 0.797949 cumulative IPC: 0.9415 (Simulation time: 0 hr 5 min 15 sec) 
Heartbeat CPU 0 instructions: 230000000 cycles: 182602129 heartbeat IPC: 0.821966 cumulative IPC: 0.931085 (Simulation time: 0 hr 5 min 32 sec) 
Heartbeat CPU 0 instructions: 240000000 cycles: 194743429 heartbeat IPC: 0.823635 cumulative IPC: 0.922489 (Simulation time: 0 hr 5 min 50 sec) 
Heartbeat CPU 0 instructions: 250000000 cycles: 206722916 heartbeat IPC: 0.83476 cumulative IPC: 0.91607 (Simulation time: 0 hr 6 min 8 sec) 
Heartbeat CPU 0 instructions: 260000000 cycles: 218287613 heartbeat IPC: 0.864701 cumulative IPC: 0.912682 (Simulation time: 0 hr 6 min 25 sec) 
Heartbeat CPU 0 instructions: 270000003 cycles: 230165551 heartbeat IPC: 0.841897 cumulative IPC: 0.90819 (Simulation time: 0 hr 6 min 43 sec) 
Heartbeat CPU 0 instructions: 280000000 cycles: 241708661 heartbeat IPC: 0.866317 cumulative IPC: 0.905758 (Simulation time: 0 hr 7 min 0 sec) 
Heartbeat CPU 0 instructions: 290000002 cycles: 253239113 heartbeat IPC: 0.867269 cumulative IPC: 0.903647 (Simulation time: 0 hr 7 min 18 sec) 
Heartbeat CPU 0 instructions: 300000000 cycles: 265689959 heartbeat IPC: 0.803158 cumulative IPC: 0.898029 (Simulation time: 0 hr 7 min 35 sec) 
Heartbeat CPU 0 instructions: 310000000 cycles: 277847448 heartbeat IPC: 0.822538 cumulative IPC: 0.894122 (Simulation time: 0 hr 7 min 53 sec) 
Heartbeat CPU 0 instructions: 320000000 cycles: 290501596 heartbeat IPC: 0.790255 cumulative IPC: 0.888812 (Simulation time: 0 hr 8 min 11 sec) 
Heartbeat CPU 0 instructions: 330000003 cycles: 302456668 heartbeat IPC: 0.836465 cumulative IPC: 0.8864 (Simulation time: 0 hr 8 min 29 sec) 
Heartbeat CPU 0 instructions: 340000000 cycles: 314582686 heartbeat IPC: 0.824673 cumulative IPC: 0.883644 (Simulation time: 0 hr 8 min 46 sec) 
Heartbeat CPU 0 instructions: 350000001 cycles: 325589461 heartbeat IPC: 0.908531 cumulative IPC: 0.884613 (Simulation time: 0 hr 9 min 3 sec) 
Heartbeat CPU 0 instructions: 360000000 cycles: 337380082 heartbeat IPC: 0.848132 cumulative IPC: 0.883152 (Simulation time: 0 hr 9 min 21 sec) 
Heartbeat CPU 0 instructions: 370000001 cycles: 348802323 heartbeat IPC: 0.875485 cumulative IPC: 0.882866 (Simulation time: 0 hr 9 min 38 sec) 
Heartbeat CPU 0 instructions: 380000000 cycles: 359810270 heartbeat IPC: 0.908435 cumulative IPC: 0.883754 (Simulation time: 0 hr 9 min 55 sec) 
Heartbeat CPU 0 instructions: 390000003 cycles: 370433674 heartbeat IPC: 0.941318 cumulative IPC: 0.885622 (Simulation time: 0 hr 10 min 12 sec) 
Heartbeat CPU 0 instructions: 400000000 cycles: 380667513 heartbeat IPC: 0.97715 cumulative IPC: 0.888395 (Simulation time: 0 hr 10 min 29 sec) 
Heartbeat CPU 0 instructions: 410000000 cycles: 391201040 heartbeat IPC: 0.94935 cumulative IPC: 0.890239 (Simulation time: 0 hr 10 min 46 sec) 
Heartbeat CPU 0 instructions: 420000000 cycles: 400595223 heartbeat IPC: 1.06449 cumulative IPC: 0.894817 (Simulation time: 0 hr 11 min 2 sec) 
Heartbeat CPU 0 instructions: 430000002 cycles: 409684266 heartbeat IPC: 1.10023 cumulative IPC: 0.899908 (Simulation time: 0 hr 11 min 18 sec) 
Heartbeat CPU 0 instructions: 440000000 cycles: 419960297 heartbeat IPC: 0.973138 cumulative IPC: 0.901904 (Simulation time: 0 hr 11 min 35 sec) 
Heartbeat CPU 0 instructions: 450000002 cycles: 431045526 heartbeat IPC: 0.902102 cumulative IPC: 0.90191 (Simulation time: 0 hr 11 min 52 sec) 
Heartbeat CPU 0 instructions: 460000000 cycles: 442600858 heartbeat IPC: 0.865401 cumulative IPC: 0.900854 (Simulation time: 0 hr 12 min 9 sec) 
Heartbeat CPU 0 instructions: 470000003 cycles: 452798336 heartbeat IPC: 0.980635 cumulative IPC: 0.902839 (Simulation time: 0 hr 12 min 26 sec) 
Heartbeat CPU 0 instructions: 480000000 cycles: 463340209 heartbeat IPC: 0.948598 cumulative IPC: 0.903987 (Simulation time: 0 hr 12 min 43 sec) 
Heartbeat CPU 0 instructions: 490000000 cycles: 473304131 heartbeat IPC: 1.00362 cumulative IPC: 0.906294 (Simulation time: 0 hr 13 min 0 sec) 
Heartbeat CPU 0 instructions: 500000000 cycles: 485091825 heartbeat IPC: 0.848342 cumulative IPC: 0.904749 (Simulation time: 0 hr 13 min 17 sec) 
Heartbeat CPU 0 instructions: 510000002 cycles: 497500518 heartbeat IPC: 0.805887 cumulative IPC: 0.90205 (Simulation time: 0 hr 13 min 35 sec) 
Heartbeat CPU 0 instructions: 520000000 cycles: 509358600 heartbeat IPC: 0.843307 cumulative IPC: 0.900556 (Simulation time: 0 hr 13 min 52 sec) 
Heartbeat CPU 0 instructions: 530000001 cycles: 521210875 heartbeat IPC: 0.84372 cumulative IPC: 0.899147 (Simulation time: 0 hr 14 min 10 sec) 
Heartbeat CPU 0 instructions: 540000000 cycles: 532811297 heartbeat IPC: 0.862038 cumulative IPC: 0.898269 (Simulation time: 0 hr 14 min 27 sec) 
Heartbeat CPU 0 instructions: 550000001 cycles: 544203771 heartbeat IPC: 0.877773 cumulative IPC: 0.897803 (Simulation time: 0 hr 14 min 44 sec) 
Heartbeat CPU 0 instructions: 560000000 cycles: 555768641 heartbeat IPC: 0.864688 cumulative IPC: 0.897056 (Simulation time: 0 hr 15 min 2 sec) 
Heartbeat CPU 0 instructions: 570000000 cycles: 567176188 heartbeat IPC: 0.876613 cumulative IPC: 0.896611 (Simulation time: 0 hr 15 min 19 sec) 
Heartbeat CPU 0 instructions: 580000000 cycles: 577931027 heartbeat IPC: 0.929814 cumulative IPC: 0.897278 (Simulation time: 0 hr 15 min 36 sec) 
Heartbeat CPU 0 instructions: 590000003 cycles: 589329206 heartbeat IPC: 0.877333 cumulative IPC: 0.896862 (Simulation time: 0 hr 15 min 53 sec) 
Heartbeat CPU 0 instructions: 600000000 cycles: 599908807 heartbeat IPC: 0.945215 cumulative IPC: 0.897781 (Simulation time: 0 hr 16 min 10 sec) 
Finished CPU 0 instructions: 500000001 cycles: 556928762 cumulative IPC: 0.897781 (Simulation time: 0 hr 16 min 10 sec) 

CPU 0 Branch Prediction Accuracy: 93.0095% MPKI: 10.0046
Number of Branches: 71558147 Number of Mispredictions: 5002285
Number of LOAD Instructions: 145708893
Number of LOAD Instructions (ROI): 145708893
Number of STORE Instructions: 40463820
Number of STORE Instructions (ROI): 40463820
Total Destination Memory Operands: 45240498
Total Destination Memory Operands (ROI): 45240498
Total Source Memory Operands: 145708893
Total Source Memory Operands (ROI): 145708893
Number of DEPENDED LOADS: 10673690
Number of DEPENDED LOADS (ROI): 10673690
Number of SQ_ADDED: 45240498
Number of SQ_ADDED (ROI): 45240498
Number of LQ_ADDED: 193324099
Number of LQ_ADDED (ROI): 193324099
Number of Instructions read from trace: 600000002

ChampSim completed all CPUs

Region of Interest Statistics

CPU 0 cumulative IPC: 0.897781 instructions: 500000001 cycles: 556928762
ITLB TOTAL     ACCESS:   77992381  HIT:   77992380  MISS:          1
ITLB LOAD      ACCESS:   77992381  HIT:   77992380  MISS:          1
ITLB RFO       ACCESS:          0  HIT:          0  MISS:          0
ITLB PREFETCH  ACCESS:          0  HIT:          0  MISS:          0
ITLB WRITEBACK ACCESS:          0  HIT:          0  MISS:          0
ITLB PREFETCH  REQUESTED:          0  ISSUED:          0  USEFUL:          0  USELESS:          0
ITLB TOTAL MSHR MERGED:          0
ITLB LOAD MSHR MERGED:          0
ITLB RFO MSHR MERGED:          0
ITLB PREFETCH MSHR MERGED:          0
ITLB WRITEBACK MSHR MERGED:          0
ITLB TOTAL ACCESSES:   77992381 HITS:   77992380 MISSES:          1
ITLB LOAD ACCESSES:   77992381 HITS:   77992380 MISSES:          1
ITLB RFO ACCESSES:          0 HITS:          0 MISSES:          0
ITLB PREFETCH ACCESSES:          0 HITS:          0 MISSES:          0
ITLB WRITEBACK ACCESSES:          0 HITS:          0 MISSES:          0
ITLB RQ ACCESS:  499999995
ITLB RQ TO_CACHE:   77992381
ITLB RQ MERGED:  422007614
ITLB RQ FORWARD:          0
ITLB WQ ACCESS:          0
ITLB WQ TO_CACHE:          0
ITLB WQ MERGED:          0
ITLB WQ FORWARD:          0
DTLB TOTAL     ACCESS:   98671290  HIT:   97789954  MISS:     881336
DTLB LOAD      ACCESS:   70891347  HIT:   70029814  MISS:     861533
DTLB RFO       ACCESS:   27779943  HIT:   27760140  MISS:      19803
DTLB PREFETCH  ACCESS:          0  HIT:          0  MISS:          0
DTLB WRITEBACK ACCESS:          0  HIT:          0  MISS:          0
DTLB PREFETCH  REQUESTED:          0  ISSUED:          0  USEFUL:          0  USELESS:          0
DTLB TOTAL MSHR MERGED:      87358
DTLB LOAD MSHR MERGED:      65616
DTLB RFO MSHR MERGED:      21742
DTLB PREFETCH MSHR MERGED:          0
DTLB WRITEBACK MSHR MERGED:          0
DTLB TOTAL ACCESSES:   98758648 HITS:   97789954 MISSES:     968694
DTLB LOAD ACCESSES:   70956963 HITS:   70029814 MISSES:     927149
DTLB RFO ACCESSES:   27801685 HITS:   27760140 MISSES:      41545
DTLB PREFETCH ACCESSES:          0 HITS:          0 MISSES:          0
DTLB WRITEBACK ACCESSES:          0 HITS:          0 MISSES:          0
DTLB RQ ACCESS:  150271366
DTLB RQ TO_CACHE:   98758648
DTLB RQ MERGED:   51512718
DTLB RQ FORWARD:          0
DTLB WQ ACCESS:          0
DTLB WQ TO_CACHE:          0
DTLB WQ MERGED:          0
DTLB WQ FORWARD:          0
L1D TOTAL     ACCESS:  173327429  HIT:  169158806  MISS:    4168623
L1D LOAD      ACCESS:   75280383  HIT:   73399043  MISS:    1881340
L1D RFO       ACCESS:   36778370  HIT:   36571767  MISS:     206603
L1D PREFETCH  ACCESS:   61268676  HIT:   59187996  MISS:    2080680
L1D WRITEBACK ACCESS:          0  HIT:          0  MISS:          0
L1D PREFETCH  REQUESTED:   75383457  ISSUED:   74819266  USEFUL:     415131  USELESS:    1665538
L1D TOTAL MSHR MERGED:     371754
L1D LOAD MSHR MERGED:     111844
L1D RFO MSHR MERGED:     133037
L1D PREFETCH MSHR MERGED:     126873
L1D WRITEBACK MSHR MERGED:          0
L1D TOTAL ACCESSES:  173850923 HITS:  169310546 MISSES:    4540377
L1D LOAD ACCESSES:   75386533 HITS:   73402119 MISSES:    1984414
L1D RFO ACCESSES:   36910015 HITS:   36571767 MISSES:     338248
L1D PREFETCH ACCESSES:   61554375 HITS:   59336660 MISSES:    2217715
L1D WRITEBACK ACCESSES:          0 HITS:          0 MISSES:          0
L1D RQ ACCESS:  112608963
L1D RQ TO_CACHE:   75383457
L1D RQ MERGED:   37222430
L1D RQ FORWARD:          0
L1D WQ ACCESS:   37662403
L1D WQ TO_CACHE:   36910015
L1D WQ MERGED:     752388
L1D WQ FORWARD:     151740
L1I TOTAL     ACCESS:  100700274  HIT:  100700249  MISS:         25
L1I LOAD      ACCESS:  100700274  HIT:  100700249  MISS:         25
L1I RFO       ACCESS:          0  HIT:          0  MISS:          0
L1I PREFETCH  ACCESS:          0  HIT:          0  MISS:          0
L1I WRITEBACK ACCESS:          0  HIT:          0  MISS:          0
L1I PREFETCH  REQUESTED:          0  ISSUED:          0  USEFUL:          0  USELESS:          0
L1I TOTAL MSHR MERGED:         10
L1I LOAD MSHR MERGED:         10
L1I RFO MSHR MERGED:          0
L1I PREFETCH MSHR MERGED:          0
L1I WRITEBACK MSHR MERGED:          0
L1I TOTAL ACCESSES:  100700284 HITS:  100700249 MISSES:         35
L1I LOAD ACCESSES:  100700284 HITS:  100700249 MISSES:         35
L1I RFO ACCESSES:          0 HITS:          0 MISSES:          0
L1I PREFETCH ACCESSES:          0 HITS:          0 MISSES:          0
L1I WRITEBACK ACCESSES:          0 HITS:          0 MISSES:          0
L1I RQ ACCESS:  499999995
L1I RQ TO_CACHE:  100700284
L1I RQ MERGED:  399299711
L1I RQ FORWARD:          0
L1I WQ ACCESS:          0
L1I WQ TO_CACHE:          0
L1I WQ MERGED:          0
L1I WQ FORWARD:          0
L2C TOTAL     ACCESS:    5852609  HIT:    4009436  MISS:    1843173
L2C LOAD      ACCESS:    1872469  HIT:    1061519  MISS:     810950
L2C RFO       ACCESS:     205203  HIT:     100564  MISS:     104639
L2C PREFETCH  ACCESS:    2169302  HIT:    1246137  MISS:     923165
L2C WRITEBACK ACCESS:    1605635  HIT:    1601216  MISS:       4419
L2C PREFETCH  REQUESTED:      91709  ISSUED:      91709  USEFUL:      86463  USELESS:     836725
L2C TOTAL MSHR MERGED:        974
L2C LOAD MSHR MERGED:        249
L2C RFO MSHR MERGED:          0
L2C PREFETCH MSHR MERGED:        725
L2C WRITEBACK MSHR MERGED:          0
L2C TOTAL ACCESSES:    5853929 HITS:    4009607 MISSES:    1844322
L2C LOAD ACCESSES:    1872595 HITS:    1061645 MISSES:     810950
L2C RFO ACCESSES:     205211 HITS:     100572 MISSES:     104639
L2C PREFETCH ACCESSES:    2170488 HITS:    1246174 MISSES:     924314
L2C WRITEBACK ACCESSES:    1605635 HITS:    1601216 MISSES:       4419
L2C RQ ACCESS:    2077806
L2C RQ TO_CACHE:    2077672
L2C RQ MERGED:          0
L2C RQ FORWARD:          0
L2C WQ ACCESS:    1605635
L2C WQ TO_CACHE:    1605635
L2C WQ MERGED:          0
L2C WQ FORWARD:        171
LLC TOTAL     ACCESS:    2673575  HIT:    2192290  MISS:     481285
LLC LOAD      ACCESS:     810692  HIT:     636200  MISS:     174492
LLC RFO       ACCESS:     104639  HIT:      59988  MISS:      44651
LLC PREFETCH  ACCESS:     923571  HIT:     690696  MISS:     232875
LLC WRITEBACK ACCESS:     834673  HIT:     805406  MISS:      29267
LLC PREFETCH  REQUESTED:          0  ISSUED:          0  USEFUL:       8399  USELESS:     224621
LLC TOTAL MSHR MERGED:          4
LLC LOAD MSHR MERGED:          2
LLC RFO MSHR MERGED:          0
LLC PREFETCH MSHR MERGED:          2
LLC WRITEBACK MSHR MERGED:          0
LLC TOTAL ACCESSES:    2673590 HITS:    2192301 MISSES:     481289
LLC LOAD ACCESSES:     810701 HITS:     636209 MISSES:     174492
LLC RFO ACCESSES:     104639 HITS:      59988 MISSES:      44651
LLC PREFETCH ACCESSES:     923577 HITS:     690698 MISSES:     232879
LLC WRITEBACK ACCESSES:     834673 HITS:     805406 MISSES:      29267
LLC 0 RQ ACCESS:     915340
LLC 0 RQ TO_CACHE:     915331
LLC 0 RQ MERGED:          0
LLC 0 RQ FORWARD:          0
LLC WQ ACCESS:     834673
LLC WQ TO_CACHE:     834673
LLC WQ MERGED:          0
LLC WQ FORWARD:         11
Major fault: 0 Minor fault: 11278
CPU 0 L1D next line prefetcher final stats
CPU 0 L2C PC-based stride prefetcher final stats
All Misses: 593489
All Hits: 2461104
SD Algo Stats - Switches: 0 SRR-Repls: 207504 BRR-Repls: 0

DRAM Statistics
 CHANNEL 0
 RQ ROW_BUFFER_HIT:      28554  ROW_BUFFER_MISS:     423033
 DBUS_CONGESTED:     353157
 WQ ROW_BUFFER_HIT:      14942  ROW_BUFFER_MISS:     209989  FULL:          0

 AVG_CONGESTED_CYCLE: 13
LOADS RETIRED: 121769268
INSTR RETIRED: 500000000
