
*** ChampSim Multicore Out-of-Order Simulator ***

Warmup Instructions: 100000000
Simulation Instructions: 500000000
Number of CPUs: 1
LLC sets: 2048
LLC ways: 16
Clean RRIP Policies: 2120011121200111 Dirty RRIP Policies: 1120110111201101 PSEL Width: 10 Track Set: 4294967295 PSEL Mask: 1 Demote Mask: 3111330131113301DS Algo: 0Window size: 0
Off-chip DRAM Size: 4096 MB Channels: 1 Width: 64-bit Data Rate: 1600 MT/s

CPU 0 runs /mnt/beegfs/iconst01/spec2017/Gcc.trace.gz
NOT SORTED
TRACE STRING: /mnt/beegfs/iconst01/spec2017/Gcc.trace.gz
SORTED
TRACE STRING: /mnt/beegfs/iconst01/spec2017/Gcc.trace.gz
INITIAL
TRACE STRING: /mnt/beegfs/iconst01/spec2017/Gcc.trace.gz

champsim_seed used: 269

CPU 0 L1D next line prefetcher
CPU 0 L2C IP-based stride prefetcher
Initialize DRRIP state
Assign rand_sets[0]: 454  LLC: 2048
rand_sets[0]: 454
Assign rand_sets[1]: 1662  LLC: 2048
rand_sets[1]: 1662
Assign rand_sets[2]: 1921  LLC: 2048
rand_sets[2]: 1921
Assign rand_sets[3]: 1131  LLC: 2048
rand_sets[3]: 1131
Assign rand_sets[4]: 331  LLC: 2048
rand_sets[4]: 331
Assign rand_sets[5]: 1531  LLC: 2048
rand_sets[5]: 1531
Assign rand_sets[6]: 482  LLC: 2048
rand_sets[6]: 482
Assign rand_sets[7]: 1275  LLC: 2048
rand_sets[7]: 1275
Assign rand_sets[8]: 1876  LLC: 2048
rand_sets[8]: 1876
Assign rand_sets[9]: 2038  LLC: 2048
rand_sets[9]: 2038
Assign rand_sets[10]: 701  LLC: 2048
rand_sets[10]: 701
Assign rand_sets[11]: 479  LLC: 2048
rand_sets[11]: 479
Assign rand_sets[12]: 892  LLC: 2048
rand_sets[12]: 892
Assign rand_sets[13]: 1820  LLC: 2048
rand_sets[13]: 1820
Assign rand_sets[14]: 1505  LLC: 2048
rand_sets[14]: 1505
Assign rand_sets[15]: 1159  LLC: 2048
rand_sets[15]: 1159
Assign rand_sets[16]: 513  LLC: 2048
rand_sets[16]: 513
Assign rand_sets[17]: 703  LLC: 2048
rand_sets[17]: 703
Assign rand_sets[18]: 561  LLC: 2048
rand_sets[18]: 561
Assign rand_sets[19]: 990  LLC: 2048
rand_sets[19]: 990
Assign rand_sets[20]: 342  LLC: 2048
rand_sets[20]: 342
Assign rand_sets[21]: 882  LLC: 2048
rand_sets[21]: 882
Assign rand_sets[22]: 15  LLC: 2048
rand_sets[22]: 15
Assign rand_sets[23]: 71  LLC: 2048
rand_sets[23]: 71
Assign rand_sets[24]: 1127  LLC: 2048
rand_sets[24]: 1127
Assign rand_sets[25]: 1382  LLC: 2048
rand_sets[25]: 1382
Assign rand_sets[26]: 647  LLC: 2048
rand_sets[26]: 647
Assign rand_sets[27]: 857  LLC: 2048
rand_sets[27]: 857
Assign rand_sets[28]: 1450  LLC: 2048
rand_sets[28]: 1450
Assign rand_sets[29]: 1160  LLC: 2048
rand_sets[29]: 1160
Assign rand_sets[30]: 1852  LLC: 2048
rand_sets[30]: 1852
Assign rand_sets[31]: 1881  LLC: 2048
rand_sets[31]: 1881
Assign rand_sets[32]: 1770  LLC: 2048
rand_sets[32]: 1770
Assign rand_sets[33]: 1622  LLC: 2048
rand_sets[33]: 1622
Assign rand_sets[34]: 275  LLC: 2048
rand_sets[34]: 275
Assign rand_sets[35]: 635  LLC: 2048
rand_sets[35]: 635
Assign rand_sets[36]: 466  LLC: 2048
rand_sets[36]: 466
Assign rand_sets[37]: 1413  LLC: 2048
rand_sets[37]: 1413
Assign rand_sets[38]: 417  LLC: 2048
rand_sets[38]: 417
Assign rand_sets[39]: 472  LLC: 2048
rand_sets[39]: 472
Assign rand_sets[40]: 1340  LLC: 2048
rand_sets[40]: 1340
Assign rand_sets[41]: 852  LLC: 2048
rand_sets[41]: 852
Assign rand_sets[42]: 1365  LLC: 2048
rand_sets[42]: 1365
Assign rand_sets[43]: 47  LLC: 2048
rand_sets[43]: 47
Assign rand_sets[44]: 823  LLC: 2048
rand_sets[44]: 823
Assign rand_sets[45]: 686  LLC: 2048
rand_sets[45]: 686
Assign rand_sets[46]: 1637  LLC: 2048
rand_sets[46]: 1637
Assign rand_sets[47]: 1115  LLC: 2048
rand_sets[47]: 1115
Assign rand_sets[48]: 986  LLC: 2048
rand_sets[48]: 986
Assign rand_sets[49]: 258  LLC: 2048
rand_sets[49]: 258
Assign rand_sets[50]: 633  LLC: 2048
rand_sets[50]: 633
Assign rand_sets[51]: 920  LLC: 2048
rand_sets[51]: 920
Assign rand_sets[52]: 204  LLC: 2048
rand_sets[52]: 204
Assign rand_sets[53]: 227  LLC: 2048
rand_sets[53]: 227
Assign rand_sets[54]: 1818  LLC: 2048
rand_sets[54]: 1818
Assign rand_sets[55]: 886  LLC: 2048
rand_sets[55]: 886
Assign rand_sets[56]: 1422  LLC: 2048
rand_sets[56]: 1422
Assign rand_sets[57]: 607  LLC: 2048
rand_sets[57]: 607
Assign rand_sets[58]: 217  LLC: 2048
rand_sets[58]: 217
Assign rand_sets[59]: 1945  LLC: 2048
rand_sets[59]: 1945
Assign rand_sets[60]: 143  LLC: 2048
rand_sets[60]: 143
Assign rand_sets[61]: 1311  LLC: 2048
rand_sets[61]: 1311
Assign rand_sets[62]: 319  LLC: 2048
rand_sets[62]: 319
Assign rand_sets[63]: 1846  LLC: 2048
rand_sets[63]: 1846
 CLEAN-RRIP-POLICY-1: 2-1-2-0-0-1-1-1- CLEAN-RRIP-POLICY-2: 2-1-2-0-0-1-1-1-
 DIRTY-RRIP-POLICY-1: 1-1-2-0-1-1-0-1- DIRTY-RRIP-POLICY-2: 1-1-2-0-1-1-0-1-
 PSEL width: 10
Heartbeat CPU 0 instructions: 10000001 cycles: 7315911 heartbeat IPC: 1.36688 cumulative IPC: 1.36688 (Simulation time: 0 hr 0 min 15 sec) 
Heartbeat CPU 0 instructions: 20000000 cycles: 14308256 heartbeat IPC: 1.43014 cumulative IPC: 1.39779 (Simulation time: 0 hr 0 min 29 sec) 
Heartbeat CPU 0 instructions: 30000001 cycles: 21022247 heartbeat IPC: 1.48943 cumulative IPC: 1.42706 (Simulation time: 0 hr 0 min 45 sec) 
Heartbeat CPU 0 instructions: 40000000 cycles: 27483297 heartbeat IPC: 1.54774 cumulative IPC: 1.45543 (Simulation time: 0 hr 1 min 2 sec) 
Heartbeat CPU 0 instructions: 50000001 cycles: 33585348 heartbeat IPC: 1.63879 cumulative IPC: 1.48874 (Simulation time: 0 hr 1 min 17 sec) 
Heartbeat CPU 0 instructions: 60000000 cycles: 40066815 heartbeat IPC: 1.54286 cumulative IPC: 1.4975 (Simulation time: 0 hr 1 min 33 sec) 
Heartbeat CPU 0 instructions: 70000000 cycles: 47107823 heartbeat IPC: 1.42025 cumulative IPC: 1.48595 (Simulation time: 0 hr 1 min 48 sec) 
Heartbeat CPU 0 instructions: 80000000 cycles: 54199814 heartbeat IPC: 1.41004 cumulative IPC: 1.47602 (Simulation time: 0 hr 2 min 3 sec) 
Heartbeat CPU 0 instructions: 90000003 cycles: 61206636 heartbeat IPC: 1.42718 cumulative IPC: 1.47043 (Simulation time: 0 hr 2 min 18 sec) 
Heartbeat CPU 0 instructions: 100000000 cycles: 68376273 heartbeat IPC: 1.39477 cumulative IPC: 1.4625 (Simulation time: 0 hr 2 min 33 sec) 

Warmup complete CPU 0 instructions: 100000004 cycles: 68376274 (Simulation time: 0 hr 2 min 33 sec) 

Heartbeat CPU 0 instructions: 110000003 cycles: 96409475 heartbeat IPC: 0.35672 cumulative IPC: 0.35672 (Simulation time: 0 hr 3 min 3 sec) 
Heartbeat CPU 0 instructions: 120000000 cycles: 123985145 heartbeat IPC: 0.362638 cumulative IPC: 0.359655 (Simulation time: 0 hr 3 min 32 sec) 
Heartbeat CPU 0 instructions: 130000000 cycles: 149096686 heartbeat IPC: 0.398223 cumulative IPC: 0.371653 (Simulation time: 0 hr 4 min 1 sec) 
Heartbeat CPU 0 instructions: 140000000 cycles: 179335423 heartbeat IPC: 0.330702 cumulative IPC: 0.360493 (Simulation time: 0 hr 4 min 30 sec) 
Heartbeat CPU 0 instructions: 150000000 cycles: 209636221 heartbeat IPC: 0.330024 cumulative IPC: 0.353957 (Simulation time: 0 hr 5 min 0 sec) 
Heartbeat CPU 0 instructions: 160000000 cycles: 237190572 heartbeat IPC: 0.362919 cumulative IPC: 0.35542 (Simulation time: 0 hr 5 min 28 sec) 
Heartbeat CPU 0 instructions: 170000001 cycles: 265430288 heartbeat IPC: 0.354111 cumulative IPC: 0.355233 (Simulation time: 0 hr 5 min 59 sec) 
Heartbeat CPU 0 instructions: 180000000 cycles: 294133782 heartbeat IPC: 0.34839 cumulative IPC: 0.354363 (Simulation time: 0 hr 6 min 29 sec) 
Heartbeat CPU 0 instructions: 190000002 cycles: 322516295 heartbeat IPC: 0.35233 cumulative IPC: 0.354135 (Simulation time: 0 hr 6 min 58 sec) 
Heartbeat CPU 0 instructions: 200000000 cycles: 351154616 heartbeat IPC: 0.349182 cumulative IPC: 0.353634 (Simulation time: 0 hr 7 min 28 sec) 
Heartbeat CPU 0 instructions: 210000002 cycles: 379342343 heartbeat IPC: 0.354764 cumulative IPC: 0.353736 (Simulation time: 0 hr 7 min 58 sec) 
Heartbeat CPU 0 instructions: 220000000 cycles: 409176100 heartbeat IPC: 0.335191 cumulative IPC: 0.352113 (Simulation time: 0 hr 8 min 26 sec) 
Heartbeat CPU 0 instructions: 230000000 cycles: 437027951 heartbeat IPC: 0.359043 cumulative IPC: 0.352636 (Simulation time: 0 hr 8 min 55 sec) 
Heartbeat CPU 0 instructions: 240000000 cycles: 463124271 heartbeat IPC: 0.383196 cumulative IPC: 0.354657 (Simulation time: 0 hr 9 min 23 sec) 
Heartbeat CPU 0 instructions: 250000000 cycles: 493479564 heartbeat IPC: 0.329432 cumulative IPC: 0.352855 (Simulation time: 0 hr 9 min 53 sec) 
Heartbeat CPU 0 instructions: 260000000 cycles: 520697962 heartbeat IPC: 0.367399 cumulative IPC: 0.353731 (Simulation time: 0 hr 10 min 22 sec) 
Heartbeat CPU 0 instructions: 270000003 cycles: 549357667 heartbeat IPC: 0.348922 cumulative IPC: 0.353444 (Simulation time: 0 hr 10 min 53 sec) 
Heartbeat CPU 0 instructions: 280000000 cycles: 577869614 heartbeat IPC: 0.35073 cumulative IPC: 0.353292 (Simulation time: 0 hr 11 min 23 sec) 
Heartbeat CPU 0 instructions: 290000000 cycles: 606997217 heartbeat IPC: 0.343317 cumulative IPC: 0.352753 (Simulation time: 0 hr 11 min 54 sec) 
Heartbeat CPU 0 instructions: 300000000 cycles: 637803197 heartbeat IPC: 0.324612 cumulative IPC: 0.35123 (Simulation time: 0 hr 12 min 23 sec) 
Heartbeat CPU 0 instructions: 310000001 cycles: 667679565 heartbeat IPC: 0.334713 cumulative IPC: 0.350407 (Simulation time: 0 hr 12 min 52 sec) 
Heartbeat CPU 0 instructions: 320000000 cycles: 696433803 heartbeat IPC: 0.347775 cumulative IPC: 0.350286 (Simulation time: 0 hr 13 min 21 sec) 
Heartbeat CPU 0 instructions: 330000000 cycles: 725502248 heartbeat IPC: 0.344016 cumulative IPC: 0.350009 (Simulation time: 0 hr 13 min 50 sec) 
Heartbeat CPU 0 instructions: 340000000 cycles: 755207460 heartbeat IPC: 0.336641 cumulative IPC: 0.349431 (Simulation time: 0 hr 14 min 19 sec) 
Heartbeat CPU 0 instructions: 350000003 cycles: 782528905 heartbeat IPC: 0.366013 cumulative IPC: 0.350065 (Simulation time: 0 hr 14 min 48 sec) 
Heartbeat CPU 0 instructions: 360000000 cycles: 811440594 heartbeat IPC: 0.345881 cumulative IPC: 0.349902 (Simulation time: 0 hr 15 min 16 sec) 
Heartbeat CPU 0 instructions: 370000000 cycles: 840188111 heartbeat IPC: 0.347856 cumulative IPC: 0.349826 (Simulation time: 0 hr 15 min 44 sec) 
Heartbeat CPU 0 instructions: 380000000 cycles: 869256904 heartbeat IPC: 0.344012 cumulative IPC: 0.349615 (Simulation time: 0 hr 16 min 12 sec) 
Heartbeat CPU 0 instructions: 390000001 cycles: 897278524 heartbeat IPC: 0.356867 cumulative IPC: 0.34986 (Simulation time: 0 hr 16 min 40 sec) 
Heartbeat CPU 0 instructions: 400000000 cycles: 926440820 heartbeat IPC: 0.342909 cumulative IPC: 0.349624 (Simulation time: 0 hr 17 min 8 sec) 
Heartbeat CPU 0 instructions: 410000001 cycles: 954035478 heartbeat IPC: 0.362389 cumulative IPC: 0.350022 (Simulation time: 0 hr 17 min 36 sec) 
Heartbeat CPU 0 instructions: 420000000 cycles: 981636473 heartbeat IPC: 0.362306 cumulative IPC: 0.350393 (Simulation time: 0 hr 18 min 4 sec) 
Heartbeat CPU 0 instructions: 430000002 cycles: 1009727503 heartbeat IPC: 0.355986 cumulative IPC: 0.35056 (Simulation time: 0 hr 18 min 32 sec) 
Heartbeat CPU 0 instructions: 440000000 cycles: 1039899661 heartbeat IPC: 0.331431 cumulative IPC: 0.349966 (Simulation time: 0 hr 19 min 0 sec) 
Heartbeat CPU 0 instructions: 450000002 cycles: 1069710594 heartbeat IPC: 0.335447 cumulative IPC: 0.349534 (Simulation time: 0 hr 19 min 29 sec) 
Heartbeat CPU 0 instructions: 460000000 cycles: 1097781160 heartbeat IPC: 0.356245 cumulative IPC: 0.349717 (Simulation time: 0 hr 19 min 57 sec) 
Heartbeat CPU 0 instructions: 470000000 cycles: 1125681944 heartbeat IPC: 0.358413 cumulative IPC: 0.349946 (Simulation time: 0 hr 20 min 25 sec) 
Heartbeat CPU 0 instructions: 480000000 cycles: 1153808354 heartbeat IPC: 0.355538 cumulative IPC: 0.350091 (Simulation time: 0 hr 20 min 53 sec) 
Heartbeat CPU 0 instructions: 490000000 cycles: 1181611837 heartbeat IPC: 0.359667 cumulative IPC: 0.35033 (Simulation time: 0 hr 21 min 21 sec) 
Heartbeat CPU 0 instructions: 500000000 cycles: 1210173322 heartbeat IPC: 0.350122 cumulative IPC: 0.350325 (Simulation time: 0 hr 21 min 49 sec) 
Heartbeat CPU 0 instructions: 510000000 cycles: 1245112770 heartbeat IPC: 0.286209 cumulative IPC: 0.348421 (Simulation time: 0 hr 22 min 20 sec) 
Heartbeat CPU 0 instructions: 520000000 cycles: 1273155394 heartbeat IPC: 0.3566 cumulative IPC: 0.348612 (Simulation time: 0 hr 22 min 49 sec) 
Heartbeat CPU 0 instructions: 530000001 cycles: 1303162356 heartbeat IPC: 0.333256 cumulative IPC: 0.348238 (Simulation time: 0 hr 23 min 19 sec) 
Heartbeat CPU 0 instructions: 540000000 cycles: 1331666437 heartbeat IPC: 0.350827 cumulative IPC: 0.348297 (Simulation time: 0 hr 23 min 48 sec) 
Heartbeat CPU 0 instructions: 550000001 cycles: 1361045657 heartbeat IPC: 0.340377 cumulative IPC: 0.348117 (Simulation time: 0 hr 24 min 18 sec) 
Heartbeat CPU 0 instructions: 560000000 cycles: 1386596420 heartbeat IPC: 0.391378 cumulative IPC: 0.348955 (Simulation time: 0 hr 24 min 47 sec) 
Heartbeat CPU 0 instructions: 570000000 cycles: 1416729927 heartbeat IPC: 0.331856 cumulative IPC: 0.348573 (Simulation time: 0 hr 25 min 16 sec) 
Heartbeat CPU 0 instructions: 580000000 cycles: 1445090401 heartbeat IPC: 0.352603 cumulative IPC: 0.348656 (Simulation time: 0 hr 25 min 46 sec) 
Heartbeat CPU 0 instructions: 590000001 cycles: 1469940643 heartbeat IPC: 0.402411 cumulative IPC: 0.349609 (Simulation time: 0 hr 26 min 13 sec) 
Heartbeat CPU 0 instructions: 600000000 cycles: 1496222929 heartbeat IPC: 0.380484 cumulative IPC: 0.350178 (Simulation time: 0 hr 26 min 41 sec) 
Finished CPU 0 instructions: 500000000 cycles: 1427846677 cumulative IPC: 0.350178 (Simulation time: 0 hr 26 min 41 sec) 

CPU 0 Branch Prediction Accuracy: 86.4311% MPKI: 26.2662
Number of Branches: 96788573 Number of Mispredictions: 13133102
Number of LOAD Instructions: 164682285
Number of LOAD Instructions (ROI): 164682285
Number of STORE Instructions: 78194750
Number of STORE Instructions (ROI): 78194750
Total Destination Memory Operands: 83268534
Total Destination Memory Operands (ROI): 83268534
Total Source Memory Operands: 164712438
Total Source Memory Operands (ROI): 164712438
Number of DEPENDED LOADS: 7056915
Number of DEPENDED LOADS (ROI): 7056915
Number of SQ_ADDED: 83268522
Number of SQ_ADDED (ROI): 83268522
Number of LQ_ADDED: 236664054
Number of LQ_ADDED (ROI): 236664054
Number of Instructions read from trace: 600000066

ChampSim completed all CPUs

Region of Interest Statistics

CPU 0 cumulative IPC: 0.350178 instructions: 500000000 cycles: 1427846677
ITLB TOTAL     ACCESS:  100522457  HIT:  100318011  MISS:     204446
ITLB LOAD      ACCESS:  100522457  HIT:  100318011  MISS:     204446
ITLB RFO       ACCESS:          0  HIT:          0  MISS:          0
ITLB PREFETCH  ACCESS:          0  HIT:          0  MISS:          0
ITLB WRITEBACK ACCESS:          0  HIT:          0  MISS:          0
ITLB PREFETCH  REQUESTED:          0  ISSUED:          0  USEFUL:          0  USELESS:          0
ITLB TOTAL MSHR MERGED:     172423
ITLB LOAD MSHR MERGED:     172423
ITLB RFO MSHR MERGED:          0
ITLB PREFETCH MSHR MERGED:          0
ITLB WRITEBACK MSHR MERGED:          0
ITLB TOTAL ACCESSES:  100694880 HITS:  100318011 MISSES:     376869
ITLB LOAD ACCESSES:  100694880 HITS:  100318011 MISSES:     376869
ITLB RFO ACCESSES:          0 HITS:          0 MISSES:          0
ITLB PREFETCH ACCESSES:          0 HITS:          0 MISSES:          0
ITLB WRITEBACK ACCESSES:          0 HITS:          0 MISSES:          0
ITLB RQ ACCESS:  500000057
ITLB RQ TO_CACHE:  100694880
ITLB RQ MERGED:  399305177
ITLB RQ FORWARD:          0
ITLB WQ ACCESS:          0
ITLB WQ TO_CACHE:          0
ITLB WQ MERGED:          0
ITLB WQ FORWARD:          0
DTLB TOTAL     ACCESS:  165343467  HIT:  164709115  MISS:     634352
DTLB LOAD      ACCESS:  106296483  HIT:  105726480  MISS:     570003
DTLB RFO       ACCESS:   59046984  HIT:   58982635  MISS:      64349
DTLB PREFETCH  ACCESS:          0  HIT:          0  MISS:          0
DTLB WRITEBACK ACCESS:          0  HIT:          0  MISS:          0
DTLB PREFETCH  REQUESTED:          0  ISSUED:          0  USEFUL:          0  USELESS:          0
DTLB TOTAL MSHR MERGED:      99765
DTLB LOAD MSHR MERGED:      59312
DTLB RFO MSHR MERGED:      40453
DTLB PREFETCH MSHR MERGED:          0
DTLB WRITEBACK MSHR MERGED:          0
DTLB TOTAL ACCESSES:  165443232 HITS:  164709115 MISSES:     734117
DTLB LOAD ACCESSES:  106355795 HITS:  105726480 MISSES:     629315
DTLB RFO ACCESSES:   59087437 HITS:   58982635 MISSES:     104802
DTLB PREFETCH ACCESSES:          0 HITS:          0 MISSES:          0
DTLB WRITEBACK ACCESSES:          0 HITS:          0 MISSES:          0
DTLB RQ ACCESS:  200313956
DTLB RQ TO_CACHE:  165443232
DTLB RQ MERGED:   34870724
DTLB RQ FORWARD:          0
DTLB WQ ACCESS:          0
DTLB WQ TO_CACHE:          0
DTLB WQ MERGED:          0
DTLB WQ FORWARD:          0
L1D TOTAL     ACCESS:  281874214  HIT:  273964827  MISS:    7909387
L1D LOAD      ACCESS:  110430976  HIT:  107153969  MISS:    3277007
L1D RFO       ACCESS:   67131315  HIT:   66241337  MISS:     889978
L1D PREFETCH  ACCESS:  104311923  HIT:  100569521  MISS:    3742402
L1D WRITEBACK ACCESS:          0  HIT:          0  MISS:          0
L1D PREFETCH  REQUESTED:  110822866  ISSUED:  109123391  USEFUL:    1662992  USELESS:    2079374
L1D TOTAL MSHR MERGED:    2843583
L1D LOAD MSHR MERGED:     488604
L1D RFO MSHR MERGED:    1853818
L1D PREFETCH MSHR MERGED:     501161
L1D WRITEBACK MSHR MERGED:          0
L1D TOTAL ACCESSES:  284745202 HITS:  273992232 MISSES:   10752970
L1D LOAD ACCESSES:  110824275 HITS:  107155378 MISSES:    3668897
L1D RFO ACCESSES:   68973967 HITS:   66241337 MISSES:    2732630
L1D PREFETCH ACCESSES:  104946960 HITS:  100595517 MISSES:    4351443
L1D WRITEBACK ACCESSES:          0 HITS:          0 MISSES:          0
L1D RQ ACCESS:  130761353
L1D RQ TO_CACHE:  110822869
L1D RQ MERGED:   19937075
L1D RQ FORWARD:          0
L1D WQ ACCESS:   69552603
L1D WQ TO_CACHE:   68973968
L1D WQ MERGED:     578635
L1D WQ FORWARD:      27405
L1I TOTAL     ACCESS:  126568641  HIT:  122330092  MISS:    4238549
L1I LOAD      ACCESS:  126568641  HIT:  122330092  MISS:    4238549
L1I RFO       ACCESS:          0  HIT:          0  MISS:          0
L1I PREFETCH  ACCESS:          0  HIT:          0  MISS:          0
L1I WRITEBACK ACCESS:          0  HIT:          0  MISS:          0
L1I PREFETCH  REQUESTED:          0  ISSUED:          0  USEFUL:          0  USELESS:          0
L1I TOTAL MSHR MERGED:    1835651
L1I LOAD MSHR MERGED:    1835651
L1I RFO MSHR MERGED:          0
L1I PREFETCH MSHR MERGED:          0
L1I WRITEBACK MSHR MERGED:          0
L1I TOTAL ACCESSES:  128404295 HITS:  122330092 MISSES:    6074203
L1I LOAD ACCESSES:  128404295 HITS:  122330092 MISSES:    6074203
L1I RFO ACCESSES:          0 HITS:          0 MISSES:          0
L1I PREFETCH ACCESSES:          0 HITS:          0 MISSES:          0
L1I WRITEBACK ACCESSES:          0 HITS:          0 MISSES:          0
L1I RQ ACCESS:  500000057
L1I RQ TO_CACHE:  128404295
L1I RQ MERGED:  371595762
L1I RQ FORWARD:          0
L1I WQ ACCESS:          0
L1I WQ TO_CACHE:          0
L1I WQ MERGED:          0
L1I WQ FORWARD:          0
L2C TOTAL     ACCESS:   14905981  HIT:   11159493  MISS:    3746488
L2C LOAD      ACCESS:    7418638  HIT:    5098957  MISS:    2319681
L2C RFO       ACCESS:     878714  HIT:     409923  MISS:     468791
L2C PREFETCH  ACCESS:    4569368  HIT:    3628609  MISS:     940759
L2C WRITEBACK ACCESS:    2039261  HIT:    2022004  MISS:      17257
L2C PREFETCH  REQUESTED:     842622  ISSUED:     842622  USEFUL:     203606  USELESS:     736859
L2C TOTAL MSHR MERGED:       6335
L2C LOAD MSHR MERGED:        611
L2C RFO MSHR MERGED:          0
L2C PREFETCH MSHR MERGED:       5724
L2C WRITEBACK MSHR MERGED:          0
L2C TOTAL ACCESSES:   14913180 HITS:   11159939 MISSES:    3753241
L2C LOAD ACCESSES:    7418842 HITS:    5099161 MISSES:    2319681
L2C RFO ACCESSES:     878812 HITS:     410021 MISSES:     468791
L2C PREFETCH ACCESSES:    4576265 HITS:    3628753 MISSES:     947512
L2C WRITEBACK ACCESSES:    2039261 HITS:    2022004 MISSES:      17257
L2C RQ ACCESS:    8297657
L2C RQ TO_CACHE:    8297355
L2C RQ MERGED:          0
L2C RQ FORWARD:          0
L2C WQ ACCESS:    2039261
L2C WQ TO_CACHE:    2039261
L2C WQ MERGED:          0
L2C WQ FORWARD:        446
LLC TOTAL     ACCESS:    4609801  HIT:    3851566  MISS:     758235
LLC LOAD      ACCESS:    2319056  HIT:    1908571  MISS:     410485
LLC RFO       ACCESS:     468782  HIT:     421772  MISS:      47010
LLC PREFETCH  ACCESS:     941675  HIT:     660728  MISS:     280947
LLC WRITEBACK ACCESS:     880288  HIT:     860495  MISS:      19793
LLC PREFETCH  REQUESTED:          0  ISSUED:          0  USEFUL:      29437  USELESS:     251536
LLC TOTAL MSHR MERGED:         91
LLC LOAD MSHR MERGED:         34
LLC RFO MSHR MERGED:          0
LLC PREFETCH MSHR MERGED:         57
LLC WRITEBACK MSHR MERGED:          0
LLC TOTAL ACCESSES:    4609927 HITS:    3851601 MISSES:     758326
LLC LOAD ACCESSES:    2319070 HITS:    1908585 MISSES:     410485
LLC RFO ACCESSES:     468791 HITS:     421781 MISSES:      47010
LLC PREFETCH ACCESSES:     941778 HITS:     660740 MISSES:     281038
LLC WRITEBACK ACCESSES:     880288 HITS:     860495 MISSES:      19793
LLC 0 RQ ACCESS:    2787861
LLC 0 RQ TO_CACHE:    2787838
LLC 0 RQ MERGED:          0
LLC 0 RQ FORWARD:          0
LLC WQ ACCESS:     880288
LLC WQ TO_CACHE:     880288
LLC WQ MERGED:          0
LLC WQ FORWARD:         35
Major fault: 0 Minor fault: 12862
CPU 0 L1D next line prefetcher final stats
CPU 0 L2C PC-based stride prefetcher final stats
All Misses: 888099
All Hits: 4538708
SD Algo Stats - Switches: 9 SRR-Repls: 310149 BRR-Repls: 162874

DRAM Statistics
 CHANNEL 0
 RQ ROW_BUFFER_HIT:     162241  ROW_BUFFER_MISS:     574483
 DBUS_CONGESTED:     349203
 WQ ROW_BUFFER_HIT:      10552  ROW_BUFFER_MISS:     160492  FULL:          0

 AVG_CONGESTED_CYCLE: 13
LOADS RETIRED: 136549171
INSTR RETIRED: 500000000
