
*** ChampSim Multicore Out-of-Order Simulator ***

Warmup Instructions: 100000000
Simulation Instructions: 500000000
Number of CPUs: 1
LLC sets: 2048
LLC ways: 16
Clean RRIP Policies: 1213030112130301 Dirty RRIP Policies: 2213130122131301 PSEL Width: 10 Track Set: 4294967295 PSEL Mask: 1 Demote Mask: 3044201030442010DS Algo: 0Window size: 0
Off-chip DRAM Size: 4096 MB Channels: 1 Width: 64-bit Data Rate: 1600 MT/s

CPU 0 runs /mnt/beegfs/iconst01/spec2017/Cam4.trace.gz
NOT SORTED
TRACE STRING: /mnt/beegfs/iconst01/spec2017/Cam4.trace.gz
SORTED
TRACE STRING: /mnt/beegfs/iconst01/spec2017/Cam4.trace.gz
INITIAL
TRACE STRING: /mnt/beegfs/iconst01/spec2017/Cam4.trace.gz

champsim_seed used: 325

CPU 0 L1D next line prefetcher
CPU 0 L2C IP-based stride prefetcher
Initialize DRRIP state
Assign rand_sets[0]: 454  LLC: 2048
rand_sets[0]: 454
Assign rand_sets[1]: 1662  LLC: 2048
rand_sets[1]: 1662
Assign rand_sets[2]: 1921  LLC: 2048
rand_sets[2]: 1921
Assign rand_sets[3]: 1131  LLC: 2048
rand_sets[3]: 1131
Assign rand_sets[4]: 331  LLC: 2048
rand_sets[4]: 331
Assign rand_sets[5]: 1531  LLC: 2048
rand_sets[5]: 1531
Assign rand_sets[6]: 482  LLC: 2048
rand_sets[6]: 482
Assign rand_sets[7]: 1275  LLC: 2048
rand_sets[7]: 1275
Assign rand_sets[8]: 1876  LLC: 2048
rand_sets[8]: 1876
Assign rand_sets[9]: 2038  LLC: 2048
rand_sets[9]: 2038
Assign rand_sets[10]: 701  LLC: 2048
rand_sets[10]: 701
Assign rand_sets[11]: 479  LLC: 2048
rand_sets[11]: 479
Assign rand_sets[12]: 892  LLC: 2048
rand_sets[12]: 892
Assign rand_sets[13]: 1820  LLC: 2048
rand_sets[13]: 1820
Assign rand_sets[14]: 1505  LLC: 2048
rand_sets[14]: 1505
Assign rand_sets[15]: 1159  LLC: 2048
rand_sets[15]: 1159
Assign rand_sets[16]: 513  LLC: 2048
rand_sets[16]: 513
Assign rand_sets[17]: 703  LLC: 2048
rand_sets[17]: 703
Assign rand_sets[18]: 561  LLC: 2048
rand_sets[18]: 561
Assign rand_sets[19]: 990  LLC: 2048
rand_sets[19]: 990
Assign rand_sets[20]: 342  LLC: 2048
rand_sets[20]: 342
Assign rand_sets[21]: 882  LLC: 2048
rand_sets[21]: 882
Assign rand_sets[22]: 15  LLC: 2048
rand_sets[22]: 15
Assign rand_sets[23]: 71  LLC: 2048
rand_sets[23]: 71
Assign rand_sets[24]: 1127  LLC: 2048
rand_sets[24]: 1127
Assign rand_sets[25]: 1382  LLC: 2048
rand_sets[25]: 1382
Assign rand_sets[26]: 647  LLC: 2048
rand_sets[26]: 647
Assign rand_sets[27]: 857  LLC: 2048
rand_sets[27]: 857
Assign rand_sets[28]: 1450  LLC: 2048
rand_sets[28]: 1450
Assign rand_sets[29]: 1160  LLC: 2048
rand_sets[29]: 1160
Assign rand_sets[30]: 1852  LLC: 2048
rand_sets[30]: 1852
Assign rand_sets[31]: 1881  LLC: 2048
rand_sets[31]: 1881
Assign rand_sets[32]: 1770  LLC: 2048
rand_sets[32]: 1770
Assign rand_sets[33]: 1622  LLC: 2048
rand_sets[33]: 1622
Assign rand_sets[34]: 275  LLC: 2048
rand_sets[34]: 275
Assign rand_sets[35]: 635  LLC: 2048
rand_sets[35]: 635
Assign rand_sets[36]: 466  LLC: 2048
rand_sets[36]: 466
Assign rand_sets[37]: 1413  LLC: 2048
rand_sets[37]: 1413
Assign rand_sets[38]: 417  LLC: 2048
rand_sets[38]: 417
Assign rand_sets[39]: 472  LLC: 2048
rand_sets[39]: 472
Assign rand_sets[40]: 1340  LLC: 2048
rand_sets[40]: 1340
Assign rand_sets[41]: 852  LLC: 2048
rand_sets[41]: 852
Assign rand_sets[42]: 1365  LLC: 2048
rand_sets[42]: 1365
Assign rand_sets[43]: 47  LLC: 2048
rand_sets[43]: 47
Assign rand_sets[44]: 823  LLC: 2048
rand_sets[44]: 823
Assign rand_sets[45]: 686  LLC: 2048
rand_sets[45]: 686
Assign rand_sets[46]: 1637  LLC: 2048
rand_sets[46]: 1637
Assign rand_sets[47]: 1115  LLC: 2048
rand_sets[47]: 1115
Assign rand_sets[48]: 986  LLC: 2048
rand_sets[48]: 986
Assign rand_sets[49]: 258  LLC: 2048
rand_sets[49]: 258
Assign rand_sets[50]: 633  LLC: 2048
rand_sets[50]: 633
Assign rand_sets[51]: 920  LLC: 2048
rand_sets[51]: 920
Assign rand_sets[52]: 204  LLC: 2048
rand_sets[52]: 204
Assign rand_sets[53]: 227  LLC: 2048
rand_sets[53]: 227
Assign rand_sets[54]: 1818  LLC: 2048
rand_sets[54]: 1818
Assign rand_sets[55]: 886  LLC: 2048
rand_sets[55]: 886
Assign rand_sets[56]: 1422  LLC: 2048
rand_sets[56]: 1422
Assign rand_sets[57]: 607  LLC: 2048
rand_sets[57]: 607
Assign rand_sets[58]: 217  LLC: 2048
rand_sets[58]: 217
Assign rand_sets[59]: 1945  LLC: 2048
rand_sets[59]: 1945
Assign rand_sets[60]: 143  LLC: 2048
rand_sets[60]: 143
Assign rand_sets[61]: 1311  LLC: 2048
rand_sets[61]: 1311
Assign rand_sets[62]: 319  LLC: 2048
rand_sets[62]: 319
Assign rand_sets[63]: 1846  LLC: 2048
rand_sets[63]: 1846
 CLEAN-RRIP-POLICY-1: 1-2-1-3-0-3-0-1- CLEAN-RRIP-POLICY-2: 1-2-1-3-0-3-0-1-
 DIRTY-RRIP-POLICY-1: 2-2-1-3-1-3-0-1- DIRTY-RRIP-POLICY-2: 2-2-1-3-1-3-0-1-
 PSEL width: 10
Heartbeat CPU 0 instructions: 10000000 cycles: 4859184 heartbeat IPC: 2.05796 cumulative IPC: 2.05796 (Simulation time: 0 hr 0 min 16 sec) 
Heartbeat CPU 0 instructions: 20000000 cycles: 9790786 heartbeat IPC: 2.02774 cumulative IPC: 2.04274 (Simulation time: 0 hr 0 min 33 sec) 
Heartbeat CPU 0 instructions: 30000001 cycles: 14563049 heartbeat IPC: 2.09544 cumulative IPC: 2.06001 (Simulation time: 0 hr 0 min 48 sec) 
Heartbeat CPU 0 instructions: 40000000 cycles: 19400065 heartbeat IPC: 2.06739 cumulative IPC: 2.06185 (Simulation time: 0 hr 1 min 4 sec) 
Heartbeat CPU 0 instructions: 50000000 cycles: 24256597 heartbeat IPC: 2.05908 cumulative IPC: 2.06129 (Simulation time: 0 hr 1 min 21 sec) 
Heartbeat CPU 0 instructions: 60000000 cycles: 29182071 heartbeat IPC: 2.03026 cumulative IPC: 2.05606 (Simulation time: 0 hr 1 min 38 sec) 
Heartbeat CPU 0 instructions: 70000001 cycles: 33956899 heartbeat IPC: 2.09432 cumulative IPC: 2.06144 (Simulation time: 0 hr 1 min 53 sec) 
Heartbeat CPU 0 instructions: 80000000 cycles: 38793196 heartbeat IPC: 2.0677 cumulative IPC: 2.06222 (Simulation time: 0 hr 2 min 9 sec) 
Heartbeat CPU 0 instructions: 90000002 cycles: 43647278 heartbeat IPC: 2.06012 cumulative IPC: 2.06198 (Simulation time: 0 hr 2 min 27 sec) 
Heartbeat CPU 0 instructions: 100000000 cycles: 48566121 heartbeat IPC: 2.033 cumulative IPC: 2.05905 (Simulation time: 0 hr 2 min 44 sec) 

Warmup complete CPU 0 instructions: 100000001 cycles: 48566122 (Simulation time: 0 hr 2 min 44 sec) 

Heartbeat CPU 0 instructions: 110000000 cycles: 61739399 heartbeat IPC: 0.759112 cumulative IPC: 0.759112 (Simulation time: 0 hr 3 min 7 sec) 
Heartbeat CPU 0 instructions: 120000000 cycles: 75501612 heartbeat IPC: 0.726627 cumulative IPC: 0.742515 (Simulation time: 0 hr 3 min 32 sec) 
Heartbeat CPU 0 instructions: 130000000 cycles: 89258174 heartbeat IPC: 0.726926 cumulative IPC: 0.737245 (Simulation time: 0 hr 3 min 57 sec) 
Heartbeat CPU 0 instructions: 140000000 cycles: 103533946 heartbeat IPC: 0.700487 cumulative IPC: 0.727698 (Simulation time: 0 hr 4 min 22 sec) 
Heartbeat CPU 0 instructions: 150000003 cycles: 116779552 heartbeat IPC: 0.754968 cumulative IPC: 0.732994 (Simulation time: 0 hr 4 min 46 sec) 
Heartbeat CPU 0 instructions: 160000000 cycles: 130541226 heartbeat IPC: 0.726656 cumulative IPC: 0.73193 (Simulation time: 0 hr 5 min 11 sec) 
Heartbeat CPU 0 instructions: 170000001 cycles: 144337261 heartbeat IPC: 0.724846 cumulative IPC: 0.730909 (Simulation time: 0 hr 5 min 36 sec) 
Heartbeat CPU 0 instructions: 180000000 cycles: 158591823 heartbeat IPC: 0.70153 cumulative IPC: 0.727103 (Simulation time: 0 hr 6 min 1 sec) 
Heartbeat CPU 0 instructions: 190000003 cycles: 171803875 heartbeat IPC: 0.756885 cumulative IPC: 0.730296 (Simulation time: 0 hr 6 min 25 sec) 
Heartbeat CPU 0 instructions: 200000000 cycles: 185565659 heartbeat IPC: 0.72665 cumulative IPC: 0.729929 (Simulation time: 0 hr 6 min 50 sec) 
Heartbeat CPU 0 instructions: 210000002 cycles: 199358397 heartbeat IPC: 0.725019 cumulative IPC: 0.72948 (Simulation time: 0 hr 7 min 15 sec) 
Heartbeat CPU 0 instructions: 220000000 cycles: 213609166 heartbeat IPC: 0.701716 cumulative IPC: 0.727083 (Simulation time: 0 hr 7 min 40 sec) 
Heartbeat CPU 0 instructions: 230000001 cycles: 226750416 heartbeat IPC: 0.760963 cumulative IPC: 0.729582 (Simulation time: 0 hr 8 min 3 sec) 
Heartbeat CPU 0 instructions: 240000000 cycles: 240505554 heartbeat IPC: 0.727001 cumulative IPC: 0.729397 (Simulation time: 0 hr 8 min 29 sec) 
Heartbeat CPU 0 instructions: 250000001 cycles: 254248517 heartbeat IPC: 0.727645 cumulative IPC: 0.72928 (Simulation time: 0 hr 8 min 54 sec) 
Heartbeat CPU 0 instructions: 260000000 cycles: 268398376 heartbeat IPC: 0.706721 cumulative IPC: 0.727828 (Simulation time: 0 hr 9 min 19 sec) 
Heartbeat CPU 0 instructions: 270000003 cycles: 281666054 heartbeat IPC: 0.753712 cumulative IPC: 0.729301 (Simulation time: 0 hr 9 min 42 sec) 
Heartbeat CPU 0 instructions: 280000000 cycles: 295433660 heartbeat IPC: 0.726342 cumulative IPC: 0.729136 (Simulation time: 0 hr 10 min 7 sec) 
Heartbeat CPU 0 instructions: 290000001 cycles: 309218183 heartbeat IPC: 0.725451 cumulative IPC: 0.728941 (Simulation time: 0 hr 10 min 33 sec) 
Heartbeat CPU 0 instructions: 300000000 cycles: 323304151 heartbeat IPC: 0.709926 cumulative IPC: 0.727966 (Simulation time: 0 hr 10 min 58 sec) 
Heartbeat CPU 0 instructions: 310000000 cycles: 336577740 heartbeat IPC: 0.753376 cumulative IPC: 0.729137 (Simulation time: 0 hr 11 min 21 sec) 
Heartbeat CPU 0 instructions: 320000000 cycles: 350385905 heartbeat IPC: 0.724209 cumulative IPC: 0.728912 (Simulation time: 0 hr 11 min 46 sec) 
Heartbeat CPU 0 instructions: 330000000 cycles: 364185210 heartbeat IPC: 0.724674 cumulative IPC: 0.728727 (Simulation time: 0 hr 12 min 11 sec) 
Heartbeat CPU 0 instructions: 340000000 cycles: 378245725 heartbeat IPC: 0.711212 cumulative IPC: 0.72798 (Simulation time: 0 hr 12 min 36 sec) 
Heartbeat CPU 0 instructions: 350000000 cycles: 391586602 heartbeat IPC: 0.749576 cumulative IPC: 0.728819 (Simulation time: 0 hr 12 min 59 sec) 
Heartbeat CPU 0 instructions: 360000000 cycles: 405420060 heartbeat IPC: 0.722885 cumulative IPC: 0.728589 (Simulation time: 0 hr 13 min 23 sec) 
Heartbeat CPU 0 instructions: 370000003 cycles: 419225079 heartbeat IPC: 0.724374 cumulative IPC: 0.728432 (Simulation time: 0 hr 13 min 48 sec) 
Heartbeat CPU 0 instructions: 380000000 cycles: 433251826 heartbeat IPC: 0.712923 cumulative IPC: 0.727867 (Simulation time: 0 hr 14 min 13 sec) 
Heartbeat CPU 0 instructions: 390000003 cycles: 446589351 heartbeat IPC: 0.749765 cumulative IPC: 0.728601 (Simulation time: 0 hr 14 min 35 sec) 
Heartbeat CPU 0 instructions: 400000000 cycles: 460423122 heartbeat IPC: 0.722869 cumulative IPC: 0.728408 (Simulation time: 0 hr 15 min 0 sec) 
Heartbeat CPU 0 instructions: 410000000 cycles: 474193774 heartbeat IPC: 0.726182 cumulative IPC: 0.728336 (Simulation time: 0 hr 15 min 25 sec) 
Heartbeat CPU 0 instructions: 420000000 cycles: 488206177 heartbeat IPC: 0.713653 cumulative IPC: 0.727868 (Simulation time: 0 hr 15 min 49 sec) 
Heartbeat CPU 0 instructions: 430000003 cycles: 501560655 heartbeat IPC: 0.748813 cumulative IPC: 0.728486 (Simulation time: 0 hr 16 min 11 sec) 
Heartbeat CPU 0 instructions: 440000000 cycles: 515392094 heartbeat IPC: 0.72299 cumulative IPC: 0.728323 (Simulation time: 0 hr 16 min 36 sec) 
Heartbeat CPU 0 instructions: 450000000 cycles: 529187337 heartbeat IPC: 0.724888 cumulative IPC: 0.728224 (Simulation time: 0 hr 17 min 0 sec) 
Heartbeat CPU 0 instructions: 460000000 cycles: 543182977 heartbeat IPC: 0.714508 cumulative IPC: 0.727836 (Simulation time: 0 hr 17 min 24 sec) 
Heartbeat CPU 0 instructions: 470000001 cycles: 556524010 heartbeat IPC: 0.749567 cumulative IPC: 0.728407 (Simulation time: 0 hr 17 min 46 sec) 
Heartbeat CPU 0 instructions: 480000000 cycles: 570330803 heartbeat IPC: 0.724281 cumulative IPC: 0.728298 (Simulation time: 0 hr 18 min 10 sec) 
Heartbeat CPU 0 instructions: 490000002 cycles: 584098644 heartbeat IPC: 0.72633 cumulative IPC: 0.728247 (Simulation time: 0 hr 18 min 34 sec) 
Heartbeat CPU 0 instructions: 500000000 cycles: 598092464 heartbeat IPC: 0.714601 cumulative IPC: 0.7279 (Simulation time: 0 hr 18 min 58 sec) 
Heartbeat CPU 0 instructions: 510000002 cycles: 611474115 heartbeat IPC: 0.747292 cumulative IPC: 0.728361 (Simulation time: 0 hr 19 min 20 sec) 
Heartbeat CPU 0 instructions: 520000000 cycles: 625270007 heartbeat IPC: 0.724853 cumulative IPC: 0.728277 (Simulation time: 0 hr 19 min 44 sec) 
Heartbeat CPU 0 instructions: 530000003 cycles: 639022553 heartbeat IPC: 0.727138 cumulative IPC: 0.72825 (Simulation time: 0 hr 20 min 8 sec) 
Heartbeat CPU 0 instructions: 540000000 cycles: 653038594 heartbeat IPC: 0.713468 cumulative IPC: 0.727907 (Simulation time: 0 hr 20 min 32 sec) 
Heartbeat CPU 0 instructions: 550000003 cycles: 666404373 heartbeat IPC: 0.74818 cumulative IPC: 0.728346 (Simulation time: 0 hr 20 min 54 sec) 
Heartbeat CPU 0 instructions: 560000000 cycles: 680175968 heartbeat IPC: 0.726132 cumulative IPC: 0.728298 (Simulation time: 0 hr 21 min 18 sec) 
Heartbeat CPU 0 instructions: 570000001 cycles: 693951944 heartbeat IPC: 0.725901 cumulative IPC: 0.728247 (Simulation time: 0 hr 21 min 42 sec) 
Heartbeat CPU 0 instructions: 580000000 cycles: 707991955 heartbeat IPC: 0.71225 cumulative IPC: 0.727906 (Simulation time: 0 hr 22 min 6 sec) 
Heartbeat CPU 0 instructions: 590000000 cycles: 721292809 heartbeat IPC: 0.751831 cumulative IPC: 0.728379 (Simulation time: 0 hr 22 min 28 sec) 
Heartbeat CPU 0 instructions: 600000000 cycles: 735075799 heartbeat IPC: 0.725532 cumulative IPC: 0.728322 (Simulation time: 0 hr 22 min 52 sec) 
Finished CPU 0 instructions: 500000001 cycles: 686509685 cumulative IPC: 0.728322 (Simulation time: 0 hr 22 min 52 sec) 

CPU 0 Branch Prediction Accuracy: 97.5275% MPKI: 2.1997
Number of Branches: 44482865 Number of Mispredictions: 1099852
Number of LOAD Instructions: 144955155
Number of LOAD Instructions (ROI): 144955155
Number of STORE Instructions: 55921098
Number of STORE Instructions (ROI): 55921098
Total Destination Memory Operands: 57111147
Total Destination Memory Operands (ROI): 57111147
Total Source Memory Operands: 144955155
Total Source Memory Operands (ROI): 144955155
Number of DEPENDED LOADS: 13454700
Number of DEPENDED LOADS (ROI): 13454700
Number of SQ_ADDED: 57111126
Number of SQ_ADDED (ROI): 57111126
Number of LQ_ADDED: 174447100
Number of LQ_ADDED (ROI): 174447100
Number of Instructions read from trace: 600000256

ChampSim completed all CPUs

Region of Interest Statistics

CPU 0 cumulative IPC: 0.728322 instructions: 500000001 cycles: 686509685
ITLB TOTAL     ACCESS:  136067928  HIT:  136065375  MISS:       2553
ITLB LOAD      ACCESS:  136067928  HIT:  136065375  MISS:       2553
ITLB RFO       ACCESS:          0  HIT:          0  MISS:          0
ITLB PREFETCH  ACCESS:          0  HIT:          0  MISS:          0
ITLB WRITEBACK ACCESS:          0  HIT:          0  MISS:          0
ITLB PREFETCH  REQUESTED:          0  ISSUED:          0  USEFUL:          0  USELESS:          0
ITLB TOTAL MSHR MERGED:       4389
ITLB LOAD MSHR MERGED:       4389
ITLB RFO MSHR MERGED:          0
ITLB PREFETCH MSHR MERGED:          0
ITLB WRITEBACK MSHR MERGED:          0
ITLB TOTAL ACCESSES:  136072317 HITS:  136065375 MISSES:       6942
ITLB LOAD ACCESSES:  136072317 HITS:  136065375 MISSES:       6942
ITLB RFO ACCESSES:          0 HITS:          0 MISSES:          0
ITLB PREFETCH ACCESSES:          0 HITS:          0 MISSES:          0
ITLB WRITEBACK ACCESSES:          0 HITS:          0 MISSES:          0
ITLB RQ ACCESS:  500000202
ITLB RQ TO_CACHE:  136072317
ITLB RQ MERGED:  363927885
ITLB RQ FORWARD:          0
ITLB WQ ACCESS:          0
ITLB WQ TO_CACHE:          0
ITLB WQ MERGED:          0
ITLB WQ FORWARD:          0
DTLB TOTAL     ACCESS:  111546185  HIT:  111409987  MISS:     136198
DTLB LOAD      ACCESS:   78948776  HIT:   78823147  MISS:     125629
DTLB RFO       ACCESS:   32597409  HIT:   32586840  MISS:      10569
DTLB PREFETCH  ACCESS:          0  HIT:          0  MISS:          0
DTLB WRITEBACK ACCESS:          0  HIT:          0  MISS:          0
DTLB PREFETCH  REQUESTED:          0  ISSUED:          0  USEFUL:          0  USELESS:          0
DTLB TOTAL MSHR MERGED:      63514
DTLB LOAD MSHR MERGED:      50956
DTLB RFO MSHR MERGED:      12558
DTLB PREFETCH MSHR MERGED:          0
DTLB WRITEBACK MSHR MERGED:          0
DTLB TOTAL ACCESSES:  111609699 HITS:  111409987 MISSES:     199712
DTLB LOAD ACCESSES:   78999732 HITS:   78823147 MISSES:     176585
DTLB RFO ACCESSES:   32609967 HITS:   32586840 MISSES:      23127
DTLB PREFETCH ACCESSES:          0 HITS:          0 MISSES:          0
DTLB WRITEBACK ACCESSES:          0 HITS:          0 MISSES:          0
DTLB RQ ACCESS:  157180728
DTLB RQ TO_CACHE:  111609699
DTLB RQ MERGED:   45571029
DTLB RQ FORWARD:          0
DTLB WQ ACCESS:          0
DTLB WQ TO_CACHE:          0
DTLB WQ MERGED:          0
DTLB WQ FORWARD:          0
L1D TOTAL     ACCESS:  198186612  HIT:  188345556  MISS:    9841056
L1D LOAD      ACCESS:   79943274  HIT:   75676144  MISS:    4267130
L1D RFO       ACCESS:   44508280  HIT:   43607795  MISS:     900485
L1D PREFETCH  ACCESS:   73735058  HIT:   69061617  MISS:    4673441
L1D WRITEBACK ACCESS:          0  HIT:          0  MISS:          0
L1D PREFETCH  REQUESTED:   80344773  ISSUED:   79889051  USEFUL:    1815127  USELESS:    2858223
L1D TOTAL MSHR MERGED:    2544969
L1D LOAD MSHR MERGED:     529901
L1D RFO MSHR MERGED:    1444481
L1D PREFETCH MSHR MERGED:     570587
L1D WRITEBACK MSHR MERGED:          0
L1D TOTAL ACCESSES:  200752831 HITS:  188366806 MISSES:   12386025
L1D LOAD ACCESSES:   80357381 HITS:   75688752 MISSES:    4668629
L1D RFO ACCESSES:   45949705 HITS:   43607795 MISSES:    2341910
L1D PREFETCH ACCESSES:   74445745 HITS:   69070259 MISSES:    5375486
L1D WRITEBACK ACCESSES:          0 HITS:          0 MISSES:          0
L1D RQ ACCESS:  109538758
L1D RQ TO_CACHE:   80344773
L1D RQ MERGED:   29181377
L1D RQ FORWARD:          0
L1D WQ ACCESS:   47641970
L1D WQ TO_CACHE:   45949705
L1D WQ MERGED:    1692265
L1D WQ FORWARD:      21250
L1I TOTAL     ACCESS:  161538821  HIT:  161274855  MISS:     263966
L1I LOAD      ACCESS:  161538821  HIT:  161274855  MISS:     263966
L1I RFO       ACCESS:          0  HIT:          0  MISS:          0
L1I PREFETCH  ACCESS:          0  HIT:          0  MISS:          0
L1I WRITEBACK ACCESS:          0  HIT:          0  MISS:          0
L1I PREFETCH  REQUESTED:          0  ISSUED:          0  USEFUL:          0  USELESS:          0
L1I TOTAL MSHR MERGED:     260653
L1I LOAD MSHR MERGED:     260653
L1I RFO MSHR MERGED:          0
L1I PREFETCH MSHR MERGED:          0
L1I WRITEBACK MSHR MERGED:          0
L1I TOTAL ACCESSES:  161799474 HITS:  161274855 MISSES:     524619
L1I LOAD ACCESSES:  161799474 HITS:  161274855 MISSES:     524619
L1I RFO ACCESSES:          0 HITS:          0 MISSES:          0
L1I PREFETCH ACCESSES:          0 HITS:          0 MISSES:          0
L1I WRITEBACK ACCESSES:          0 HITS:          0 MISSES:          0
L1I RQ ACCESS:  500000202
L1I RQ TO_CACHE:  161799474
L1I RQ MERGED:  338200728
L1I RQ FORWARD:          0
L1I WQ ACCESS:          0
L1I WQ TO_CACHE:          0
L1I WQ MERGED:          0
L1I WQ FORWARD:          0
L2C TOTAL     ACCESS:   11771791  HIT:   10382498  MISS:    1389293
L2C LOAD      ACCESS:    4402628  HIT:    3905968  MISS:     496660
L2C RFO       ACCESS:     897364  HIT:     536332  MISS:     361032
L2C PREFETCH  ACCESS:    5284263  HIT:    4755606  MISS:     528657
L2C WRITEBACK ACCESS:    1187536  HIT:    1184592  MISS:       2944
L2C PREFETCH  REQUESTED:     504712  ISSUED:     504712  USEFUL:     115024  USELESS:     413825
L2C TOTAL MSHR MERGED:       2129
L2C LOAD MSHR MERGED:        428
L2C RFO MSHR MERGED:          0
L2C PREFETCH MSHR MERGED:       1701
L2C WRITEBACK MSHR MERGED:          0
L2C TOTAL ACCESSES:   11776617 HITS:   10382714 MISSES:    1393903
L2C LOAD ACCESSES:    4402694 HITS:    3906034 MISSES:     496660
L2C RFO ACCESSES:     897429 HITS:     536397 MISSES:     361032
L2C PREFETCH ACCESSES:    5288958 HITS:    4755691 MISSES:     533267
L2C WRITEBACK ACCESSES:    1187536 HITS:    1184592 MISSES:       2944
L2C RQ ACCESS:    5300123
L2C RQ TO_CACHE:    5299992
L2C RQ MERGED:          0
L2C RQ FORWARD:          0
L2C WQ ACCESS:    1187536
L2C WQ TO_CACHE:    1187536
L2C WQ MERGED:          0
L2C WQ FORWARD:        216
LLC TOTAL     ACCESS:    1849450  HIT:    1065710  MISS:     783740
LLC LOAD      ACCESS:     496230  HIT:     251302  MISS:     244928
LLC RFO       ACCESS:     361031  HIT:     200470  MISS:     160561
LLC PREFETCH  ACCESS:     531456  HIT:     298957  MISS:     232499
LLC WRITEBACK ACCESS:     460733  HIT:     314981  MISS:     145752
LLC PREFETCH  REQUESTED:          0  ISSUED:          0  USEFUL:       4283  USELESS:     228420
LLC TOTAL MSHR MERGED:         86
LLC LOAD MSHR MERGED:         31
LLC RFO MSHR MERGED:          0
LLC PREFETCH MSHR MERGED:         55
LLC WRITEBACK MSHR MERGED:          0
LLC TOTAL ACCESSES:    1849559 HITS:    1065733 MISSES:     783826
LLC LOAD ACCESSES:     496232 HITS:     251304 MISSES:     244928
LLC RFO ACCESSES:     361032 HITS:     200471 MISSES:     160561
LLC PREFETCH ACCESSES:     531562 HITS:     298977 MISSES:     232585
LLC WRITEBACK ACCESSES:     460733 HITS:     314981 MISSES:     145752
LLC 0 RQ ACCESS:     857264
LLC 0 RQ TO_CACHE:     857261
LLC 0 RQ MERGED:          0
LLC 0 RQ FORWARD:          0
LLC WQ ACCESS:     460733
LLC WQ TO_CACHE:     460733
LLC WQ MERGED:          0
LLC WQ FORWARD:         23
Major fault: 0 Minor fault: 3073
CPU 0 L1D next line prefetcher final stats
CPU 0 L2C PC-based stride prefetcher final stats
All Misses: 953823
All Hits: 1222319
SD Algo Stats - Switches: 0 SRR-Repls: 284099 BRR-Repls: 0

DRAM Statistics
 CHANNEL 0
 RQ ROW_BUFFER_HIT:     410689  ROW_BUFFER_MISS:     226947
 DBUS_CONGESTED:     473530
 WQ ROW_BUFFER_HIT:      31110  ROW_BUFFER_MISS:     141684  FULL:          0

 AVG_CONGESTED_CYCLE: 13
LOADS RETIRED: 120673965
INSTR RETIRED: 500000000
