
*** ChampSim Multicore Out-of-Order Simulator ***

Warmup Instructions: 100000000
Simulation Instructions: 500000000
Number of CPUs: 1
LLC sets: 2048
LLC ways: 16
Clean RRIP Policies: 2101131321011313 Dirty RRIP Policies: 2121032321210323 PSEL Width: 10 Track Set: 4294967295 PSEL Mask: 1 Demote Mask: 2113012421130124DS Algo: 0Window size: 0
Off-chip DRAM Size: 4096 MB Channels: 1 Width: 64-bit Data Rate: 1600 MT/s

CPU 0 runs /mnt/beegfs/iconst01/spec2017/Fotonik3d.trace.gz
NOT SORTED
TRACE STRING: /mnt/beegfs/iconst01/spec2017/Fotonik3d.trace.gz
SORTED
TRACE STRING: /mnt/beegfs/iconst01/spec2017/Fotonik3d.trace.gz
INITIAL
TRACE STRING: /mnt/beegfs/iconst01/spec2017/Fotonik3d.trace.gz

champsim_seed used: 881

CPU 0 L1D next line prefetcher
CPU 0 L2C IP-based stride prefetcher
Initialize DRRIP state
Assign rand_sets[0]: 454  LLC: 2048
rand_sets[0]: 454
Assign rand_sets[1]: 1662  LLC: 2048
rand_sets[1]: 1662
Assign rand_sets[2]: 1921  LLC: 2048
rand_sets[2]: 1921
Assign rand_sets[3]: 1131  LLC: 2048
rand_sets[3]: 1131
Assign rand_sets[4]: 331  LLC: 2048
rand_sets[4]: 331
Assign rand_sets[5]: 1531  LLC: 2048
rand_sets[5]: 1531
Assign rand_sets[6]: 482  LLC: 2048
rand_sets[6]: 482
Assign rand_sets[7]: 1275  LLC: 2048
rand_sets[7]: 1275
Assign rand_sets[8]: 1876  LLC: 2048
rand_sets[8]: 1876
Assign rand_sets[9]: 2038  LLC: 2048
rand_sets[9]: 2038
Assign rand_sets[10]: 701  LLC: 2048
rand_sets[10]: 701
Assign rand_sets[11]: 479  LLC: 2048
rand_sets[11]: 479
Assign rand_sets[12]: 892  LLC: 2048
rand_sets[12]: 892
Assign rand_sets[13]: 1820  LLC: 2048
rand_sets[13]: 1820
Assign rand_sets[14]: 1505  LLC: 2048
rand_sets[14]: 1505
Assign rand_sets[15]: 1159  LLC: 2048
rand_sets[15]: 1159
Assign rand_sets[16]: 513  LLC: 2048
rand_sets[16]: 513
Assign rand_sets[17]: 703  LLC: 2048
rand_sets[17]: 703
Assign rand_sets[18]: 561  LLC: 2048
rand_sets[18]: 561
Assign rand_sets[19]: 990  LLC: 2048
rand_sets[19]: 990
Assign rand_sets[20]: 342  LLC: 2048
rand_sets[20]: 342
Assign rand_sets[21]: 882  LLC: 2048
rand_sets[21]: 882
Assign rand_sets[22]: 15  LLC: 2048
rand_sets[22]: 15
Assign rand_sets[23]: 71  LLC: 2048
rand_sets[23]: 71
Assign rand_sets[24]: 1127  LLC: 2048
rand_sets[24]: 1127
Assign rand_sets[25]: 1382  LLC: 2048
rand_sets[25]: 1382
Assign rand_sets[26]: 647  LLC: 2048
rand_sets[26]: 647
Assign rand_sets[27]: 857  LLC: 2048
rand_sets[27]: 857
Assign rand_sets[28]: 1450  LLC: 2048
rand_sets[28]: 1450
Assign rand_sets[29]: 1160  LLC: 2048
rand_sets[29]: 1160
Assign rand_sets[30]: 1852  LLC: 2048
rand_sets[30]: 1852
Assign rand_sets[31]: 1881  LLC: 2048
rand_sets[31]: 1881
Assign rand_sets[32]: 1770  LLC: 2048
rand_sets[32]: 1770
Assign rand_sets[33]: 1622  LLC: 2048
rand_sets[33]: 1622
Assign rand_sets[34]: 275  LLC: 2048
rand_sets[34]: 275
Assign rand_sets[35]: 635  LLC: 2048
rand_sets[35]: 635
Assign rand_sets[36]: 466  LLC: 2048
rand_sets[36]: 466
Assign rand_sets[37]: 1413  LLC: 2048
rand_sets[37]: 1413
Assign rand_sets[38]: 417  LLC: 2048
rand_sets[38]: 417
Assign rand_sets[39]: 472  LLC: 2048
rand_sets[39]: 472
Assign rand_sets[40]: 1340  LLC: 2048
rand_sets[40]: 1340
Assign rand_sets[41]: 852  LLC: 2048
rand_sets[41]: 852
Assign rand_sets[42]: 1365  LLC: 2048
rand_sets[42]: 1365
Assign rand_sets[43]: 47  LLC: 2048
rand_sets[43]: 47
Assign rand_sets[44]: 823  LLC: 2048
rand_sets[44]: 823
Assign rand_sets[45]: 686  LLC: 2048
rand_sets[45]: 686
Assign rand_sets[46]: 1637  LLC: 2048
rand_sets[46]: 1637
Assign rand_sets[47]: 1115  LLC: 2048
rand_sets[47]: 1115
Assign rand_sets[48]: 986  LLC: 2048
rand_sets[48]: 986
Assign rand_sets[49]: 258  LLC: 2048
rand_sets[49]: 258
Assign rand_sets[50]: 633  LLC: 2048
rand_sets[50]: 633
Assign rand_sets[51]: 920  LLC: 2048
rand_sets[51]: 920
Assign rand_sets[52]: 204  LLC: 2048
rand_sets[52]: 204
Assign rand_sets[53]: 227  LLC: 2048
rand_sets[53]: 227
Assign rand_sets[54]: 1818  LLC: 2048
rand_sets[54]: 1818
Assign rand_sets[55]: 886  LLC: 2048
rand_sets[55]: 886
Assign rand_sets[56]: 1422  LLC: 2048
rand_sets[56]: 1422
Assign rand_sets[57]: 607  LLC: 2048
rand_sets[57]: 607
Assign rand_sets[58]: 217  LLC: 2048
rand_sets[58]: 217
Assign rand_sets[59]: 1945  LLC: 2048
rand_sets[59]: 1945
Assign rand_sets[60]: 143  LLC: 2048
rand_sets[60]: 143
Assign rand_sets[61]: 1311  LLC: 2048
rand_sets[61]: 1311
Assign rand_sets[62]: 319  LLC: 2048
rand_sets[62]: 319
Assign rand_sets[63]: 1846  LLC: 2048
rand_sets[63]: 1846
 CLEAN-RRIP-POLICY-1: 2-1-0-1-1-3-1-3- CLEAN-RRIP-POLICY-2: 2-1-0-1-1-3-1-3-
 DIRTY-RRIP-POLICY-1: 2-1-2-1-0-3-2-3- DIRTY-RRIP-POLICY-2: 2-1-2-1-0-3-2-3-
 PSEL width: 10
Heartbeat CPU 0 instructions: 10000002 cycles: 7306873 heartbeat IPC: 1.36857 cumulative IPC: 1.36857 (Simulation time: 0 hr 0 min 24 sec) 
Heartbeat CPU 0 instructions: 20000000 cycles: 14613976 heartbeat IPC: 1.36853 cumulative IPC: 1.36855 (Simulation time: 0 hr 0 min 49 sec) 
Heartbeat CPU 0 instructions: 30000001 cycles: 21920956 heartbeat IPC: 1.36855 cumulative IPC: 1.36855 (Simulation time: 0 hr 1 min 13 sec) 
Heartbeat CPU 0 instructions: 40000000 cycles: 29227799 heartbeat IPC: 1.36858 cumulative IPC: 1.36856 (Simulation time: 0 hr 1 min 38 sec) 
Heartbeat CPU 0 instructions: 50000001 cycles: 36534588 heartbeat IPC: 1.36859 cumulative IPC: 1.36857 (Simulation time: 0 hr 2 min 3 sec) 
Heartbeat CPU 0 instructions: 60000000 cycles: 43841655 heartbeat IPC: 1.36854 cumulative IPC: 1.36856 (Simulation time: 0 hr 2 min 29 sec) 
Heartbeat CPU 0 instructions: 70000002 cycles: 51148508 heartbeat IPC: 1.36858 cumulative IPC: 1.36856 (Simulation time: 0 hr 2 min 54 sec) 
Heartbeat CPU 0 instructions: 80000000 cycles: 58455323 heartbeat IPC: 1.36859 cumulative IPC: 1.36857 (Simulation time: 0 hr 3 min 20 sec) 
Heartbeat CPU 0 instructions: 90000003 cycles: 65765978 heartbeat IPC: 1.36787 cumulative IPC: 1.36849 (Simulation time: 0 hr 3 min 45 sec) 
Heartbeat CPU 0 instructions: 100000000 cycles: 73076667 heartbeat IPC: 1.36786 cumulative IPC: 1.36843 (Simulation time: 0 hr 4 min 10 sec) 

Warmup complete CPU 0 instructions: 100000002 cycles: 73076679 (Simulation time: 0 hr 4 min 10 sec) 

Heartbeat CPU 0 instructions: 110000001 cycles: 85618260 heartbeat IPC: 0.797347 cumulative IPC: 0.797348 (Simulation time: 0 hr 4 min 40 sec) 
Heartbeat CPU 0 instructions: 120000000 cycles: 98112282 heartbeat IPC: 0.800383 cumulative IPC: 0.798862 (Simulation time: 0 hr 5 min 10 sec) 
Heartbeat CPU 0 instructions: 130000000 cycles: 110673862 heartbeat IPC: 0.796078 cumulative IPC: 0.797932 (Simulation time: 0 hr 5 min 40 sec) 
Heartbeat CPU 0 instructions: 140000000 cycles: 123199758 heartbeat IPC: 0.798346 cumulative IPC: 0.798036 (Simulation time: 0 hr 6 min 10 sec) 
Heartbeat CPU 0 instructions: 150000000 cycles: 135670577 heartbeat IPC: 0.801872 cumulative IPC: 0.7988 (Simulation time: 0 hr 6 min 40 sec) 
Heartbeat CPU 0 instructions: 160000000 cycles: 148190162 heartbeat IPC: 0.798748 cumulative IPC: 0.798791 (Simulation time: 0 hr 7 min 10 sec) 
Heartbeat CPU 0 instructions: 170000001 cycles: 160719088 heartbeat IPC: 0.798153 cumulative IPC: 0.7987 (Simulation time: 0 hr 7 min 40 sec) 
Heartbeat CPU 0 instructions: 180000000 cycles: 173241741 heartbeat IPC: 0.798553 cumulative IPC: 0.798682 (Simulation time: 0 hr 8 min 11 sec) 
Heartbeat CPU 0 instructions: 190000000 cycles: 185785957 heartbeat IPC: 0.79718 cumulative IPC: 0.798515 (Simulation time: 0 hr 8 min 41 sec) 
Heartbeat CPU 0 instructions: 200000000 cycles: 198290809 heartbeat IPC: 0.79969 cumulative IPC: 0.798632 (Simulation time: 0 hr 9 min 11 sec) 
Heartbeat CPU 0 instructions: 210000002 cycles: 210844902 heartbeat IPC: 0.796553 cumulative IPC: 0.798442 (Simulation time: 0 hr 9 min 41 sec) 
Heartbeat CPU 0 instructions: 220000000 cycles: 223397933 heartbeat IPC: 0.79662 cumulative IPC: 0.79829 (Simulation time: 0 hr 10 min 11 sec) 
Heartbeat CPU 0 instructions: 230000002 cycles: 235896696 heartbeat IPC: 0.800079 cumulative IPC: 0.798428 (Simulation time: 0 hr 10 min 41 sec) 
Heartbeat CPU 0 instructions: 240000000 cycles: 249010032 heartbeat IPC: 0.762582 cumulative IPC: 0.795756 (Simulation time: 0 hr 11 min 11 sec) 
Heartbeat CPU 0 instructions: 250000002 cycles: 267260034 heartbeat IPC: 0.547945 cumulative IPC: 0.772466 (Simulation time: 0 hr 11 min 44 sec) 
Heartbeat CPU 0 instructions: 260000000 cycles: 285562744 heartbeat IPC: 0.546367 cumulative IPC: 0.752991 (Simulation time: 0 hr 12 min 18 sec) 
Heartbeat CPU 0 instructions: 270000000 cycles: 303934440 heartbeat IPC: 0.544316 cumulative IPC: 0.736384 (Simulation time: 0 hr 12 min 51 sec) 
Heartbeat CPU 0 instructions: 280000000 cycles: 322319865 heartbeat IPC: 0.543909 cumulative IPC: 0.722186 (Simulation time: 0 hr 13 min 24 sec) 
Heartbeat CPU 0 instructions: 290000001 cycles: 352616134 heartbeat IPC: 0.330074 cumulative IPC: 0.679689 (Simulation time: 0 hr 14 min 5 sec) 
Heartbeat CPU 0 instructions: 300000000 cycles: 392686270 heartbeat IPC: 0.249562 cumulative IPC: 0.625763 (Simulation time: 0 hr 14 min 53 sec) 
Heartbeat CPU 0 instructions: 310000000 cycles: 410436574 heartbeat IPC: 0.563371 cumulative IPC: 0.622481 (Simulation time: 0 hr 15 min 25 sec) 
Heartbeat CPU 0 instructions: 320000000 cycles: 428142261 heartbeat IPC: 0.56479 cumulative IPC: 0.619604 (Simulation time: 0 hr 15 min 57 sec) 
Heartbeat CPU 0 instructions: 330000003 cycles: 445926417 heartbeat IPC: 0.562298 cumulative IPC: 0.61687 (Simulation time: 0 hr 16 min 29 sec) 
Heartbeat CPU 0 instructions: 340000000 cycles: 463632091 heartbeat IPC: 0.564791 cumulative IPC: 0.614509 (Simulation time: 0 hr 17 min 1 sec) 
Heartbeat CPU 0 instructions: 350000001 cycles: 479464334 heartbeat IPC: 0.631622 cumulative IPC: 0.615176 (Simulation time: 0 hr 17 min 31 sec) 
Heartbeat CPU 0 instructions: 360000000 cycles: 491508132 heartbeat IPC: 0.830303 cumulative IPC: 0.621368 (Simulation time: 0 hr 17 min 58 sec) 
Heartbeat CPU 0 instructions: 370000002 cycles: 503402557 heartbeat IPC: 0.84073 cumulative IPC: 0.627431 (Simulation time: 0 hr 18 min 26 sec) 
Heartbeat CPU 0 instructions: 380000000 cycles: 515406289 heartbeat IPC: 0.833074 cumulative IPC: 0.633012 (Simulation time: 0 hr 18 min 54 sec) 
Heartbeat CPU 0 instructions: 390000003 cycles: 528840329 heartbeat IPC: 0.744378 cumulative IPC: 0.636295 (Simulation time: 0 hr 19 min 21 sec) 
Heartbeat CPU 0 instructions: 400000000 cycles: 541212330 heartbeat IPC: 0.808276 cumulative IPC: 0.64084 (Simulation time: 0 hr 19 min 49 sec) 
Heartbeat CPU 0 instructions: 410000001 cycles: 553330641 heartbeat IPC: 0.825198 cumulative IPC: 0.645492 (Simulation time: 0 hr 20 min 17 sec) 
Heartbeat CPU 0 instructions: 420000000 cycles: 566029317 heartbeat IPC: 0.787484 cumulative IPC: 0.64915 (Simulation time: 0 hr 20 min 45 sec) 
Heartbeat CPU 0 instructions: 430000003 cycles: 583717565 heartbeat IPC: 0.565347 cumulative IPC: 0.646247 (Simulation time: 0 hr 21 min 10 sec) 
Heartbeat CPU 0 instructions: 440000000 cycles: 601949141 heartbeat IPC: 0.548499 cumulative IPC: 0.642877 (Simulation time: 0 hr 21 min 35 sec) 
Heartbeat CPU 0 instructions: 450000003 cycles: 620180009 heartbeat IPC: 0.54852 cumulative IPC: 0.639733 (Simulation time: 0 hr 22 min 0 sec) 
Heartbeat CPU 0 instructions: 460000000 cycles: 638409052 heartbeat IPC: 0.548575 cumulative IPC: 0.636794 (Simulation time: 0 hr 22 min 25 sec) 
Heartbeat CPU 0 instructions: 470000003 cycles: 656654904 heartbeat IPC: 0.54807 cumulative IPC: 0.63402 (Simulation time: 0 hr 22 min 50 sec) 
Heartbeat CPU 0 instructions: 480000000 cycles: 674883950 heartbeat IPC: 0.548575 cumulative IPC: 0.631431 (Simulation time: 0 hr 23 min 15 sec) 
Heartbeat CPU 0 instructions: 490000003 cycles: 693087425 heartbeat IPC: 0.549346 cumulative IPC: 0.629021 (Simulation time: 0 hr 23 min 40 sec) 
Heartbeat CPU 0 instructions: 500000000 cycles: 711341562 heartbeat IPC: 0.547821 cumulative IPC: 0.626699 (Simulation time: 0 hr 24 min 5 sec) 
Heartbeat CPU 0 instructions: 510000003 cycles: 729553254 heartbeat IPC: 0.549098 cumulative IPC: 0.624546 (Simulation time: 0 hr 24 min 30 sec) 
Heartbeat CPU 0 instructions: 520000000 cycles: 747766188 heartbeat IPC: 0.54906 cumulative IPC: 0.622509 (Simulation time: 0 hr 24 min 55 sec) 
Heartbeat CPU 0 instructions: 530000001 cycles: 766020586 heartbeat IPC: 0.547813 cumulative IPC: 0.620541 (Simulation time: 0 hr 25 min 21 sec) 
Heartbeat CPU 0 instructions: 540000000 cycles: 784169778 heartbeat IPC: 0.550989 cumulative IPC: 0.618766 (Simulation time: 0 hr 25 min 46 sec) 
Heartbeat CPU 0 instructions: 550000001 cycles: 802295754 heartbeat IPC: 0.551695 cumulative IPC: 0.617099 (Simulation time: 0 hr 26 min 11 sec) 
Heartbeat CPU 0 instructions: 560000000 cycles: 820413988 heartbeat IPC: 0.55193 cumulative IPC: 0.615519 (Simulation time: 0 hr 26 min 36 sec) 
Heartbeat CPU 0 instructions: 570000001 cycles: 838541761 heartbeat IPC: 0.55164 cumulative IPC: 0.614006 (Simulation time: 0 hr 27 min 1 sec) 
Heartbeat CPU 0 instructions: 580000000 cycles: 856740764 heartbeat IPC: 0.549481 cumulative IPC: 0.612507 (Simulation time: 0 hr 27 min 26 sec) 
Heartbeat CPU 0 instructions: 590000001 cycles: 874900416 heartbeat IPC: 0.550671 cumulative IPC: 0.611107 (Simulation time: 0 hr 27 min 51 sec) 
Heartbeat CPU 0 instructions: 600000000 cycles: 893034340 heartbeat IPC: 0.551453 cumulative IPC: 0.609788 (Simulation time: 0 hr 28 min 16 sec) 
Finished CPU 0 instructions: 500000002 cycles: 819957675 cumulative IPC: 0.609788 (Simulation time: 0 hr 28 min 16 sec) 

CPU 0 Branch Prediction Accuracy: 99.5931% MPKI: 0.08288
Number of Branches: 10184133 Number of Mispredictions: 41440
Number of LOAD Instructions: 261155957
Number of LOAD Instructions (ROI): 261155957
Number of STORE Instructions: 57884062
Number of STORE Instructions (ROI): 57884062
Total Destination Memory Operands: 83293336
Total Destination Memory Operands (ROI): 83293336
Total Source Memory Operands: 261155957
Total Source Memory Operands (ROI): 261155957
Number of DEPENDED LOADS: 22256619
Number of DEPENDED LOADS (ROI): 22256619
Number of SQ_ADDED: 83293300
Number of SQ_ADDED (ROI): 83293300
Number of LQ_ADDED: 1781821364
Number of LQ_ADDED (ROI): 1781821364
Number of Instructions read from trace: 600000257

ChampSim completed all CPUs

Region of Interest Statistics

CPU 0 cumulative IPC: 0.609788 instructions: 500000002 cycles: 819957675
ITLB TOTAL     ACCESS:   94964429  HIT:   94964391  MISS:         38
ITLB LOAD      ACCESS:   94964429  HIT:   94964391  MISS:         38
ITLB RFO       ACCESS:          0  HIT:          0  MISS:          0
ITLB PREFETCH  ACCESS:          0  HIT:          0  MISS:          0
ITLB WRITEBACK ACCESS:          0  HIT:          0  MISS:          0
ITLB PREFETCH  REQUESTED:          0  ISSUED:          0  USEFUL:          0  USELESS:          0
ITLB TOTAL MSHR MERGED:         93
ITLB LOAD MSHR MERGED:         93
ITLB RFO MSHR MERGED:          0
ITLB PREFETCH MSHR MERGED:          0
ITLB WRITEBACK MSHR MERGED:          0
ITLB TOTAL ACCESSES:   94964522 HITS:   94964391 MISSES:        131
ITLB LOAD ACCESSES:   94964522 HITS:   94964391 MISSES:        131
ITLB RFO ACCESSES:          0 HITS:          0 MISSES:          0
ITLB PREFETCH ACCESSES:          0 HITS:          0 MISSES:          0
ITLB WRITEBACK ACCESSES:          0 HITS:          0 MISSES:          0
ITLB RQ ACCESS:  500000001
ITLB RQ TO_CACHE:   94964523
ITLB RQ MERGED:  405035478
ITLB RQ FORWARD:          0
ITLB WQ ACCESS:          0
ITLB WQ TO_CACHE:          0
ITLB WQ MERGED:          0
ITLB WQ FORWARD:          0
DTLB TOTAL     ACCESS:  149272804  HIT:  148675844  MISS:     596960
DTLB LOAD      ACCESS:  107400394  HIT:  106803445  MISS:     596949
DTLB RFO       ACCESS:   41872410  HIT:   41872399  MISS:         11
DTLB PREFETCH  ACCESS:          0  HIT:          0  MISS:          0
DTLB WRITEBACK ACCESS:          0  HIT:          0  MISS:          0
DTLB PREFETCH  REQUESTED:          0  ISSUED:          0  USEFUL:          0  USELESS:          0
DTLB TOTAL MSHR MERGED:     133931
DTLB LOAD MSHR MERGED:     133931
DTLB RFO MSHR MERGED:          0
DTLB PREFETCH MSHR MERGED:          0
DTLB WRITEBACK MSHR MERGED:          0
DTLB TOTAL ACCESSES:  149406735 HITS:  148675844 MISSES:     730891
DTLB LOAD ACCESSES:  107534325 HITS:  106803445 MISSES:     730880
DTLB RFO ACCESSES:   41872410 HITS:   41872399 MISSES:         11
DTLB PREFETCH ACCESSES:          0 HITS:          0 MISSES:          0
DTLB WRITEBACK ACCESSES:          0 HITS:          0 MISSES:          0
DTLB RQ ACCESS:  259759276
DTLB RQ TO_CACHE:  149406735
DTLB RQ MERGED:  110352541
DTLB RQ FORWARD:          0
DTLB WQ ACCESS:          0
DTLB WQ TO_CACHE:          0
DTLB WQ MERGED:          0
DTLB WQ FORWARD:          0
L1D TOTAL     ACCESS:  262052342  HIT:  246521309  MISS:   15531033
L1D LOAD      ACCESS:  118090073  HIT:  112679722  MISS:    5410351
L1D RFO       ACCESS:   68946678  HIT:   68932269  MISS:      14409
L1D PREFETCH  ACCESS:   75015591  HIT:   64909318  MISS:   10106273
L1D WRITEBACK ACCESS:          0  HIT:          0  MISS:          0
L1D PREFETCH  REQUESTED:  120671435  ISSUED:  119529687  USEFUL:    8102255  USELESS:    2004040
L1D TOTAL MSHR MERGED:   16244417
L1D LOAD MSHR MERGED:    4966558
L1D RFO MSHR MERGED:      21892
L1D PREFETCH MSHR MERGED:   11255967
L1D WRITEBACK MSHR MERGED:          0
L1D TOTAL ACCESSES:  278406816 HITS:  246631366 MISSES:   31775450
L1D LOAD ACCESSES:  120678969 HITS:  112687256 MISSES:    7991713
L1D RFO ACCESSES:   68968568 HITS:   68932269 MISSES:      36299
L1D PREFETCH ACCESSES:   88759279 HITS:   65011841 MISSES:   23747438
L1D WRITEBACK ACCESSES:          0 HITS:          0 MISSES:          0
L1D RQ ACCESS:  190684960
L1D RQ TO_CACHE:  120671435
L1D RQ MERGED:   70005991
L1D RQ FORWARD:          0
L1D WQ ACCESS:   69074336
L1D WQ TO_CACHE:   68968570
L1D WQ MERGED:     105766
L1D WQ FORWARD:     110057
L1I TOTAL     ACCESS:  121819109  HIT:  121818036  MISS:       1073
L1I LOAD      ACCESS:  121819109  HIT:  121818036  MISS:       1073
L1I RFO       ACCESS:          0  HIT:          0  MISS:          0
L1I PREFETCH  ACCESS:          0  HIT:          0  MISS:          0
L1I WRITEBACK ACCESS:          0  HIT:          0  MISS:          0
L1I PREFETCH  REQUESTED:          0  ISSUED:          0  USEFUL:          0  USELESS:          0
L1I TOTAL MSHR MERGED:       1092
L1I LOAD MSHR MERGED:       1092
L1I RFO MSHR MERGED:          0
L1I PREFETCH MSHR MERGED:          0
L1I WRITEBACK MSHR MERGED:          0
L1I TOTAL ACCESSES:  121820201 HITS:  121818036 MISSES:       2165
L1I LOAD ACCESSES:  121820201 HITS:  121818036 MISSES:       2165
L1I RFO ACCESSES:          0 HITS:          0 MISSES:          0
L1I PREFETCH ACCESSES:          0 HITS:          0 MISSES:          0
L1I WRITEBACK ACCESSES:          0 HITS:          0 MISSES:          0
L1I RQ ACCESS:  500000000
L1I RQ TO_CACHE:  121820201
L1I RQ MERGED:  378179799
L1I RQ FORWARD:          0
L1I WQ ACCESS:          0
L1I WQ TO_CACHE:          0
L1I WQ MERGED:          0
L1I WQ FORWARD:          0
L2C TOTAL     ACCESS:   22467725  HIT:    9014308  MISS:   13453417
L2C LOAD      ACCESS:    3026198  HIT:     340974  MISS:    2685224
L2C RFO       ACCESS:      14407  HIT:      13992  MISS:        415
L2C PREFETCH  ACCESS:   12797162  HIT:    2031192  MISS:   10765970
L2C WRITEBACK ACCESS:    6629958  HIT:    6628150  MISS:       1808
L2C PREFETCH  REQUESTED:     482021  ISSUED:     482021  USEFUL:     131555  USELESS:   10635209
L2C TOTAL MSHR MERGED:      45504
L2C LOAD MSHR MERGED:      16776
L2C RFO MSHR MERGED:          0
L2C PREFETCH MSHR MERGED:      28728
L2C WRITEBACK MSHR MERGED:          0
L2C TOTAL ACCESSES:   22616317 HITS:    9014347 MISSES:   13601970
L2C LOAD ACCESSES:    3026228 HITS:     341004 MISSES:    2685224
L2C RFO ACCESSES:      14407 HITS:      13992 MISSES:        415
L2C PREFETCH ACCESSES:   12945724 HITS:    2031201 MISSES:   10914523
L2C WRITEBACK ACCESSES:    6629958 HITS:    6628150 MISSES:       1808
L2C RQ ACCESS:    3040635
L2C RQ TO_CACHE:    3040605
L2C RQ MERGED:          0
L2C RQ FORWARD:          0
L2C WQ ACCESS:    6629958
L2C WQ TO_CACHE:    6629958
L2C WQ MERGED:          0
L2C WQ FORWARD:         39
LLC TOTAL     ACCESS:   20131676  HIT:    4786648  MISS:   15345028
LLC LOAD      ACCESS:    2668448  HIT:      76089  MISS:    2592359
LLC RFO       ACCESS:        415  HIT:         13  MISS:        402
LLC PREFETCH  ACCESS:   10871503  HIT:     675803  MISS:   10195700
LLC WRITEBACK ACCESS:    6591310  HIT:    4034743  MISS:    2556567
LLC PREFETCH  REQUESTED:          0  ISSUED:          0  USEFUL:      64451  USELESS:   10139953
LLC TOTAL MSHR MERGED:      13351
LLC LOAD MSHR MERGED:       7256
LLC RFO MSHR MERGED:          0
LLC PREFETCH MSHR MERGED:       6095
LLC WRITEBACK MSHR MERGED:          0
LLC TOTAL ACCESSES:   20145029 HITS:    4786649 MISSES:   15358380
LLC LOAD ACCESSES:    2668448 HITS:      76089 MISSES:    2592359
LLC RFO ACCESSES:        415 HITS:         13 MISSES:        402
LLC PREFETCH ACCESSES:   10884856 HITS:     675804 MISSES:   10209052
LLC WRITEBACK ACCESSES:    6591310 HITS:    4034743 MISSES:    2556567
LLC 0 RQ ACCESS:    2668863
LLC 0 RQ TO_CACHE:    2668863
LLC 0 RQ MERGED:          0
LLC 0 RQ FORWARD:          0
LLC WQ ACCESS:    6591311
LLC WQ TO_CACHE:    6591311
LLC WQ MERGED:          0
LLC WQ FORWARD:          1
Major fault: 0 Minor fault: 183991
CPU 0 L1D next line prefetcher final stats
CPU 0 L2C PC-based stride prefetcher final stats
All Misses: 17636962
All Hits: 5425759
SD Algo Stats - Switches: 271 SRR-Repls: 1910696 BRR-Repls: 739312

DRAM Statistics
 CHANNEL 0
 RQ ROW_BUFFER_HIT:    7218501  ROW_BUFFER_MISS:    5569958
 DBUS_CONGESTED:   11482010
 WQ ROW_BUFFER_HIT:    1707258  ROW_BUFFER_MISS:    4855427  FULL:          0

 AVG_CONGESTED_CYCLE: 13
LOADS RETIRED: 204440772
INSTR RETIRED: 500000000
