
*** ChampSim Multicore Out-of-Order Simulator ***

Warmup Instructions: 100000000
Simulation Instructions: 500000000
Number of CPUs: 1
LLC sets: 2048
LLC ways: 16
Clean RRIP Policies: 2101131321011313 Dirty RRIP Policies: 2121032321210323 PSEL Width: 10 Track Set: 4294967295 PSEL Mask: 1 Demote Mask: 2113012421130124DS Algo: 0Window size: 0
Off-chip DRAM Size: 4096 MB Channels: 1 Width: 64-bit Data Rate: 1600 MT/s

CPU 0 runs /mnt/beegfs/iconst01/spec2017/Imagick.trace.gz
NOT SORTED
TRACE STRING: /mnt/beegfs/iconst01/spec2017/Imagick.trace.gz
SORTED
TRACE STRING: /mnt/beegfs/iconst01/spec2017/Imagick.trace.gz
INITIAL
TRACE STRING: /mnt/beegfs/iconst01/spec2017/Imagick.trace.gz

champsim_seed used: 693

CPU 0 L1D next line prefetcher
CPU 0 L2C IP-based stride prefetcher
Initialize DRRIP state
Assign rand_sets[0]: 454  LLC: 2048
rand_sets[0]: 454
Assign rand_sets[1]: 1662  LLC: 2048
rand_sets[1]: 1662
Assign rand_sets[2]: 1921  LLC: 2048
rand_sets[2]: 1921
Assign rand_sets[3]: 1131  LLC: 2048
rand_sets[3]: 1131
Assign rand_sets[4]: 331  LLC: 2048
rand_sets[4]: 331
Assign rand_sets[5]: 1531  LLC: 2048
rand_sets[5]: 1531
Assign rand_sets[6]: 482  LLC: 2048
rand_sets[6]: 482
Assign rand_sets[7]: 1275  LLC: 2048
rand_sets[7]: 1275
Assign rand_sets[8]: 1876  LLC: 2048
rand_sets[8]: 1876
Assign rand_sets[9]: 2038  LLC: 2048
rand_sets[9]: 2038
Assign rand_sets[10]: 701  LLC: 2048
rand_sets[10]: 701
Assign rand_sets[11]: 479  LLC: 2048
rand_sets[11]: 479
Assign rand_sets[12]: 892  LLC: 2048
rand_sets[12]: 892
Assign rand_sets[13]: 1820  LLC: 2048
rand_sets[13]: 1820
Assign rand_sets[14]: 1505  LLC: 2048
rand_sets[14]: 1505
Assign rand_sets[15]: 1159  LLC: 2048
rand_sets[15]: 1159
Assign rand_sets[16]: 513  LLC: 2048
rand_sets[16]: 513
Assign rand_sets[17]: 703  LLC: 2048
rand_sets[17]: 703
Assign rand_sets[18]: 561  LLC: 2048
rand_sets[18]: 561
Assign rand_sets[19]: 990  LLC: 2048
rand_sets[19]: 990
Assign rand_sets[20]: 342  LLC: 2048
rand_sets[20]: 342
Assign rand_sets[21]: 882  LLC: 2048
rand_sets[21]: 882
Assign rand_sets[22]: 15  LLC: 2048
rand_sets[22]: 15
Assign rand_sets[23]: 71  LLC: 2048
rand_sets[23]: 71
Assign rand_sets[24]: 1127  LLC: 2048
rand_sets[24]: 1127
Assign rand_sets[25]: 1382  LLC: 2048
rand_sets[25]: 1382
Assign rand_sets[26]: 647  LLC: 2048
rand_sets[26]: 647
Assign rand_sets[27]: 857  LLC: 2048
rand_sets[27]: 857
Assign rand_sets[28]: 1450  LLC: 2048
rand_sets[28]: 1450
Assign rand_sets[29]: 1160  LLC: 2048
rand_sets[29]: 1160
Assign rand_sets[30]: 1852  LLC: 2048
rand_sets[30]: 1852
Assign rand_sets[31]: 1881  LLC: 2048
rand_sets[31]: 1881
Assign rand_sets[32]: 1770  LLC: 2048
rand_sets[32]: 1770
Assign rand_sets[33]: 1622  LLC: 2048
rand_sets[33]: 1622
Assign rand_sets[34]: 275  LLC: 2048
rand_sets[34]: 275
Assign rand_sets[35]: 635  LLC: 2048
rand_sets[35]: 635
Assign rand_sets[36]: 466  LLC: 2048
rand_sets[36]: 466
Assign rand_sets[37]: 1413  LLC: 2048
rand_sets[37]: 1413
Assign rand_sets[38]: 417  LLC: 2048
rand_sets[38]: 417
Assign rand_sets[39]: 472  LLC: 2048
rand_sets[39]: 472
Assign rand_sets[40]: 1340  LLC: 2048
rand_sets[40]: 1340
Assign rand_sets[41]: 852  LLC: 2048
rand_sets[41]: 852
Assign rand_sets[42]: 1365  LLC: 2048
rand_sets[42]: 1365
Assign rand_sets[43]: 47  LLC: 2048
rand_sets[43]: 47
Assign rand_sets[44]: 823  LLC: 2048
rand_sets[44]: 823
Assign rand_sets[45]: 686  LLC: 2048
rand_sets[45]: 686
Assign rand_sets[46]: 1637  LLC: 2048
rand_sets[46]: 1637
Assign rand_sets[47]: 1115  LLC: 2048
rand_sets[47]: 1115
Assign rand_sets[48]: 986  LLC: 2048
rand_sets[48]: 986
Assign rand_sets[49]: 258  LLC: 2048
rand_sets[49]: 258
Assign rand_sets[50]: 633  LLC: 2048
rand_sets[50]: 633
Assign rand_sets[51]: 920  LLC: 2048
rand_sets[51]: 920
Assign rand_sets[52]: 204  LLC: 2048
rand_sets[52]: 204
Assign rand_sets[53]: 227  LLC: 2048
rand_sets[53]: 227
Assign rand_sets[54]: 1818  LLC: 2048
rand_sets[54]: 1818
Assign rand_sets[55]: 886  LLC: 2048
rand_sets[55]: 886
Assign rand_sets[56]: 1422  LLC: 2048
rand_sets[56]: 1422
Assign rand_sets[57]: 607  LLC: 2048
rand_sets[57]: 607
Assign rand_sets[58]: 217  LLC: 2048
rand_sets[58]: 217
Assign rand_sets[59]: 1945  LLC: 2048
rand_sets[59]: 1945
Assign rand_sets[60]: 143  LLC: 2048
rand_sets[60]: 143
Assign rand_sets[61]: 1311  LLC: 2048
rand_sets[61]: 1311
Assign rand_sets[62]: 319  LLC: 2048
rand_sets[62]: 319
Assign rand_sets[63]: 1846  LLC: 2048
rand_sets[63]: 1846
 CLEAN-RRIP-POLICY-1: 2-1-0-1-1-3-1-3- CLEAN-RRIP-POLICY-2: 2-1-0-1-1-3-1-3-
 DIRTY-RRIP-POLICY-1: 2-1-2-1-0-3-2-3- DIRTY-RRIP-POLICY-2: 2-1-2-1-0-3-2-3-
 PSEL width: 10
Heartbeat CPU 0 instructions: 10000001 cycles: 2960755 heartbeat IPC: 3.37752 cumulative IPC: 3.37752 (Simulation time: 0 hr 0 min 8 sec) 
Heartbeat CPU 0 instructions: 20000000 cycles: 5921291 heartbeat IPC: 3.37777 cumulative IPC: 3.37764 (Simulation time: 0 hr 0 min 16 sec) 
Heartbeat CPU 0 instructions: 30000002 cycles: 8881677 heartbeat IPC: 3.37794 cumulative IPC: 3.37774 (Simulation time: 0 hr 0 min 24 sec) 
Heartbeat CPU 0 instructions: 40000000 cycles: 11842192 heartbeat IPC: 3.37779 cumulative IPC: 3.37775 (Simulation time: 0 hr 0 min 32 sec) 
Heartbeat CPU 0 instructions: 50000003 cycles: 14802445 heartbeat IPC: 3.37809 cumulative IPC: 3.37782 (Simulation time: 0 hr 0 min 40 sec) 
Heartbeat CPU 0 instructions: 60000000 cycles: 17762821 heartbeat IPC: 3.37795 cumulative IPC: 3.37784 (Simulation time: 0 hr 0 min 48 sec) 
Heartbeat CPU 0 instructions: 70000000 cycles: 20723235 heartbeat IPC: 3.37791 cumulative IPC: 3.37785 (Simulation time: 0 hr 0 min 56 sec) 
Heartbeat CPU 0 instructions: 80000000 cycles: 23683791 heartbeat IPC: 3.37774 cumulative IPC: 3.37784 (Simulation time: 0 hr 1 min 4 sec) 
Heartbeat CPU 0 instructions: 90000001 cycles: 26643971 heartbeat IPC: 3.37817 cumulative IPC: 3.37787 (Simulation time: 0 hr 1 min 12 sec) 
Heartbeat CPU 0 instructions: 100000000 cycles: 29604447 heartbeat IPC: 3.37783 cumulative IPC: 3.37787 (Simulation time: 0 hr 1 min 20 sec) 

Warmup complete CPU 0 instructions: 100000001 cycles: 29604448 (Simulation time: 0 hr 1 min 20 sec) 

Heartbeat CPU 0 instructions: 110000003 cycles: 34016198 heartbeat IPC: 2.26667 cumulative IPC: 2.26667 (Simulation time: 0 hr 1 min 33 sec) 
Heartbeat CPU 0 instructions: 120000000 cycles: 38424163 heartbeat IPC: 2.26862 cumulative IPC: 2.26765 (Simulation time: 0 hr 1 min 46 sec) 
Heartbeat CPU 0 instructions: 130000002 cycles: 42822046 heartbeat IPC: 2.27382 cumulative IPC: 2.2697 (Simulation time: 0 hr 1 min 59 sec) 
Heartbeat CPU 0 instructions: 140000000 cycles: 47226105 heartbeat IPC: 2.27063 cumulative IPC: 2.26993 (Simulation time: 0 hr 2 min 12 sec) 
Heartbeat CPU 0 instructions: 150000000 cycles: 51634565 heartbeat IPC: 2.26837 cumulative IPC: 2.26962 (Simulation time: 0 hr 2 min 25 sec) 
Heartbeat CPU 0 instructions: 160000000 cycles: 56043806 heartbeat IPC: 2.26796 cumulative IPC: 2.26934 (Simulation time: 0 hr 2 min 38 sec) 
Heartbeat CPU 0 instructions: 170000000 cycles: 60452738 heartbeat IPC: 2.26812 cumulative IPC: 2.26917 (Simulation time: 0 hr 2 min 51 sec) 
Heartbeat CPU 0 instructions: 180000000 cycles: 64867513 heartbeat IPC: 2.26512 cumulative IPC: 2.26866 (Simulation time: 0 hr 3 min 4 sec) 
Heartbeat CPU 0 instructions: 190000000 cycles: 69283195 heartbeat IPC: 2.26466 cumulative IPC: 2.26822 (Simulation time: 0 hr 3 min 17 sec) 
Heartbeat CPU 0 instructions: 200000000 cycles: 73696021 heartbeat IPC: 2.26612 cumulative IPC: 2.26801 (Simulation time: 0 hr 3 min 30 sec) 
Heartbeat CPU 0 instructions: 210000003 cycles: 78106103 heartbeat IPC: 2.26753 cumulative IPC: 2.26796 (Simulation time: 0 hr 3 min 43 sec) 
Heartbeat CPU 0 instructions: 220000000 cycles: 86310063 heartbeat IPC: 1.21892 cumulative IPC: 2.11619 (Simulation time: 0 hr 4 min 0 sec) 
Heartbeat CPU 0 instructions: 230000002 cycles: 90713240 heartbeat IPC: 2.27109 cumulative IPC: 2.12735 (Simulation time: 0 hr 4 min 13 sec) 
Heartbeat CPU 0 instructions: 240000000 cycles: 95121804 heartbeat IPC: 2.26831 cumulative IPC: 2.13684 (Simulation time: 0 hr 4 min 26 sec) 
Heartbeat CPU 0 instructions: 250000002 cycles: 99549544 heartbeat IPC: 2.25849 cumulative IPC: 2.14454 (Simulation time: 0 hr 4 min 39 sec) 
Heartbeat CPU 0 instructions: 260000000 cycles: 103969296 heartbeat IPC: 2.26257 cumulative IPC: 2.15155 (Simulation time: 0 hr 4 min 52 sec) 
Heartbeat CPU 0 instructions: 270000001 cycles: 108379363 heartbeat IPC: 2.26754 cumulative IPC: 2.15805 (Simulation time: 0 hr 5 min 5 sec) 
Heartbeat CPU 0 instructions: 280000000 cycles: 112783526 heartbeat IPC: 2.27058 cumulative IPC: 2.16401 (Simulation time: 0 hr 5 min 18 sec) 
Heartbeat CPU 0 instructions: 290000003 cycles: 117192255 heartbeat IPC: 2.26823 cumulative IPC: 2.16925 (Simulation time: 0 hr 5 min 31 sec) 
Heartbeat CPU 0 instructions: 300000000 cycles: 121600559 heartbeat IPC: 2.26845 cumulative IPC: 2.17401 (Simulation time: 0 hr 5 min 44 sec) 
Heartbeat CPU 0 instructions: 310000000 cycles: 126007935 heartbeat IPC: 2.26892 cumulative IPC: 2.17834 (Simulation time: 0 hr 5 min 57 sec) 
Heartbeat CPU 0 instructions: 320000000 cycles: 130425445 heartbeat IPC: 2.26372 cumulative IPC: 2.18209 (Simulation time: 0 hr 6 min 10 sec) 
Heartbeat CPU 0 instructions: 330000002 cycles: 134843441 heartbeat IPC: 2.26347 cumulative IPC: 2.1855 (Simulation time: 0 hr 6 min 23 sec) 
Heartbeat CPU 0 instructions: 340000000 cycles: 139254702 heartbeat IPC: 2.26693 cumulative IPC: 2.18878 (Simulation time: 0 hr 6 min 36 sec) 
Heartbeat CPU 0 instructions: 350000001 cycles: 143662200 heartbeat IPC: 2.26886 cumulative IPC: 2.19187 (Simulation time: 0 hr 6 min 49 sec) 
Heartbeat CPU 0 instructions: 360000000 cycles: 148059704 heartbeat IPC: 2.27402 cumulative IPC: 2.19492 (Simulation time: 0 hr 7 min 2 sec) 
Heartbeat CPU 0 instructions: 370000000 cycles: 152459084 heartbeat IPC: 2.27305 cumulative IPC: 2.19772 (Simulation time: 0 hr 7 min 15 sec) 
Heartbeat CPU 0 instructions: 380000000 cycles: 156864302 heartbeat IPC: 2.27004 cumulative IPC: 2.20022 (Simulation time: 0 hr 7 min 28 sec) 
Heartbeat CPU 0 instructions: 390000000 cycles: 161267744 heartbeat IPC: 2.27095 cumulative IPC: 2.20259 (Simulation time: 0 hr 7 min 41 sec) 
Heartbeat CPU 0 instructions: 400000000 cycles: 165674613 heartbeat IPC: 2.26918 cumulative IPC: 2.20474 (Simulation time: 0 hr 7 min 54 sec) 
Heartbeat CPU 0 instructions: 410000002 cycles: 170084985 heartbeat IPC: 2.26738 cumulative IPC: 2.20671 (Simulation time: 0 hr 8 min 7 sec) 
Heartbeat CPU 0 instructions: 420000000 cycles: 174502733 heartbeat IPC: 2.2636 cumulative IPC: 2.20845 (Simulation time: 0 hr 8 min 20 sec) 
Heartbeat CPU 0 instructions: 430000000 cycles: 178917100 heartbeat IPC: 2.26533 cumulative IPC: 2.21013 (Simulation time: 0 hr 8 min 33 sec) 
Heartbeat CPU 0 instructions: 440000000 cycles: 183325579 heartbeat IPC: 2.26836 cumulative IPC: 2.2118 (Simulation time: 0 hr 8 min 46 sec) 
Heartbeat CPU 0 instructions: 450000001 cycles: 191402856 heartbeat IPC: 1.23804 cumulative IPC: 2.16319 (Simulation time: 0 hr 9 min 3 sec) 
Heartbeat CPU 0 instructions: 460000000 cycles: 195812803 heartbeat IPC: 2.2676 cumulative IPC: 2.16596 (Simulation time: 0 hr 9 min 16 sec) 
Heartbeat CPU 0 instructions: 470000002 cycles: 200224860 heartbeat IPC: 2.26652 cumulative IPC: 2.16856 (Simulation time: 0 hr 9 min 29 sec) 
Heartbeat CPU 0 instructions: 480000000 cycles: 204647532 heartbeat IPC: 2.26108 cumulative IPC: 2.17089 (Simulation time: 0 hr 9 min 42 sec) 
Heartbeat CPU 0 instructions: 490000001 cycles: 209070384 heartbeat IPC: 2.26098 cumulative IPC: 2.17311 (Simulation time: 0 hr 9 min 55 sec) 
Heartbeat CPU 0 instructions: 500000000 cycles: 213482648 heartbeat IPC: 2.26641 cumulative IPC: 2.17535 (Simulation time: 0 hr 10 min 8 sec) 
Heartbeat CPU 0 instructions: 510000000 cycles: 217894160 heartbeat IPC: 2.2668 cumulative IPC: 2.1775 (Simulation time: 0 hr 10 min 21 sec) 
Heartbeat CPU 0 instructions: 520000000 cycles: 222302377 heartbeat IPC: 2.26849 cumulative IPC: 2.17958 (Simulation time: 0 hr 10 min 34 sec) 
Heartbeat CPU 0 instructions: 530000002 cycles: 226711813 heartbeat IPC: 2.26786 cumulative IPC: 2.18155 (Simulation time: 0 hr 10 min 47 sec) 
Heartbeat CPU 0 instructions: 540000000 cycles: 231120798 heartbeat IPC: 2.2681 cumulative IPC: 2.18345 (Simulation time: 0 hr 11 min 0 sec) 
Heartbeat CPU 0 instructions: 550000002 cycles: 235532372 heartbeat IPC: 2.26677 cumulative IPC: 2.18523 (Simulation time: 0 hr 11 min 13 sec) 
Heartbeat CPU 0 instructions: 560000000 cycles: 239953081 heartbeat IPC: 2.26208 cumulative IPC: 2.18685 (Simulation time: 0 hr 11 min 26 sec) 
Heartbeat CPU 0 instructions: 570000001 cycles: 244361573 heartbeat IPC: 2.26835 cumulative IPC: 2.18852 (Simulation time: 0 hr 11 min 39 sec) 
Heartbeat CPU 0 instructions: 580000000 cycles: 248771159 heartbeat IPC: 2.26779 cumulative IPC: 2.19011 (Simulation time: 0 hr 11 min 52 sec) 
Heartbeat CPU 0 instructions: 590000002 cycles: 253179061 heartbeat IPC: 2.26865 cumulative IPC: 2.19166 (Simulation time: 0 hr 12 min 5 sec) 
Heartbeat CPU 0 instructions: 600000000 cycles: 257585661 heartbeat IPC: 2.26932 cumulative IPC: 2.19316 (Simulation time: 0 hr 12 min 18 sec) 
Finished CPU 0 instructions: 500000000 cycles: 227981221 cumulative IPC: 2.19316 (Simulation time: 0 hr 12 min 18 sec) 

CPU 0 Branch Prediction Accuracy: 99.4023% MPKI: 0.506386
Number of Branches: 42359409 Number of Mispredictions: 253193
Number of LOAD Instructions: 124617748
Number of LOAD Instructions (ROI): 124617748
Number of STORE Instructions: 512730
Number of STORE Instructions (ROI): 512730
Total Destination Memory Operands: 760086
Total Destination Memory Operands (ROI): 760086
Total Source Memory Operands: 124617748
Total Source Memory Operands (ROI): 124617748
Number of DEPENDED LOADS: 121459
Number of DEPENDED LOADS (ROI): 121459
Number of SQ_ADDED: 760086
Number of SQ_ADDED (ROI): 760086
Number of LQ_ADDED: 124628703
Number of LQ_ADDED (ROI): 124628703
Number of Instructions read from trace: 600000256

ChampSim completed all CPUs

Region of Interest Statistics

CPU 0 cumulative IPC: 2.19316 instructions: 500000000 cycles: 227981221
ITLB TOTAL     ACCESS:   79493507  HIT:   79493493  MISS:         14
ITLB LOAD      ACCESS:   79493507  HIT:   79493493  MISS:         14
ITLB RFO       ACCESS:          0  HIT:          0  MISS:          0
ITLB PREFETCH  ACCESS:          0  HIT:          0  MISS:          0
ITLB WRITEBACK ACCESS:          0  HIT:          0  MISS:          0
ITLB PREFETCH  REQUESTED:          0  ISSUED:          0  USEFUL:          0  USELESS:          0
ITLB TOTAL MSHR MERGED:          8
ITLB LOAD MSHR MERGED:          8
ITLB RFO MSHR MERGED:          0
ITLB PREFETCH MSHR MERGED:          0
ITLB WRITEBACK MSHR MERGED:          0
ITLB TOTAL ACCESSES:   79493515 HITS:   79493493 MISSES:         22
ITLB LOAD ACCESSES:   79493515 HITS:   79493493 MISSES:         22
ITLB RFO ACCESSES:          0 HITS:          0 MISSES:          0
ITLB PREFETCH ACCESSES:          0 HITS:          0 MISSES:          0
ITLB WRITEBACK ACCESSES:          0 HITS:          0 MISSES:          0
ITLB RQ ACCESS:  500000209
ITLB RQ TO_CACHE:   79493515
ITLB RQ MERGED:  420506694
ITLB RQ FORWARD:          0
ITLB WQ ACCESS:          0
ITLB WQ TO_CACHE:          0
ITLB WQ MERGED:          0
ITLB WQ FORWARD:          0
DTLB TOTAL     ACCESS:   58941999  HIT:   58911989  MISS:      30010
DTLB LOAD      ACCESS:   58332355  HIT:   58303837  MISS:      28518
DTLB RFO       ACCESS:     609644  HIT:     608152  MISS:       1492
DTLB PREFETCH  ACCESS:          0  HIT:          0  MISS:          0
DTLB WRITEBACK ACCESS:          0  HIT:          0  MISS:          0
DTLB PREFETCH  REQUESTED:          0  ISSUED:          0  USEFUL:          0  USELESS:          0
DTLB TOTAL MSHR MERGED:      61250
DTLB LOAD MSHR MERGED:      60624
DTLB RFO MSHR MERGED:        626
DTLB PREFETCH MSHR MERGED:          0
DTLB WRITEBACK MSHR MERGED:          0
DTLB TOTAL ACCESSES:   59003249 HITS:   58911989 MISSES:      91260
DTLB LOAD ACCESSES:   58392979 HITS:   58303837 MISSES:      89142
DTLB RFO ACCESSES:     610270 HITS:     608152 MISSES:       2118
DTLB PREFETCH ACCESSES:          0 HITS:          0 MISSES:          0
DTLB WRITEBACK ACCESSES:          0 HITS:          0 MISSES:          0
DTLB RQ ACCESS:  104550083
DTLB RQ TO_CACHE:   59003249
DTLB RQ MERGED:   45546834
DTLB RQ FORWARD:          0
DTLB WQ ACCESS:          0
DTLB WQ TO_CACHE:          0
DTLB WQ MERGED:          0
DTLB WQ FORWARD:          0
L1D TOTAL     ACCESS:   61038937  HIT:   55320888  MISS:    5718049
L1D LOAD      ACCESS:   36499084  HIT:   33538122  MISS:    2960962
L1D RFO       ACCESS:     683670  HIT:     650050  MISS:      33620
L1D PREFETCH  ACCESS:   23856183  HIT:   21132716  MISS:    2723467
L1D WRITEBACK ACCESS:          0  HIT:          0  MISS:          0
L1D PREFETCH  REQUESTED:   38762208  ISSUED:   38158970  USEFUL:    2458617  USELESS:     264849
L1D TOTAL MSHR MERGED:    3280092
L1D LOAD MSHR MERGED:    2299435
L1D RFO MSHR MERGED:      62119
L1D PREFETCH MSHR MERGED:     918538
L1D WRITEBACK MSHR MERGED:          0
L1D TOTAL ACCESSES:   64319089 HITS:   55320948 MISSES:    8998141
L1D LOAD ACCESSES:   38762208 HITS:   33538122 MISSES:    5224086
L1D RFO ACCESSES:     745769 HITS:     650050 MISSES:      95719
L1D PREFETCH ACCESSES:   24811112 HITS:   21132776 MISSES:    3678336
L1D WRITEBACK ACCESSES:          0 HITS:          0 MISSES:          0
L1D RQ ACCESS:  103800195
L1D RQ TO_CACHE:   38762208
L1D RQ MERGED:   65037987
L1D RQ FORWARD:          0
L1D WQ ACCESS:     749886
L1D WQ TO_CACHE:     745769
L1D WQ MERGED:       4117
L1D WQ FORWARD:         60
L1I TOTAL     ACCESS:  102150584  HIT:  102150478  MISS:        106
L1I LOAD      ACCESS:  102150584  HIT:  102150478  MISS:        106
L1I RFO       ACCESS:          0  HIT:          0  MISS:          0
L1I PREFETCH  ACCESS:          0  HIT:          0  MISS:          0
L1I WRITEBACK ACCESS:          0  HIT:          0  MISS:          0
L1I PREFETCH  REQUESTED:          0  ISSUED:          0  USEFUL:          0  USELESS:          0
L1I TOTAL MSHR MERGED:         37
L1I LOAD MSHR MERGED:         37
L1I RFO MSHR MERGED:          0
L1I PREFETCH MSHR MERGED:          0
L1I WRITEBACK MSHR MERGED:          0
L1I TOTAL ACCESSES:  102150621 HITS:  102150478 MISSES:        143
L1I LOAD ACCESSES:  102150621 HITS:  102150478 MISSES:        143
L1I RFO ACCESSES:          0 HITS:          0 MISSES:          0
L1I PREFETCH ACCESSES:          0 HITS:          0 MISSES:          0
L1I WRITEBACK ACCESSES:          0 HITS:          0 MISSES:          0
L1I RQ ACCESS:  500000213
L1I RQ TO_CACHE:  102150621
L1I RQ MERGED:  397849592
L1I RQ FORWARD:          0
L1I WQ ACCESS:          0
L1I WQ TO_CACHE:          0
L1I WQ MERGED:          0
L1I WQ FORWARD:          0
L2C TOTAL     ACCESS:   12961960  HIT:   12720925  MISS:     241035
L2C LOAD      ACCESS:    2924757  HIT:    2909603  MISS:      15154
L2C RFO       ACCESS:      33600  HIT:       3689  MISS:      29911
L2C PREFETCH  ACCESS:    9957922  HIT:    9761981  MISS:     195941
L2C WRITEBACK ACCESS:      45681  HIT:      45652  MISS:         29
L2C PREFETCH  REQUESTED:    7198940  ISSUED:    7198940  USEFUL:     126516  USELESS:      69437
L2C TOTAL MSHR MERGED:          0
L2C LOAD MSHR MERGED:          0
L2C RFO MSHR MERGED:          0
L2C PREFETCH MSHR MERGED:          0
L2C WRITEBACK MSHR MERGED:          0
L2C TOTAL ACCESSES:   12961960 HITS:   12720925 MISSES:     241035
L2C LOAD ACCESSES:    2924757 HITS:    2909603 MISSES:      15154
L2C RFO ACCESSES:      33600 HITS:       3689 MISSES:      29911
L2C PREFETCH ACCESSES:    9957922 HITS:    9761981 MISSES:     195941
L2C WRITEBACK ACCESSES:      45681 HITS:      45652 MISSES:         29
L2C RQ ACCESS:    2958357
L2C RQ TO_CACHE:    2958357
L2C RQ MERGED:          0
L2C RQ FORWARD:          0
L2C WQ ACCESS:      45681
L2C WQ TO_CACHE:      45681
L2C WQ MERGED:          0
L2C WQ FORWARD:          0
LLC TOTAL     ACCESS:     271768  HIT:     248098  MISS:      23670
LLC LOAD      ACCESS:      15154  HIT:      14420  MISS:        734
LLC RFO       ACCESS:      29911  HIT:      28610  MISS:       1301
LLC PREFETCH  ACCESS:     195941  HIT:     175449  MISS:      20492
LLC WRITEBACK ACCESS:      30762  HIT:      29619  MISS:       1143
LLC PREFETCH  REQUESTED:          0  ISSUED:          0  USEFUL:      13435  USELESS:          0
LLC TOTAL MSHR MERGED:          0
LLC LOAD MSHR MERGED:          0
LLC RFO MSHR MERGED:          0
LLC PREFETCH MSHR MERGED:          0
LLC WRITEBACK MSHR MERGED:          0
LLC TOTAL ACCESSES:     271768 HITS:     248098 MISSES:      23670
LLC LOAD ACCESSES:      15154 HITS:      14420 MISSES:        734
LLC RFO ACCESSES:      29911 HITS:      28610 MISSES:       1301
LLC PREFETCH ACCESSES:     195941 HITS:     175449 MISSES:      20492
LLC WRITEBACK ACCESSES:      30762 HITS:      29619 MISSES:       1143
LLC 0 RQ ACCESS:      45065
LLC 0 RQ TO_CACHE:      45065
LLC 0 RQ MERGED:          0
LLC 0 RQ FORWARD:          0
LLC WQ ACCESS:      30762
LLC WQ TO_CACHE:      30762
LLC WQ MERGED:          0
LLC WQ FORWARD:          0
Major fault: 0 Minor fault: 505
CPU 0 L1D next line prefetcher final stats
CPU 0 L2C PC-based stride prefetcher final stats
All Misses: 32401
All Hits: 284408
SD Algo Stats - Switches: 0 SRR-Repls: 1511 BRR-Repls: 0

DRAM Statistics
 CHANNEL 0
 RQ ROW_BUFFER_HIT:      14585  ROW_BUFFER_MISS:       7942
 DBUS_CONGESTED:        667
 WQ ROW_BUFFER_HIT:          0  ROW_BUFFER_MISS:          0  FULL:          0

 AVG_CONGESTED_CYCLE: 10
LOADS RETIRED: 103918724
INSTR RETIRED: 500000000
