
*** ChampSim Multicore Out-of-Order Simulator ***

Warmup Instructions: 100000000
Simulation Instructions: 500000000
Number of CPUs: 1
LLC sets: 2048
LLC ways: 16
Clean RRIP Policies: 22030100220301 Dirty RRIP Policies: 1022130110221301 PSEL Width: 10 Track Set: 4294967295 PSEL Mask: 1 Demote Mask: 2014211020142110DS Algo: 0Window size: 0
Off-chip DRAM Size: 4096 MB Channels: 1 Width: 64-bit Data Rate: 1600 MT/s

CPU 0 runs /mnt/beegfs/iconst01/spec2017/x264.trace.gz
NOT SORTED
TRACE STRING: /mnt/beegfs/iconst01/spec2017/x264.trace.gz
SORTED
TRACE STRING: /mnt/beegfs/iconst01/spec2017/x264.trace.gz
INITIAL
TRACE STRING: /mnt/beegfs/iconst01/spec2017/x264.trace.gz

champsim_seed used: 276

CPU 0 L1D next line prefetcher
CPU 0 L2C IP-based stride prefetcher
Initialize DRRIP state
Assign rand_sets[0]: 454  LLC: 2048
rand_sets[0]: 454
Assign rand_sets[1]: 1662  LLC: 2048
rand_sets[1]: 1662
Assign rand_sets[2]: 1921  LLC: 2048
rand_sets[2]: 1921
Assign rand_sets[3]: 1131  LLC: 2048
rand_sets[3]: 1131
Assign rand_sets[4]: 331  LLC: 2048
rand_sets[4]: 331
Assign rand_sets[5]: 1531  LLC: 2048
rand_sets[5]: 1531
Assign rand_sets[6]: 482  LLC: 2048
rand_sets[6]: 482
Assign rand_sets[7]: 1275  LLC: 2048
rand_sets[7]: 1275
Assign rand_sets[8]: 1876  LLC: 2048
rand_sets[8]: 1876
Assign rand_sets[9]: 2038  LLC: 2048
rand_sets[9]: 2038
Assign rand_sets[10]: 701  LLC: 2048
rand_sets[10]: 701
Assign rand_sets[11]: 479  LLC: 2048
rand_sets[11]: 479
Assign rand_sets[12]: 892  LLC: 2048
rand_sets[12]: 892
Assign rand_sets[13]: 1820  LLC: 2048
rand_sets[13]: 1820
Assign rand_sets[14]: 1505  LLC: 2048
rand_sets[14]: 1505
Assign rand_sets[15]: 1159  LLC: 2048
rand_sets[15]: 1159
Assign rand_sets[16]: 513  LLC: 2048
rand_sets[16]: 513
Assign rand_sets[17]: 703  LLC: 2048
rand_sets[17]: 703
Assign rand_sets[18]: 561  LLC: 2048
rand_sets[18]: 561
Assign rand_sets[19]: 990  LLC: 2048
rand_sets[19]: 990
Assign rand_sets[20]: 342  LLC: 2048
rand_sets[20]: 342
Assign rand_sets[21]: 882  LLC: 2048
rand_sets[21]: 882
Assign rand_sets[22]: 15  LLC: 2048
rand_sets[22]: 15
Assign rand_sets[23]: 71  LLC: 2048
rand_sets[23]: 71
Assign rand_sets[24]: 1127  LLC: 2048
rand_sets[24]: 1127
Assign rand_sets[25]: 1382  LLC: 2048
rand_sets[25]: 1382
Assign rand_sets[26]: 647  LLC: 2048
rand_sets[26]: 647
Assign rand_sets[27]: 857  LLC: 2048
rand_sets[27]: 857
Assign rand_sets[28]: 1450  LLC: 2048
rand_sets[28]: 1450
Assign rand_sets[29]: 1160  LLC: 2048
rand_sets[29]: 1160
Assign rand_sets[30]: 1852  LLC: 2048
rand_sets[30]: 1852
Assign rand_sets[31]: 1881  LLC: 2048
rand_sets[31]: 1881
Assign rand_sets[32]: 1770  LLC: 2048
rand_sets[32]: 1770
Assign rand_sets[33]: 1622  LLC: 2048
rand_sets[33]: 1622
Assign rand_sets[34]: 275  LLC: 2048
rand_sets[34]: 275
Assign rand_sets[35]: 635  LLC: 2048
rand_sets[35]: 635
Assign rand_sets[36]: 466  LLC: 2048
rand_sets[36]: 466
Assign rand_sets[37]: 1413  LLC: 2048
rand_sets[37]: 1413
Assign rand_sets[38]: 417  LLC: 2048
rand_sets[38]: 417
Assign rand_sets[39]: 472  LLC: 2048
rand_sets[39]: 472
Assign rand_sets[40]: 1340  LLC: 2048
rand_sets[40]: 1340
Assign rand_sets[41]: 852  LLC: 2048
rand_sets[41]: 852
Assign rand_sets[42]: 1365  LLC: 2048
rand_sets[42]: 1365
Assign rand_sets[43]: 47  LLC: 2048
rand_sets[43]: 47
Assign rand_sets[44]: 823  LLC: 2048
rand_sets[44]: 823
Assign rand_sets[45]: 686  LLC: 2048
rand_sets[45]: 686
Assign rand_sets[46]: 1637  LLC: 2048
rand_sets[46]: 1637
Assign rand_sets[47]: 1115  LLC: 2048
rand_sets[47]: 1115
Assign rand_sets[48]: 986  LLC: 2048
rand_sets[48]: 986
Assign rand_sets[49]: 258  LLC: 2048
rand_sets[49]: 258
Assign rand_sets[50]: 633  LLC: 2048
rand_sets[50]: 633
Assign rand_sets[51]: 920  LLC: 2048
rand_sets[51]: 920
Assign rand_sets[52]: 204  LLC: 2048
rand_sets[52]: 204
Assign rand_sets[53]: 227  LLC: 2048
rand_sets[53]: 227
Assign rand_sets[54]: 1818  LLC: 2048
rand_sets[54]: 1818
Assign rand_sets[55]: 886  LLC: 2048
rand_sets[55]: 886
Assign rand_sets[56]: 1422  LLC: 2048
rand_sets[56]: 1422
Assign rand_sets[57]: 607  LLC: 2048
rand_sets[57]: 607
Assign rand_sets[58]: 217  LLC: 2048
rand_sets[58]: 217
Assign rand_sets[59]: 1945  LLC: 2048
rand_sets[59]: 1945
Assign rand_sets[60]: 143  LLC: 2048
rand_sets[60]: 143
Assign rand_sets[61]: 1311  LLC: 2048
rand_sets[61]: 1311
Assign rand_sets[62]: 319  LLC: 2048
rand_sets[62]: 319
Assign rand_sets[63]: 1846  LLC: 2048
rand_sets[63]: 1846
 CLEAN-RRIP-POLICY-1: 0-0-2-2-0-3-0-1- CLEAN-RRIP-POLICY-2: 0-0-2-2-0-3-0-1-
 DIRTY-RRIP-POLICY-1: 1-0-2-2-1-3-0-1- DIRTY-RRIP-POLICY-2: 1-0-2-2-1-3-0-1-
 PSEL width: 10
Heartbeat CPU 0 instructions: 10000000 cycles: 4124769 heartbeat IPC: 2.42438 cumulative IPC: 2.42438 (Simulation time: 0 hr 0 min 14 sec) 
Heartbeat CPU 0 instructions: 20000000 cycles: 8234006 heartbeat IPC: 2.43354 cumulative IPC: 2.42895 (Simulation time: 0 hr 0 min 27 sec) 
Heartbeat CPU 0 instructions: 30000003 cycles: 12464977 heartbeat IPC: 2.36352 cumulative IPC: 2.40674 (Simulation time: 0 hr 0 min 40 sec) 
Heartbeat CPU 0 instructions: 40000000 cycles: 16636975 heartbeat IPC: 2.39693 cumulative IPC: 2.40428 (Simulation time: 0 hr 0 min 54 sec) 
Heartbeat CPU 0 instructions: 50000000 cycles: 20699435 heartbeat IPC: 2.46156 cumulative IPC: 2.41552 (Simulation time: 0 hr 1 min 7 sec) 
Heartbeat CPU 0 instructions: 60000000 cycles: 25022831 heartbeat IPC: 2.313 cumulative IPC: 2.39781 (Simulation time: 0 hr 1 min 20 sec) 
Heartbeat CPU 0 instructions: 70000000 cycles: 29371115 heartbeat IPC: 2.29976 cumulative IPC: 2.38329 (Simulation time: 0 hr 1 min 33 sec) 
Heartbeat CPU 0 instructions: 80000000 cycles: 33721279 heartbeat IPC: 2.29876 cumulative IPC: 2.37239 (Simulation time: 0 hr 1 min 46 sec) 
Heartbeat CPU 0 instructions: 90000002 cycles: 38032290 heartbeat IPC: 2.31964 cumulative IPC: 2.36641 (Simulation time: 0 hr 1 min 59 sec) 
Heartbeat CPU 0 instructions: 100000000 cycles: 42329189 heartbeat IPC: 2.32726 cumulative IPC: 2.36244 (Simulation time: 0 hr 2 min 13 sec) 

Warmup complete CPU 0 instructions: 100000001 cycles: 42329190 (Simulation time: 0 hr 2 min 13 sec) 

Heartbeat CPU 0 instructions: 110000001 cycles: 49379116 heartbeat IPC: 1.41845 cumulative IPC: 1.41845 (Simulation time: 0 hr 2 min 30 sec) 
Heartbeat CPU 0 instructions: 120000000 cycles: 58880051 heartbeat IPC: 1.05253 cumulative IPC: 1.2084 (Simulation time: 0 hr 2 min 49 sec) 
Heartbeat CPU 0 instructions: 130000000 cycles: 63702659 heartbeat IPC: 2.07357 cumulative IPC: 1.40361 (Simulation time: 0 hr 3 min 6 sec) 
Heartbeat CPU 0 instructions: 140000000 cycles: 68596597 heartbeat IPC: 2.04334 cumulative IPC: 1.5228 (Simulation time: 0 hr 3 min 22 sec) 
Heartbeat CPU 0 instructions: 150000002 cycles: 75461906 heartbeat IPC: 1.4566 cumulative IPC: 1.50908 (Simulation time: 0 hr 3 min 40 sec) 
Heartbeat CPU 0 instructions: 160000000 cycles: 83252798 heartbeat IPC: 1.28355 cumulative IPC: 1.46615 (Simulation time: 0 hr 3 min 58 sec) 
Heartbeat CPU 0 instructions: 170000000 cycles: 90611412 heartbeat IPC: 1.35895 cumulative IPC: 1.44981 (Simulation time: 0 hr 4 min 15 sec) 
Heartbeat CPU 0 instructions: 180000000 cycles: 97863041 heartbeat IPC: 1.379 cumulative IPC: 1.44056 (Simulation time: 0 hr 4 min 32 sec) 
Heartbeat CPU 0 instructions: 190000002 cycles: 104987528 heartbeat IPC: 1.40361 cumulative IPC: 1.43636 (Simulation time: 0 hr 4 min 49 sec) 
Heartbeat CPU 0 instructions: 200000000 cycles: 112170851 heartbeat IPC: 1.39211 cumulative IPC: 1.43181 (Simulation time: 0 hr 5 min 6 sec) 
Heartbeat CPU 0 instructions: 210000000 cycles: 119003533 heartbeat IPC: 1.46355 cumulative IPC: 1.43464 (Simulation time: 0 hr 5 min 23 sec) 
Heartbeat CPU 0 instructions: 220000000 cycles: 125740212 heartbeat IPC: 1.48441 cumulative IPC: 1.43866 (Simulation time: 0 hr 5 min 39 sec) 
Heartbeat CPU 0 instructions: 230000003 cycles: 132436619 heartbeat IPC: 1.49334 cumulative IPC: 1.44272 (Simulation time: 0 hr 5 min 56 sec) 
Heartbeat CPU 0 instructions: 240000000 cycles: 139139513 heartbeat IPC: 1.49189 cumulative IPC: 1.44613 (Simulation time: 0 hr 6 min 12 sec) 
Heartbeat CPU 0 instructions: 250000001 cycles: 145805684 heartbeat IPC: 1.50011 cumulative IPC: 1.4496 (Simulation time: 0 hr 6 min 29 sec) 
Heartbeat CPU 0 instructions: 260000000 cycles: 152472942 heartbeat IPC: 1.49987 cumulative IPC: 1.45265 (Simulation time: 0 hr 6 min 45 sec) 
Heartbeat CPU 0 instructions: 270000001 cycles: 159399897 heartbeat IPC: 1.44364 cumulative IPC: 1.45211 (Simulation time: 0 hr 7 min 2 sec) 
Heartbeat CPU 0 instructions: 280000000 cycles: 166896682 heartbeat IPC: 1.3339 cumulative IPC: 1.445 (Simulation time: 0 hr 7 min 19 sec) 
Heartbeat CPU 0 instructions: 290000000 cycles: 174799956 heartbeat IPC: 1.2653 cumulative IPC: 1.43428 (Simulation time: 0 hr 7 min 37 sec) 
Heartbeat CPU 0 instructions: 300000000 cycles: 182966532 heartbeat IPC: 1.2245 cumulative IPC: 1.4221 (Simulation time: 0 hr 7 min 55 sec) 
Heartbeat CPU 0 instructions: 310000002 cycles: 191271227 heartbeat IPC: 1.20414 cumulative IPC: 1.40994 (Simulation time: 0 hr 8 min 13 sec) 
Heartbeat CPU 0 instructions: 320000000 cycles: 201271236 heartbeat IPC: 0.999999 cumulative IPC: 1.38415 (Simulation time: 0 hr 8 min 33 sec) 
Heartbeat CPU 0 instructions: 330000002 cycles: 205922294 heartbeat IPC: 2.15005 cumulative IPC: 1.40593 (Simulation time: 0 hr 8 min 50 sec) 
Heartbeat CPU 0 instructions: 340000000 cycles: 211147541 heartbeat IPC: 1.91378 cumulative IPC: 1.42165 (Simulation time: 0 hr 9 min 6 sec) 
Heartbeat CPU 0 instructions: 350000000 cycles: 218393939 heartbeat IPC: 1.38 cumulative IPC: 1.41993 (Simulation time: 0 hr 9 min 24 sec) 
Heartbeat CPU 0 instructions: 360000000 cycles: 226020367 heartbeat IPC: 1.31123 cumulative IPC: 1.41542 (Simulation time: 0 hr 9 min 42 sec) 
Heartbeat CPU 0 instructions: 370000000 cycles: 233384819 heartbeat IPC: 1.35787 cumulative IPC: 1.4132 (Simulation time: 0 hr 9 min 59 sec) 
Heartbeat CPU 0 instructions: 380000000 cycles: 240605802 heartbeat IPC: 1.38485 cumulative IPC: 1.41217 (Simulation time: 0 hr 10 min 16 sec) 
Heartbeat CPU 0 instructions: 390000000 cycles: 248700386 heartbeat IPC: 1.23539 cumulative IPC: 1.40523 (Simulation time: 0 hr 10 min 34 sec) 
Heartbeat CPU 0 instructions: 400000000 cycles: 256892082 heartbeat IPC: 1.22075 cumulative IPC: 1.39819 (Simulation time: 0 hr 10 min 52 sec) 
Heartbeat CPU 0 instructions: 410000001 cycles: 264686457 heartbeat IPC: 1.28298 cumulative IPC: 1.39415 (Simulation time: 0 hr 11 min 10 sec) 
Heartbeat CPU 0 instructions: 420000000 cycles: 272729575 heartbeat IPC: 1.2433 cumulative IPC: 1.38889 (Simulation time: 0 hr 11 min 28 sec) 
Heartbeat CPU 0 instructions: 430000001 cycles: 280972044 heartbeat IPC: 1.21323 cumulative IPC: 1.38282 (Simulation time: 0 hr 11 min 46 sec) 
Heartbeat CPU 0 instructions: 440000000 cycles: 289002545 heartbeat IPC: 1.24525 cumulative IPC: 1.37834 (Simulation time: 0 hr 12 min 4 sec) 
Heartbeat CPU 0 instructions: 450000001 cycles: 296872787 heartbeat IPC: 1.27061 cumulative IPC: 1.37501 (Simulation time: 0 hr 12 min 21 sec) 
Heartbeat CPU 0 instructions: 460000000 cycles: 306686753 heartbeat IPC: 1.01896 cumulative IPC: 1.36179 (Simulation time: 0 hr 12 min 41 sec) 
Heartbeat CPU 0 instructions: 470000002 cycles: 311321723 heartbeat IPC: 2.15751 cumulative IPC: 1.3755 (Simulation time: 0 hr 12 min 57 sec) 
Heartbeat CPU 0 instructions: 480000000 cycles: 316560308 heartbeat IPC: 1.90891 cumulative IPC: 1.38569 (Simulation time: 0 hr 13 min 14 sec) 
Heartbeat CPU 0 instructions: 490000001 cycles: 323905746 heartbeat IPC: 1.36139 cumulative IPC: 1.38506 (Simulation time: 0 hr 13 min 33 sec) 
Heartbeat CPU 0 instructions: 500000000 cycles: 332635921 heartbeat IPC: 1.14545 cumulative IPC: 1.37785 (Simulation time: 0 hr 13 min 53 sec) 
Heartbeat CPU 0 instructions: 510000002 cycles: 341366766 heartbeat IPC: 1.14536 cumulative IPC: 1.37107 (Simulation time: 0 hr 14 min 12 sec) 
Heartbeat CPU 0 instructions: 520000000 cycles: 350097172 heartbeat IPC: 1.14542 cumulative IPC: 1.36466 (Simulation time: 0 hr 14 min 32 sec) 
Heartbeat CPU 0 instructions: 530000000 cycles: 358806721 heartbeat IPC: 1.14817 cumulative IPC: 1.35871 (Simulation time: 0 hr 14 min 52 sec) 
Heartbeat CPU 0 instructions: 540000000 cycles: 367054339 heartbeat IPC: 1.21247 cumulative IPC: 1.35499 (Simulation time: 0 hr 15 min 11 sec) 
Heartbeat CPU 0 instructions: 550000000 cycles: 374106859 heartbeat IPC: 1.41793 cumulative IPC: 1.35633 (Simulation time: 0 hr 15 min 29 sec) 
Heartbeat CPU 0 instructions: 560000000 cycles: 380711609 heartbeat IPC: 1.51406 cumulative IPC: 1.35941 (Simulation time: 0 hr 15 min 46 sec) 
Heartbeat CPU 0 instructions: 570000002 cycles: 387269369 heartbeat IPC: 1.52491 cumulative IPC: 1.36256 (Simulation time: 0 hr 16 min 3 sec) 
Heartbeat CPU 0 instructions: 580000000 cycles: 393876745 heartbeat IPC: 1.51346 cumulative IPC: 1.36539 (Simulation time: 0 hr 16 min 20 sec) 
Heartbeat CPU 0 instructions: 590000002 cycles: 400520034 heartbeat IPC: 1.50528 cumulative IPC: 1.36799 (Simulation time: 0 hr 16 min 37 sec) 
Heartbeat CPU 0 instructions: 600000000 cycles: 407283348 heartbeat IPC: 1.47856 cumulative IPC: 1.37004 (Simulation time: 0 hr 16 min 54 sec) 
Finished CPU 0 instructions: 500000000 cycles: 364954166 cumulative IPC: 1.37004 (Simulation time: 0 hr 16 min 54 sec) 

CPU 0 Branch Prediction Accuracy: 93.4682% MPKI: 2.44079
Number of Branches: 18683822 Number of Mispredictions: 1220394
Number of LOAD Instructions: 142551610
Number of LOAD Instructions (ROI): 142551610
Number of STORE Instructions: 44807454
Number of STORE Instructions (ROI): 44807454
Total Destination Memory Operands: 48357071
Total Destination Memory Operands (ROI): 48357071
Total Source Memory Operands: 142551610
Total Source Memory Operands (ROI): 142551610
Number of DEPENDED LOADS: 7395087
Number of DEPENDED LOADS (ROI): 7395087
Number of SQ_ADDED: 48357051
Number of SQ_ADDED (ROI): 48357051
Number of LQ_ADDED: 157219930
Number of LQ_ADDED (ROI): 157219930
Number of Instructions read from trace: 600000256

ChampSim completed all CPUs

Region of Interest Statistics

CPU 0 cumulative IPC: 1.37004 instructions: 500000000 cycles: 364954166
ITLB TOTAL     ACCESS:   88173961  HIT:   88173892  MISS:         69
ITLB LOAD      ACCESS:   88173961  HIT:   88173892  MISS:         69
ITLB RFO       ACCESS:          0  HIT:          0  MISS:          0
ITLB PREFETCH  ACCESS:          0  HIT:          0  MISS:          0
ITLB WRITEBACK ACCESS:          0  HIT:          0  MISS:          0
ITLB PREFETCH  REQUESTED:          0  ISSUED:          0  USEFUL:          0  USELESS:          0
ITLB TOTAL MSHR MERGED:         86
ITLB LOAD MSHR MERGED:         86
ITLB RFO MSHR MERGED:          0
ITLB PREFETCH MSHR MERGED:          0
ITLB WRITEBACK MSHR MERGED:          0
ITLB TOTAL ACCESSES:   88174047 HITS:   88173892 MISSES:        155
ITLB LOAD ACCESSES:   88174047 HITS:   88173892 MISSES:        155
ITLB RFO ACCESSES:          0 HITS:          0 MISSES:          0
ITLB PREFETCH ACCESSES:          0 HITS:          0 MISSES:          0
ITLB WRITEBACK ACCESSES:          0 HITS:          0 MISSES:          0
ITLB RQ ACCESS:  500000000
ITLB RQ TO_CACHE:   88174047
ITLB RQ MERGED:  411825953
ITLB RQ FORWARD:          0
ITLB WQ ACCESS:          0
ITLB WQ TO_CACHE:          0
ITLB WQ MERGED:          0
ITLB WQ FORWARD:          0
DTLB TOTAL     ACCESS:   88202314  HIT:   88074897  MISS:     127417
DTLB LOAD      ACCESS:   59484465  HIT:   59391997  MISS:      92468
DTLB RFO       ACCESS:   28717849  HIT:   28682900  MISS:      34949
DTLB PREFETCH  ACCESS:          0  HIT:          0  MISS:          0
DTLB WRITEBACK ACCESS:          0  HIT:          0  MISS:          0
DTLB PREFETCH  REQUESTED:          0  ISSUED:          0  USEFUL:          0  USELESS:          0
DTLB TOTAL MSHR MERGED:     141313
DTLB LOAD MSHR MERGED:     107731
DTLB RFO MSHR MERGED:      33582
DTLB PREFETCH MSHR MERGED:          0
DTLB WRITEBACK MSHR MERGED:          0
DTLB TOTAL ACCESSES:   88343627 HITS:   88074897 MISSES:     268730
DTLB LOAD ACCESSES:   59592196 HITS:   59391997 MISSES:     200199
DTLB RFO ACCESSES:   28751431 HITS:   28682900 MISSES:      68531
DTLB PREFETCH ACCESSES:          0 HITS:          0 MISSES:          0
DTLB WRITEBACK ACCESSES:          0 HITS:          0 MISSES:          0
DTLB RQ ACCESS:  154558806
DTLB RQ TO_CACHE:   88343627
DTLB RQ MERGED:   66215179
DTLB RQ FORWARD:          0
DTLB WQ ACCESS:          0
DTLB WQ TO_CACHE:          0
DTLB WQ MERGED:          0
DTLB WQ FORWARD:          0
L1D TOTAL     ACCESS:  128023355  HIT:  124798310  MISS:    3225045
L1D LOAD      ACCESS:   53173108  HIT:   51977865  MISS:    1195243
L1D RFO       ACCESS:   37458987  HIT:   36845337  MISS:     613650
L1D PREFETCH  ACCESS:   37391260  HIT:   35975108  MISS:    1416152
L1D WRITEBACK ACCESS:          0  HIT:          0  MISS:          0
L1D PREFETCH  REQUESTED:   53657048  ISSUED:   52455734  USEFUL:     352175  USELESS:    1063942
L1D TOTAL MSHR MERGED:    2784845
L1D LOAD MSHR MERGED:     522813
L1D RFO MSHR MERGED:    1495404
L1D PREFETCH MSHR MERGED:     766628
L1D WRITEBACK MSHR MERGED:          0
L1D TOTAL ACCESSES:  130843038 HITS:  124833148 MISSES:    6009890
L1D LOAD ACCESSES:   53659892 HITS:   51980709 MISSES:    1679183
L1D RFO ACCESSES:   38952869 HITS:   36845337 MISSES:    2107532
L1D PREFETCH ACCESSES:   38230277 HITS:   36007102 MISSES:    2223175
L1D WRITEBACK ACCESSES:          0 HITS:          0 MISSES:          0
L1D RQ ACCESS:  113713914
L1D RQ TO_CACHE:   53657048
L1D RQ MERGED:   60054022
L1D RQ FORWARD:          0
L1D WQ ACCESS:   40844891
L1D WQ TO_CACHE:   38952869
L1D WQ MERGED:    1892022
L1D WQ FORWARD:      34838
L1I TOTAL     ACCESS:  108365261  HIT:  107806129  MISS:     559132
L1I LOAD      ACCESS:  108365261  HIT:  107806129  MISS:     559132
L1I RFO       ACCESS:          0  HIT:          0  MISS:          0
L1I PREFETCH  ACCESS:          0  HIT:          0  MISS:          0
L1I WRITEBACK ACCESS:          0  HIT:          0  MISS:          0
L1I PREFETCH  REQUESTED:          0  ISSUED:          0  USEFUL:          0  USELESS:          0
L1I TOTAL MSHR MERGED:     525749
L1I LOAD MSHR MERGED:     525749
L1I RFO MSHR MERGED:          0
L1I PREFETCH MSHR MERGED:          0
L1I WRITEBACK MSHR MERGED:          0
L1I TOTAL ACCESSES:  108891010 HITS:  107806129 MISSES:    1084881
L1I LOAD ACCESSES:  108891010 HITS:  107806129 MISSES:    1084881
L1I RFO ACCESSES:          0 HITS:          0 MISSES:          0
L1I PREFETCH ACCESSES:          0 HITS:          0 MISSES:          0
L1I WRITEBACK ACCESSES:          0 HITS:          0 MISSES:          0
L1I RQ ACCESS:  500000002
L1I RQ TO_CACHE:  108891010
L1I RQ MERGED:  391108992
L1I RQ FORWARD:          0
L1I WQ ACCESS:          0
L1I WQ TO_CACHE:          0
L1I WQ MERGED:          0
L1I WQ FORWARD:          0
L2C TOTAL     ACCESS:    4693591  HIT:    3868076  MISS:     825515
L2C LOAD      ACCESS:    1715391  HIT:    1563784  MISS:     151607
L2C RFO       ACCESS:     610694  HIT:     421128  MISS:     189566
L2C PREFETCH  ACCESS:    1664603  HIT:    1182454  MISS:     482149
L2C WRITEBACK ACCESS:     702903  HIT:     700710  MISS:       2193
L2C PREFETCH  REQUESTED:     255804  ISSUED:     255804  USEFUL:     174091  USELESS:     308724
L2C TOTAL MSHR MERGED:      11578
L2C LOAD MSHR MERGED:       3143
L2C RFO MSHR MERGED:          0
L2C PREFETCH MSHR MERGED:       8435
L2C WRITEBACK MSHR MERGED:          0
L2C TOTAL ACCESSES:    4711120 HITS:    3869690 MISSES:     841430
L2C LOAD ACCESSES:    1715502 HITS:    1563895 MISSES:     151607
L2C RFO ACCESSES:     612128 HITS:     422562 MISSES:     189566
L2C PREFETCH ACCESSES:    1680587 HITS:    1182523 MISSES:     498064
L2C WRITEBACK ACCESSES:     702903 HITS:     700710 MISSES:       2193
L2C RQ ACCESS:    2327630
L2C RQ TO_CACHE:    2326085
L2C RQ MERGED:          0
L2C RQ FORWARD:          0
L2C WQ ACCESS:     702903
L2C WQ TO_CACHE:     702903
L2C WQ MERGED:          0
L2C WQ FORWARD:       1614
LLC TOTAL     ACCESS:    1046764  HIT:     314874  MISS:     731890
LLC LOAD      ACCESS:     148460  HIT:      92502  MISS:      55958
LLC RFO       ACCESS:     189557  HIT:      16400  MISS:     173157
LLC PREFETCH  ACCESS:     487858  HIT:     141083  MISS:     346775
LLC WRITEBACK ACCESS:     220889  HIT:      64889  MISS:     156000
LLC PREFETCH  REQUESTED:          0  ISSUED:          0  USEFUL:      19484  USELESS:     327186
LLC TOTAL MSHR MERGED:       1144
LLC LOAD MSHR MERGED:        396
LLC RFO MSHR MERGED:          0
LLC PREFETCH MSHR MERGED:        748
LLC WRITEBACK MSHR MERGED:          0
LLC TOTAL ACCESSES:    1047921 HITS:     314887 MISSES:     733034
LLC LOAD ACCESSES:     148464 HITS:      92506 MISSES:      55958
LLC RFO ACCESSES:     189566 HITS:      16409 MISSES:     173157
LLC PREFETCH ACCESSES:     489002 HITS:     141083 MISSES:     347919
LLC WRITEBACK ACCESSES:     220889 HITS:      64889 MISSES:     156000
LLC 0 RQ ACCESS:     338030
LLC 0 RQ TO_CACHE:     338017
LLC 0 RQ MERGED:          0
LLC 0 RQ FORWARD:          0
LLC WQ ACCESS:     220889
LLC WQ TO_CACHE:     220889
LLC WQ MERGED:          0
LLC WQ FORWARD:         13
Major fault: 0 Minor fault: 6811
CPU 0 L1D next line prefetcher final stats
CPU 0 L2C PC-based stride prefetcher final stats
All Misses: 854304
All Hits: 399443
SD Algo Stats - Switches: 0 SRR-Repls: 62750 BRR-Repls: 0

DRAM Statistics
 CHANNEL 0
 RQ ROW_BUFFER_HIT:     300546  ROW_BUFFER_MISS:     275275
 DBUS_CONGESTED:     422361
 WQ ROW_BUFFER_HIT:      25334  ROW_BUFFER_MISS:     195047  FULL:          0

 AVG_CONGESTED_CYCLE: 13
LOADS RETIRED: 119922929
INSTR RETIRED: 500000000
