
*** ChampSim Multicore Out-of-Order Simulator ***

Warmup Instructions: 100000000
Simulation Instructions: 500000000
Number of CPUs: 1
LLC sets: 2048
LLC ways: 16
Clean RRIP Policies: 1023032210230322 Dirty RRIP Policies: 2023230220232302 PSEL Width: 10 Track Set: 4294967295 PSEL Mask: 1 Demote Mask: 1043310410433104DS Algo: 0Window size: 0
Off-chip DRAM Size: 4096 MB Channels: 1 Width: 64-bit Data Rate: 1600 MT/s

CPU 0 runs /mnt/beegfs/iconst01/spec2017/x264.trace.gz
NOT SORTED
TRACE STRING: /mnt/beegfs/iconst01/spec2017/x264.trace.gz
SORTED
TRACE STRING: /mnt/beegfs/iconst01/spec2017/x264.trace.gz
INITIAL
TRACE STRING: /mnt/beegfs/iconst01/spec2017/x264.trace.gz

champsim_seed used: 276

CPU 0 L1D next line prefetcher
CPU 0 L2C IP-based stride prefetcher
Initialize DRRIP state
Assign rand_sets[0]: 454  LLC: 2048
rand_sets[0]: 454
Assign rand_sets[1]: 1662  LLC: 2048
rand_sets[1]: 1662
Assign rand_sets[2]: 1921  LLC: 2048
rand_sets[2]: 1921
Assign rand_sets[3]: 1131  LLC: 2048
rand_sets[3]: 1131
Assign rand_sets[4]: 331  LLC: 2048
rand_sets[4]: 331
Assign rand_sets[5]: 1531  LLC: 2048
rand_sets[5]: 1531
Assign rand_sets[6]: 482  LLC: 2048
rand_sets[6]: 482
Assign rand_sets[7]: 1275  LLC: 2048
rand_sets[7]: 1275
Assign rand_sets[8]: 1876  LLC: 2048
rand_sets[8]: 1876
Assign rand_sets[9]: 2038  LLC: 2048
rand_sets[9]: 2038
Assign rand_sets[10]: 701  LLC: 2048
rand_sets[10]: 701
Assign rand_sets[11]: 479  LLC: 2048
rand_sets[11]: 479
Assign rand_sets[12]: 892  LLC: 2048
rand_sets[12]: 892
Assign rand_sets[13]: 1820  LLC: 2048
rand_sets[13]: 1820
Assign rand_sets[14]: 1505  LLC: 2048
rand_sets[14]: 1505
Assign rand_sets[15]: 1159  LLC: 2048
rand_sets[15]: 1159
Assign rand_sets[16]: 513  LLC: 2048
rand_sets[16]: 513
Assign rand_sets[17]: 703  LLC: 2048
rand_sets[17]: 703
Assign rand_sets[18]: 561  LLC: 2048
rand_sets[18]: 561
Assign rand_sets[19]: 990  LLC: 2048
rand_sets[19]: 990
Assign rand_sets[20]: 342  LLC: 2048
rand_sets[20]: 342
Assign rand_sets[21]: 882  LLC: 2048
rand_sets[21]: 882
Assign rand_sets[22]: 15  LLC: 2048
rand_sets[22]: 15
Assign rand_sets[23]: 71  LLC: 2048
rand_sets[23]: 71
Assign rand_sets[24]: 1127  LLC: 2048
rand_sets[24]: 1127
Assign rand_sets[25]: 1382  LLC: 2048
rand_sets[25]: 1382
Assign rand_sets[26]: 647  LLC: 2048
rand_sets[26]: 647
Assign rand_sets[27]: 857  LLC: 2048
rand_sets[27]: 857
Assign rand_sets[28]: 1450  LLC: 2048
rand_sets[28]: 1450
Assign rand_sets[29]: 1160  LLC: 2048
rand_sets[29]: 1160
Assign rand_sets[30]: 1852  LLC: 2048
rand_sets[30]: 1852
Assign rand_sets[31]: 1881  LLC: 2048
rand_sets[31]: 1881
Assign rand_sets[32]: 1770  LLC: 2048
rand_sets[32]: 1770
Assign rand_sets[33]: 1622  LLC: 2048
rand_sets[33]: 1622
Assign rand_sets[34]: 275  LLC: 2048
rand_sets[34]: 275
Assign rand_sets[35]: 635  LLC: 2048
rand_sets[35]: 635
Assign rand_sets[36]: 466  LLC: 2048
rand_sets[36]: 466
Assign rand_sets[37]: 1413  LLC: 2048
rand_sets[37]: 1413
Assign rand_sets[38]: 417  LLC: 2048
rand_sets[38]: 417
Assign rand_sets[39]: 472  LLC: 2048
rand_sets[39]: 472
Assign rand_sets[40]: 1340  LLC: 2048
rand_sets[40]: 1340
Assign rand_sets[41]: 852  LLC: 2048
rand_sets[41]: 852
Assign rand_sets[42]: 1365  LLC: 2048
rand_sets[42]: 1365
Assign rand_sets[43]: 47  LLC: 2048
rand_sets[43]: 47
Assign rand_sets[44]: 823  LLC: 2048
rand_sets[44]: 823
Assign rand_sets[45]: 686  LLC: 2048
rand_sets[45]: 686
Assign rand_sets[46]: 1637  LLC: 2048
rand_sets[46]: 1637
Assign rand_sets[47]: 1115  LLC: 2048
rand_sets[47]: 1115
Assign rand_sets[48]: 986  LLC: 2048
rand_sets[48]: 986
Assign rand_sets[49]: 258  LLC: 2048
rand_sets[49]: 258
Assign rand_sets[50]: 633  LLC: 2048
rand_sets[50]: 633
Assign rand_sets[51]: 920  LLC: 2048
rand_sets[51]: 920
Assign rand_sets[52]: 204  LLC: 2048
rand_sets[52]: 204
Assign rand_sets[53]: 227  LLC: 2048
rand_sets[53]: 227
Assign rand_sets[54]: 1818  LLC: 2048
rand_sets[54]: 1818
Assign rand_sets[55]: 886  LLC: 2048
rand_sets[55]: 886
Assign rand_sets[56]: 1422  LLC: 2048
rand_sets[56]: 1422
Assign rand_sets[57]: 607  LLC: 2048
rand_sets[57]: 607
Assign rand_sets[58]: 217  LLC: 2048
rand_sets[58]: 217
Assign rand_sets[59]: 1945  LLC: 2048
rand_sets[59]: 1945
Assign rand_sets[60]: 143  LLC: 2048
rand_sets[60]: 143
Assign rand_sets[61]: 1311  LLC: 2048
rand_sets[61]: 1311
Assign rand_sets[62]: 319  LLC: 2048
rand_sets[62]: 319
Assign rand_sets[63]: 1846  LLC: 2048
rand_sets[63]: 1846
 CLEAN-RRIP-POLICY-1: 1-0-2-3-0-3-2-2- CLEAN-RRIP-POLICY-2: 1-0-2-3-0-3-2-2-
 DIRTY-RRIP-POLICY-1: 2-0-2-3-2-3-0-2- DIRTY-RRIP-POLICY-2: 2-0-2-3-2-3-0-2-
 PSEL width: 10
Heartbeat CPU 0 instructions: 10000000 cycles: 4124759 heartbeat IPC: 2.42438 cumulative IPC: 2.42438 (Simulation time: 0 hr 0 min 14 sec) 
Heartbeat CPU 0 instructions: 20000000 cycles: 8233863 heartbeat IPC: 2.43362 cumulative IPC: 2.42899 (Simulation time: 0 hr 0 min 27 sec) 
Heartbeat CPU 0 instructions: 30000003 cycles: 12464696 heartbeat IPC: 2.3636 cumulative IPC: 2.4068 (Simulation time: 0 hr 0 min 40 sec) 
Heartbeat CPU 0 instructions: 40000000 cycles: 16636669 heartbeat IPC: 2.39695 cumulative IPC: 2.40433 (Simulation time: 0 hr 0 min 53 sec) 
Heartbeat CPU 0 instructions: 50000000 cycles: 20699156 heartbeat IPC: 2.46155 cumulative IPC: 2.41556 (Simulation time: 0 hr 1 min 7 sec) 
Heartbeat CPU 0 instructions: 60000000 cycles: 25022690 heartbeat IPC: 2.31292 cumulative IPC: 2.39782 (Simulation time: 0 hr 1 min 20 sec) 
Heartbeat CPU 0 instructions: 70000000 cycles: 29371061 heartbeat IPC: 2.29971 cumulative IPC: 2.3833 (Simulation time: 0 hr 1 min 33 sec) 
Heartbeat CPU 0 instructions: 80000000 cycles: 33721250 heartbeat IPC: 2.29875 cumulative IPC: 2.37239 (Simulation time: 0 hr 1 min 46 sec) 
Heartbeat CPU 0 instructions: 90000002 cycles: 38032331 heartbeat IPC: 2.3196 cumulative IPC: 2.36641 (Simulation time: 0 hr 1 min 59 sec) 
Heartbeat CPU 0 instructions: 100000000 cycles: 42329327 heartbeat IPC: 2.32721 cumulative IPC: 2.36243 (Simulation time: 0 hr 2 min 12 sec) 

Warmup complete CPU 0 instructions: 100000001 cycles: 42329328 (Simulation time: 0 hr 2 min 12 sec) 

Heartbeat CPU 0 instructions: 110000001 cycles: 49413378 heartbeat IPC: 1.41162 cumulative IPC: 1.41162 (Simulation time: 0 hr 2 min 29 sec) 
Heartbeat CPU 0 instructions: 120000000 cycles: 58899824 heartbeat IPC: 1.05414 cumulative IPC: 1.20696 (Simulation time: 0 hr 2 min 48 sec) 
Heartbeat CPU 0 instructions: 130000000 cycles: 63711105 heartbeat IPC: 2.07845 cumulative IPC: 1.40306 (Simulation time: 0 hr 3 min 5 sec) 
Heartbeat CPU 0 instructions: 140000000 cycles: 68607255 heartbeat IPC: 2.04242 cumulative IPC: 1.52219 (Simulation time: 0 hr 3 min 21 sec) 
Heartbeat CPU 0 instructions: 150000002 cycles: 75426357 heartbeat IPC: 1.46647 cumulative IPC: 1.51071 (Simulation time: 0 hr 3 min 39 sec) 
Heartbeat CPU 0 instructions: 160000000 cycles: 83274464 heartbeat IPC: 1.27419 cumulative IPC: 1.46538 (Simulation time: 0 hr 3 min 56 sec) 
Heartbeat CPU 0 instructions: 170000000 cycles: 90693065 heartbeat IPC: 1.34796 cumulative IPC: 1.44737 (Simulation time: 0 hr 4 min 13 sec) 
Heartbeat CPU 0 instructions: 180000000 cycles: 98005020 heartbeat IPC: 1.36762 cumulative IPC: 1.43689 (Simulation time: 0 hr 4 min 30 sec) 
Heartbeat CPU 0 instructions: 190000002 cycles: 105186972 heartbeat IPC: 1.39238 cumulative IPC: 1.43181 (Simulation time: 0 hr 4 min 47 sec) 
Heartbeat CPU 0 instructions: 200000000 cycles: 112433667 heartbeat IPC: 1.37994 cumulative IPC: 1.42645 (Simulation time: 0 hr 5 min 4 sec) 
Heartbeat CPU 0 instructions: 210000000 cycles: 119316487 heartbeat IPC: 1.45289 cumulative IPC: 1.42881 (Simulation time: 0 hr 5 min 21 sec) 
Heartbeat CPU 0 instructions: 220000000 cycles: 126097442 heartbeat IPC: 1.47472 cumulative IPC: 1.43253 (Simulation time: 0 hr 5 min 37 sec) 
Heartbeat CPU 0 instructions: 230000003 cycles: 132833628 heartbeat IPC: 1.48452 cumulative IPC: 1.4364 (Simulation time: 0 hr 5 min 54 sec) 
Heartbeat CPU 0 instructions: 240000000 cycles: 139587801 heartbeat IPC: 1.48057 cumulative IPC: 1.43946 (Simulation time: 0 hr 6 min 10 sec) 
Heartbeat CPU 0 instructions: 250000001 cycles: 146326125 heartbeat IPC: 1.48405 cumulative IPC: 1.44235 (Simulation time: 0 hr 6 min 26 sec) 
Heartbeat CPU 0 instructions: 260000000 cycles: 153042264 heartbeat IPC: 1.48895 cumulative IPC: 1.44518 (Simulation time: 0 hr 6 min 43 sec) 
Heartbeat CPU 0 instructions: 270000001 cycles: 160029797 heartbeat IPC: 1.43112 cumulative IPC: 1.44434 (Simulation time: 0 hr 7 min 0 sec) 
Heartbeat CPU 0 instructions: 280000000 cycles: 167573763 heartbeat IPC: 1.32556 cumulative IPC: 1.43719 (Simulation time: 0 hr 7 min 17 sec) 
Heartbeat CPU 0 instructions: 290000000 cycles: 175506161 heartbeat IPC: 1.26065 cumulative IPC: 1.42667 (Simulation time: 0 hr 7 min 34 sec) 
Heartbeat CPU 0 instructions: 300000000 cycles: 183689791 heartbeat IPC: 1.22195 cumulative IPC: 1.41482 (Simulation time: 0 hr 7 min 52 sec) 
Heartbeat CPU 0 instructions: 310000002 cycles: 192009323 heartbeat IPC: 1.20199 cumulative IPC: 1.40299 (Simulation time: 0 hr 8 min 10 sec) 
Heartbeat CPU 0 instructions: 320000000 cycles: 201913094 heartbeat IPC: 1.00972 cumulative IPC: 1.37859 (Simulation time: 0 hr 8 min 30 sec) 
Heartbeat CPU 0 instructions: 330000002 cycles: 206561040 heartbeat IPC: 2.15149 cumulative IPC: 1.40046 (Simulation time: 0 hr 8 min 46 sec) 
Heartbeat CPU 0 instructions: 340000000 cycles: 211783509 heartbeat IPC: 1.9148 cumulative IPC: 1.41631 (Simulation time: 0 hr 9 min 3 sec) 
Heartbeat CPU 0 instructions: 350000000 cycles: 219002429 heartbeat IPC: 1.38525 cumulative IPC: 1.41504 (Simulation time: 0 hr 9 min 21 sec) 
Heartbeat CPU 0 instructions: 360000000 cycles: 226683042 heartbeat IPC: 1.30198 cumulative IPC: 1.41033 (Simulation time: 0 hr 9 min 38 sec) 
Heartbeat CPU 0 instructions: 370000000 cycles: 234100690 heartbeat IPC: 1.34814 cumulative IPC: 1.40793 (Simulation time: 0 hr 9 min 55 sec) 
Heartbeat CPU 0 instructions: 380000000 cycles: 241383912 heartbeat IPC: 1.37302 cumulative IPC: 1.40665 (Simulation time: 0 hr 10 min 12 sec) 
Heartbeat CPU 0 instructions: 390000000 cycles: 249514097 heartbeat IPC: 1.22998 cumulative IPC: 1.39972 (Simulation time: 0 hr 10 min 30 sec) 
Heartbeat CPU 0 instructions: 400000000 cycles: 257730195 heartbeat IPC: 1.21712 cumulative IPC: 1.39275 (Simulation time: 0 hr 10 min 48 sec) 
Heartbeat CPU 0 instructions: 410000001 cycles: 265565987 heartbeat IPC: 1.2762 cumulative IPC: 1.38866 (Simulation time: 0 hr 11 min 6 sec) 
Heartbeat CPU 0 instructions: 420000000 cycles: 273631367 heartbeat IPC: 1.23987 cumulative IPC: 1.38347 (Simulation time: 0 hr 11 min 23 sec) 
Heartbeat CPU 0 instructions: 430000001 cycles: 281892055 heartbeat IPC: 1.21055 cumulative IPC: 1.37751 (Simulation time: 0 hr 11 min 41 sec) 
Heartbeat CPU 0 instructions: 440000000 cycles: 289949471 heartbeat IPC: 1.24109 cumulative IPC: 1.37307 (Simulation time: 0 hr 11 min 59 sec) 
Heartbeat CPU 0 instructions: 450000001 cycles: 297830649 heartbeat IPC: 1.26885 cumulative IPC: 1.36986 (Simulation time: 0 hr 12 min 17 sec) 
Heartbeat CPU 0 instructions: 460000000 cycles: 307699693 heartbeat IPC: 1.01327 cumulative IPC: 1.35659 (Simulation time: 0 hr 12 min 36 sec) 
Heartbeat CPU 0 instructions: 470000002 cycles: 312338296 heartbeat IPC: 2.15582 cumulative IPC: 1.37032 (Simulation time: 0 hr 12 min 53 sec) 
Heartbeat CPU 0 instructions: 480000000 cycles: 317577113 heartbeat IPC: 1.90883 cumulative IPC: 1.38057 (Simulation time: 0 hr 13 min 9 sec) 
Heartbeat CPU 0 instructions: 490000001 cycles: 324890512 heartbeat IPC: 1.36735 cumulative IPC: 1.38023 (Simulation time: 0 hr 13 min 28 sec) 
Heartbeat CPU 0 instructions: 500000000 cycles: 333619537 heartbeat IPC: 1.1456 cumulative IPC: 1.3732 (Simulation time: 0 hr 13 min 48 sec) 
Heartbeat CPU 0 instructions: 510000002 cycles: 342350648 heartbeat IPC: 1.14533 cumulative IPC: 1.36657 (Simulation time: 0 hr 14 min 8 sec) 
Heartbeat CPU 0 instructions: 520000000 cycles: 351078282 heartbeat IPC: 1.14579 cumulative IPC: 1.36033 (Simulation time: 0 hr 14 min 28 sec) 
Heartbeat CPU 0 instructions: 530000000 cycles: 359785645 heartbeat IPC: 1.14845 cumulative IPC: 1.35452 (Simulation time: 0 hr 14 min 47 sec) 
Heartbeat CPU 0 instructions: 540000000 cycles: 368041995 heartbeat IPC: 1.21119 cumulative IPC: 1.35088 (Simulation time: 0 hr 15 min 6 sec) 
Heartbeat CPU 0 instructions: 550000000 cycles: 375082782 heartbeat IPC: 1.4203 cumulative IPC: 1.35235 (Simulation time: 0 hr 15 min 24 sec) 
Heartbeat CPU 0 instructions: 560000000 cycles: 381698084 heartbeat IPC: 1.51165 cumulative IPC: 1.35546 (Simulation time: 0 hr 15 min 41 sec) 
Heartbeat CPU 0 instructions: 570000002 cycles: 388291785 heartbeat IPC: 1.5166 cumulative IPC: 1.35853 (Simulation time: 0 hr 15 min 58 sec) 
Heartbeat CPU 0 instructions: 580000000 cycles: 394940248 heartbeat IPC: 1.50411 cumulative IPC: 1.36127 (Simulation time: 0 hr 16 min 15 sec) 
Heartbeat CPU 0 instructions: 590000002 cycles: 401632317 heartbeat IPC: 1.49431 cumulative IPC: 1.36375 (Simulation time: 0 hr 16 min 32 sec) 
Heartbeat CPU 0 instructions: 600000000 cycles: 408448243 heartbeat IPC: 1.46715 cumulative IPC: 1.36568 (Simulation time: 0 hr 16 min 49 sec) 
Finished CPU 0 instructions: 500000000 cycles: 366118923 cumulative IPC: 1.36568 (Simulation time: 0 hr 16 min 49 sec) 

CPU 0 Branch Prediction Accuracy: 93.4682% MPKI: 2.44079
Number of Branches: 18683822 Number of Mispredictions: 1220394
Number of LOAD Instructions: 142551610
Number of LOAD Instructions (ROI): 142551610
Number of STORE Instructions: 44807454
Number of STORE Instructions (ROI): 44807454
Total Destination Memory Operands: 48357071
Total Destination Memory Operands (ROI): 48357071
Total Source Memory Operands: 142551610
Total Source Memory Operands (ROI): 142551610
Number of DEPENDED LOADS: 7394787
Number of DEPENDED LOADS (ROI): 7394787
Number of SQ_ADDED: 48357051
Number of SQ_ADDED (ROI): 48357051
Number of LQ_ADDED: 157225626
Number of LQ_ADDED (ROI): 157225626
Number of Instructions read from trace: 600000256

ChampSim completed all CPUs

Region of Interest Statistics

CPU 0 cumulative IPC: 1.36568 instructions: 500000000 cycles: 366118923
ITLB TOTAL     ACCESS:   88180148  HIT:   88180079  MISS:         69
ITLB LOAD      ACCESS:   88180148  HIT:   88180079  MISS:         69
ITLB RFO       ACCESS:          0  HIT:          0  MISS:          0
ITLB PREFETCH  ACCESS:          0  HIT:          0  MISS:          0
ITLB WRITEBACK ACCESS:          0  HIT:          0  MISS:          0
ITLB PREFETCH  REQUESTED:          0  ISSUED:          0  USEFUL:          0  USELESS:          0
ITLB TOTAL MSHR MERGED:         85
ITLB LOAD MSHR MERGED:         85
ITLB RFO MSHR MERGED:          0
ITLB PREFETCH MSHR MERGED:          0
ITLB WRITEBACK MSHR MERGED:          0
ITLB TOTAL ACCESSES:   88180233 HITS:   88180079 MISSES:        154
ITLB LOAD ACCESSES:   88180233 HITS:   88180079 MISSES:        154
ITLB RFO ACCESSES:          0 HITS:          0 MISSES:          0
ITLB PREFETCH ACCESSES:          0 HITS:          0 MISSES:          0
ITLB WRITEBACK ACCESSES:          0 HITS:          0 MISSES:          0
ITLB RQ ACCESS:  500000000
ITLB RQ TO_CACHE:   88180233
ITLB RQ MERGED:  411819767
ITLB RQ FORWARD:          0
ITLB WQ ACCESS:          0
ITLB WQ TO_CACHE:          0
ITLB WQ MERGED:          0
ITLB WQ FORWARD:          0
DTLB TOTAL     ACCESS:   88204147  HIT:   88076732  MISS:     127415
DTLB LOAD      ACCESS:   59485795  HIT:   59393344  MISS:      92451
DTLB RFO       ACCESS:   28718352  HIT:   28683388  MISS:      34964
DTLB PREFETCH  ACCESS:          0  HIT:          0  MISS:          0
DTLB WRITEBACK ACCESS:          0  HIT:          0  MISS:          0
DTLB PREFETCH  REQUESTED:          0  ISSUED:          0  USEFUL:          0  USELESS:          0
DTLB TOTAL MSHR MERGED:     141029
DTLB LOAD MSHR MERGED:     107574
DTLB RFO MSHR MERGED:      33455
DTLB PREFETCH MSHR MERGED:          0
DTLB WRITEBACK MSHR MERGED:          0
DTLB TOTAL ACCESSES:   88345176 HITS:   88076732 MISSES:     268444
DTLB LOAD ACCESSES:   59593369 HITS:   59393344 MISSES:     200025
DTLB RFO ACCESSES:   28751807 HITS:   28683388 MISSES:      68419
DTLB PREFETCH ACCESSES:          0 HITS:          0 MISSES:          0
DTLB WRITEBACK ACCESSES:          0 HITS:          0 MISSES:          0
DTLB RQ ACCESS:  154559120
DTLB RQ TO_CACHE:   88345176
DTLB RQ MERGED:   66213944
DTLB RQ FORWARD:          0
DTLB WQ ACCESS:          0
DTLB WQ TO_CACHE:          0
DTLB WQ MERGED:          0
DTLB WQ FORWARD:          0
L1D TOTAL     ACCESS:  128015141  HIT:  124791969  MISS:    3223172
L1D LOAD      ACCESS:   53171427  HIT:   51976007  MISS:    1195420
L1D RFO       ACCESS:   37353993  HIT:   36739821  MISS:     614172
L1D PREFETCH  ACCESS:   37489721  HIT:   36076141  MISS:    1413580
L1D WRITEBACK ACCESS:          0  HIT:          0  MISS:          0
L1D PREFETCH  REQUESTED:   53656783  ISSUED:   52451074  USEFUL:     352017  USELESS:    1061528
L1D TOTAL MSHR MERGED:    2856887
L1D LOAD MSHR MERGED:     524193
L1D RFO MSHR MERGED:    1599892
L1D PREFETCH MSHR MERGED:     732802
L1D WRITEBACK MSHR MERGED:          0
L1D TOTAL ACCESSES:  130907024 HITS:  124826965 MISSES:    6080059
L1D LOAD ACCESSES:   53659794 HITS:   51979018 MISSES:    1680776
L1D RFO ACCESSES:   38952791 HITS:   36739821 MISSES:    2212970
L1D PREFETCH ACCESSES:   38294439 HITS:   36108126 MISSES:    2186313
L1D WRITEBACK ACCESSES:          0 HITS:          0 MISSES:          0
L1D RQ ACCESS:  113714228
L1D RQ TO_CACHE:   53656783
L1D RQ MERGED:   60054434
L1D RQ FORWARD:          0
L1D WQ ACCESS:   40844891
L1D WQ TO_CACHE:   38952791
L1D WQ MERGED:    1892100
L1D WQ FORWARD:      34996
L1I TOTAL     ACCESS:  108370541  HIT:  107811411  MISS:     559130
L1I LOAD      ACCESS:  108370541  HIT:  107811411  MISS:     559130
L1I RFO       ACCESS:          0  HIT:          0  MISS:          0
L1I PREFETCH  ACCESS:          0  HIT:          0  MISS:          0
L1I WRITEBACK ACCESS:          0  HIT:          0  MISS:          0
L1I PREFETCH  REQUESTED:          0  ISSUED:          0  USEFUL:          0  USELESS:          0
L1I TOTAL MSHR MERGED:     526029
L1I LOAD MSHR MERGED:     526029
L1I RFO MSHR MERGED:          0
L1I PREFETCH MSHR MERGED:          0
L1I WRITEBACK MSHR MERGED:          0
L1I TOTAL ACCESSES:  108896570 HITS:  107811411 MISSES:    1085159
L1I LOAD ACCESSES:  108896570 HITS:  107811411 MISSES:    1085159
L1I RFO ACCESSES:          0 HITS:          0 MISSES:          0
L1I PREFETCH ACCESSES:          0 HITS:          0 MISSES:          0
L1I WRITEBACK ACCESSES:          0 HITS:          0 MISSES:          0
L1I RQ ACCESS:  500000002
L1I RQ TO_CACHE:  108896570
L1I RQ MERGED:  391103432
L1I RQ FORWARD:          0
L1I WQ ACCESS:          0
L1I WQ TO_CACHE:          0
L1I WQ MERGED:          0
L1I WQ FORWARD:          0
L2C TOTAL     ACCESS:    4690376  HIT:    3867076  MISS:     823300
L2C LOAD      ACCESS:    1715603  HIT:    1563192  MISS:     152411
L2C RFO       ACCESS:     611654  HIT:     421189  MISS:     190465
L2C PREFETCH  ACCESS:    1660226  HIT:    1181990  MISS:     478236
L2C WRITEBACK ACCESS:     702893  HIT:     700705  MISS:       2188
L2C PREFETCH  REQUESTED:     256328  ISSUED:     256328  USEFUL:     173550  USELESS:     305352
L2C TOTAL MSHR MERGED:      13023
L2C LOAD MSHR MERGED:       3841
L2C RFO MSHR MERGED:          0
L2C PREFETCH MSHR MERGED:       9182
L2C WRITEBACK MSHR MERGED:          0
L2C TOTAL ACCESSES:    4709424 HITS:    3868681 MISSES:     840743
L2C LOAD ACCESSES:    1715713 HITS:    1563302 MISSES:     152411
L2C RFO ACCESSES:     613078 HITS:     422613 MISSES:     190465
L2C PREFETCH ACCESSES:    1677740 HITS:    1182061 MISSES:     495679
L2C WRITEBACK ACCESSES:     702893 HITS:     700705 MISSES:       2188
L2C RQ ACCESS:    2328791
L2C RQ TO_CACHE:    2327257
L2C RQ MERGED:          0
L2C RQ FORWARD:          0
L2C WQ ACCESS:     702893
L2C WQ TO_CACHE:     702893
L2C WQ MERGED:          0
L2C WQ FORWARD:       1605
LLC TOTAL     ACCESS:    1044866  HIT:     277474  MISS:     767392
LLC LOAD      ACCESS:     148566  HIT:      87348  MISS:      61218
LLC RFO       ACCESS:     190457  HIT:       6616  MISS:     183841
LLC PREFETCH  ACCESS:     484971  HIT:     146205  MISS:     338766
LLC WRITEBACK ACCESS:     220872  HIT:      37305  MISS:     183567
LLC PREFETCH  REQUESTED:          0  ISSUED:          0  USEFUL:       2268  USELESS:     336837
LLC TOTAL MSHR MERGED:        943
LLC LOAD MSHR MERGED:        248
LLC RFO MSHR MERGED:          0
LLC PREFETCH MSHR MERGED:        695
LLC WRITEBACK MSHR MERGED:          0
LLC TOTAL ACCESSES:    1045821 HITS:     277486 MISSES:     768335
LLC LOAD ACCESSES:     148570 HITS:      87352 MISSES:      61218
LLC RFO ACCESSES:     190465 HITS:       6624 MISSES:     183841
LLC PREFETCH ACCESSES:     485914 HITS:     146205 MISSES:     339709
LLC WRITEBACK ACCESSES:     220872 HITS:      37305 MISSES:     183567
LLC 0 RQ ACCESS:     339035
LLC 0 RQ TO_CACHE:     339023
LLC 0 RQ MERGED:          0
LLC 0 RQ FORWARD:          0
LLC WQ ACCESS:     220872
LLC WQ TO_CACHE:     220872
LLC WQ MERGED:          0
LLC WQ FORWARD:         12
Major fault: 0 Minor fault: 6811
CPU 0 L1D next line prefetcher final stats
CPU 0 L2C PC-based stride prefetcher final stats
All Misses: 910999
All Hits: 340850
SD Algo Stats - Switches: 0 SRR-Repls: 71876 BRR-Repls: 0

DRAM Statistics
 CHANNEL 0
 RQ ROW_BUFFER_HIT:     292746  ROW_BUFFER_MISS:     291005
 DBUS_CONGESTED:     410845
 WQ ROW_BUFFER_HIT:      22001  ROW_BUFFER_MISS:     195572  FULL:          0

 AVG_CONGESTED_CYCLE: 13
LOADS RETIRED: 119922929
INSTR RETIRED: 500000000
