
*** ChampSim Multicore Out-of-Order Simulator ***

Warmup Instructions: 100000000
Simulation Instructions: 500000000
Number of CPUs: 1
LLC sets: 2048
LLC ways: 16
Clean RRIP Policies: 1213130112131301 Dirty RRIP Policies: 2213130122131301 PSEL Width: 10 Track Set: 4294967295 PSEL Mask: 1 Demote Mask: 3340101033401010DS Algo: 0Window size: 0
Off-chip DRAM Size: 4096 MB Channels: 1 Width: 64-bit Data Rate: 1600 MT/s

CPU 0 runs /mnt/beegfs/iconst01/spec2017/Mcf.trace.gz
NOT SORTED
TRACE STRING: /mnt/beegfs/iconst01/spec2017/Mcf.trace.gz
SORTED
TRACE STRING: /mnt/beegfs/iconst01/spec2017/Mcf.trace.gz
INITIAL
TRACE STRING: /mnt/beegfs/iconst01/spec2017/Mcf.trace.gz

champsim_seed used: 278

CPU 0 L1D next line prefetcher
CPU 0 L2C IP-based stride prefetcher
Initialize DRRIP state
Assign rand_sets[0]: 454  LLC: 2048
rand_sets[0]: 454
Assign rand_sets[1]: 1662  LLC: 2048
rand_sets[1]: 1662
Assign rand_sets[2]: 1921  LLC: 2048
rand_sets[2]: 1921
Assign rand_sets[3]: 1131  LLC: 2048
rand_sets[3]: 1131
Assign rand_sets[4]: 331  LLC: 2048
rand_sets[4]: 331
Assign rand_sets[5]: 1531  LLC: 2048
rand_sets[5]: 1531
Assign rand_sets[6]: 482  LLC: 2048
rand_sets[6]: 482
Assign rand_sets[7]: 1275  LLC: 2048
rand_sets[7]: 1275
Assign rand_sets[8]: 1876  LLC: 2048
rand_sets[8]: 1876
Assign rand_sets[9]: 2038  LLC: 2048
rand_sets[9]: 2038
Assign rand_sets[10]: 701  LLC: 2048
rand_sets[10]: 701
Assign rand_sets[11]: 479  LLC: 2048
rand_sets[11]: 479
Assign rand_sets[12]: 892  LLC: 2048
rand_sets[12]: 892
Assign rand_sets[13]: 1820  LLC: 2048
rand_sets[13]: 1820
Assign rand_sets[14]: 1505  LLC: 2048
rand_sets[14]: 1505
Assign rand_sets[15]: 1159  LLC: 2048
rand_sets[15]: 1159
Assign rand_sets[16]: 513  LLC: 2048
rand_sets[16]: 513
Assign rand_sets[17]: 703  LLC: 2048
rand_sets[17]: 703
Assign rand_sets[18]: 561  LLC: 2048
rand_sets[18]: 561
Assign rand_sets[19]: 990  LLC: 2048
rand_sets[19]: 990
Assign rand_sets[20]: 342  LLC: 2048
rand_sets[20]: 342
Assign rand_sets[21]: 882  LLC: 2048
rand_sets[21]: 882
Assign rand_sets[22]: 15  LLC: 2048
rand_sets[22]: 15
Assign rand_sets[23]: 71  LLC: 2048
rand_sets[23]: 71
Assign rand_sets[24]: 1127  LLC: 2048
rand_sets[24]: 1127
Assign rand_sets[25]: 1382  LLC: 2048
rand_sets[25]: 1382
Assign rand_sets[26]: 647  LLC: 2048
rand_sets[26]: 647
Assign rand_sets[27]: 857  LLC: 2048
rand_sets[27]: 857
Assign rand_sets[28]: 1450  LLC: 2048
rand_sets[28]: 1450
Assign rand_sets[29]: 1160  LLC: 2048
rand_sets[29]: 1160
Assign rand_sets[30]: 1852  LLC: 2048
rand_sets[30]: 1852
Assign rand_sets[31]: 1881  LLC: 2048
rand_sets[31]: 1881
Assign rand_sets[32]: 1770  LLC: 2048
rand_sets[32]: 1770
Assign rand_sets[33]: 1622  LLC: 2048
rand_sets[33]: 1622
Assign rand_sets[34]: 275  LLC: 2048
rand_sets[34]: 275
Assign rand_sets[35]: 635  LLC: 2048
rand_sets[35]: 635
Assign rand_sets[36]: 466  LLC: 2048
rand_sets[36]: 466
Assign rand_sets[37]: 1413  LLC: 2048
rand_sets[37]: 1413
Assign rand_sets[38]: 417  LLC: 2048
rand_sets[38]: 417
Assign rand_sets[39]: 472  LLC: 2048
rand_sets[39]: 472
Assign rand_sets[40]: 1340  LLC: 2048
rand_sets[40]: 1340
Assign rand_sets[41]: 852  LLC: 2048
rand_sets[41]: 852
Assign rand_sets[42]: 1365  LLC: 2048
rand_sets[42]: 1365
Assign rand_sets[43]: 47  LLC: 2048
rand_sets[43]: 47
Assign rand_sets[44]: 823  LLC: 2048
rand_sets[44]: 823
Assign rand_sets[45]: 686  LLC: 2048
rand_sets[45]: 686
Assign rand_sets[46]: 1637  LLC: 2048
rand_sets[46]: 1637
Assign rand_sets[47]: 1115  LLC: 2048
rand_sets[47]: 1115
Assign rand_sets[48]: 986  LLC: 2048
rand_sets[48]: 986
Assign rand_sets[49]: 258  LLC: 2048
rand_sets[49]: 258
Assign rand_sets[50]: 633  LLC: 2048
rand_sets[50]: 633
Assign rand_sets[51]: 920  LLC: 2048
rand_sets[51]: 920
Assign rand_sets[52]: 204  LLC: 2048
rand_sets[52]: 204
Assign rand_sets[53]: 227  LLC: 2048
rand_sets[53]: 227
Assign rand_sets[54]: 1818  LLC: 2048
rand_sets[54]: 1818
Assign rand_sets[55]: 886  LLC: 2048
rand_sets[55]: 886
Assign rand_sets[56]: 1422  LLC: 2048
rand_sets[56]: 1422
Assign rand_sets[57]: 607  LLC: 2048
rand_sets[57]: 607
Assign rand_sets[58]: 217  LLC: 2048
rand_sets[58]: 217
Assign rand_sets[59]: 1945  LLC: 2048
rand_sets[59]: 1945
Assign rand_sets[60]: 143  LLC: 2048
rand_sets[60]: 143
Assign rand_sets[61]: 1311  LLC: 2048
rand_sets[61]: 1311
Assign rand_sets[62]: 319  LLC: 2048
rand_sets[62]: 319
Assign rand_sets[63]: 1846  LLC: 2048
rand_sets[63]: 1846
 CLEAN-RRIP-POLICY-1: 1-2-1-3-1-3-0-1- CLEAN-RRIP-POLICY-2: 1-2-1-3-1-3-0-1-
 DIRTY-RRIP-POLICY-1: 2-2-1-3-1-3-0-1- DIRTY-RRIP-POLICY-2: 2-2-1-3-1-3-0-1-
 PSEL width: 10
Heartbeat CPU 0 instructions: 10000002 cycles: 6248381 heartbeat IPC: 1.60041 cumulative IPC: 1.60041 (Simulation time: 0 hr 0 min 13 sec) 
Heartbeat CPU 0 instructions: 20000000 cycles: 12468921 heartbeat IPC: 1.60758 cumulative IPC: 1.60399 (Simulation time: 0 hr 0 min 26 sec) 
Heartbeat CPU 0 instructions: 30000000 cycles: 18678966 heartbeat IPC: 1.61029 cumulative IPC: 1.60608 (Simulation time: 0 hr 0 min 39 sec) 
Heartbeat CPU 0 instructions: 40000000 cycles: 24889307 heartbeat IPC: 1.61022 cumulative IPC: 1.60712 (Simulation time: 0 hr 0 min 52 sec) 
Heartbeat CPU 0 instructions: 50000003 cycles: 31101563 heartbeat IPC: 1.60972 cumulative IPC: 1.60764 (Simulation time: 0 hr 1 min 5 sec) 
Heartbeat CPU 0 instructions: 60000000 cycles: 37297523 heartbeat IPC: 1.61395 cumulative IPC: 1.60869 (Simulation time: 0 hr 1 min 18 sec) 
Heartbeat CPU 0 instructions: 70000003 cycles: 43515755 heartbeat IPC: 1.60817 cumulative IPC: 1.60861 (Simulation time: 0 hr 1 min 31 sec) 
Heartbeat CPU 0 instructions: 80000000 cycles: 49746015 heartbeat IPC: 1.60507 cumulative IPC: 1.60817 (Simulation time: 0 hr 1 min 44 sec) 
Heartbeat CPU 0 instructions: 90000000 cycles: 55974786 heartbeat IPC: 1.60545 cumulative IPC: 1.60787 (Simulation time: 0 hr 1 min 57 sec) 
Heartbeat CPU 0 instructions: 100000000 cycles: 62193507 heartbeat IPC: 1.60805 cumulative IPC: 1.60788 (Simulation time: 0 hr 2 min 10 sec) 

Warmup complete CPU 0 instructions: 100000001 cycles: 62193508 (Simulation time: 0 hr 2 min 10 sec) 

Heartbeat CPU 0 instructions: 110000000 cycles: 86755959 heartbeat IPC: 0.407125 cumulative IPC: 0.407125 (Simulation time: 0 hr 2 min 35 sec) 
Heartbeat CPU 0 instructions: 120000000 cycles: 111420969 heartbeat IPC: 0.405433 cumulative IPC: 0.406277 (Simulation time: 0 hr 3 min 0 sec) 
Heartbeat CPU 0 instructions: 130000000 cycles: 136163511 heartbeat IPC: 0.404162 cumulative IPC: 0.40557 (Simulation time: 0 hr 3 min 26 sec) 
Heartbeat CPU 0 instructions: 140000000 cycles: 160858231 heartbeat IPC: 0.404945 cumulative IPC: 0.405413 (Simulation time: 0 hr 3 min 51 sec) 
Heartbeat CPU 0 instructions: 150000003 cycles: 185440038 heartbeat IPC: 0.406805 cumulative IPC: 0.405691 (Simulation time: 0 hr 4 min 16 sec) 
Heartbeat CPU 0 instructions: 160000000 cycles: 210294352 heartbeat IPC: 0.402345 cumulative IPC: 0.405129 (Simulation time: 0 hr 4 min 41 sec) 
Heartbeat CPU 0 instructions: 170000001 cycles: 235014574 heartbeat IPC: 0.404527 cumulative IPC: 0.405043 (Simulation time: 0 hr 5 min 6 sec) 
Heartbeat CPU 0 instructions: 180000000 cycles: 259731940 heartbeat IPC: 0.404574 cumulative IPC: 0.404984 (Simulation time: 0 hr 5 min 32 sec) 
Heartbeat CPU 0 instructions: 190000003 cycles: 284404070 heartbeat IPC: 0.405316 cumulative IPC: 0.405021 (Simulation time: 0 hr 5 min 57 sec) 
Heartbeat CPU 0 instructions: 200000000 cycles: 309123708 heartbeat IPC: 0.404537 cumulative IPC: 0.404973 (Simulation time: 0 hr 6 min 22 sec) 
Heartbeat CPU 0 instructions: 210000003 cycles: 333902456 heartbeat IPC: 0.403572 cumulative IPC: 0.404845 (Simulation time: 0 hr 6 min 47 sec) 
Heartbeat CPU 0 instructions: 220000000 cycles: 358869778 heartbeat IPC: 0.400523 cumulative IPC: 0.404481 (Simulation time: 0 hr 7 min 13 sec) 
Heartbeat CPU 0 instructions: 230000002 cycles: 383496984 heartbeat IPC: 0.406055 cumulative IPC: 0.404602 (Simulation time: 0 hr 7 min 38 sec) 
Heartbeat CPU 0 instructions: 240000000 cycles: 408418525 heartbeat IPC: 0.401259 cumulative IPC: 0.404361 (Simulation time: 0 hr 8 min 4 sec) 
Heartbeat CPU 0 instructions: 250000000 cycles: 433164811 heartbeat IPC: 0.404101 cumulative IPC: 0.404344 (Simulation time: 0 hr 8 min 29 sec) 
Heartbeat CPU 0 instructions: 260000000 cycles: 457871155 heartbeat IPC: 0.404754 cumulative IPC: 0.40437 (Simulation time: 0 hr 8 min 54 sec) 
Heartbeat CPU 0 instructions: 270000001 cycles: 482666155 heartbeat IPC: 0.403307 cumulative IPC: 0.404307 (Simulation time: 0 hr 9 min 20 sec) 
Heartbeat CPU 0 instructions: 280000000 cycles: 507402755 heartbeat IPC: 0.404259 cumulative IPC: 0.404304 (Simulation time: 0 hr 9 min 45 sec) 
Heartbeat CPU 0 instructions: 290000001 cycles: 532222310 heartbeat IPC: 0.402908 cumulative IPC: 0.404231 (Simulation time: 0 hr 10 min 11 sec) 
Heartbeat CPU 0 instructions: 300000000 cycles: 557192756 heartbeat IPC: 0.400473 cumulative IPC: 0.404041 (Simulation time: 0 hr 10 min 36 sec) 
Heartbeat CPU 0 instructions: 310000003 cycles: 581814596 heartbeat IPC: 0.406144 cumulative IPC: 0.404141 (Simulation time: 0 hr 11 min 2 sec) 
Heartbeat CPU 0 instructions: 320000000 cycles: 606801822 heartbeat IPC: 0.400204 cumulative IPC: 0.40396 (Simulation time: 0 hr 11 min 27 sec) 
Heartbeat CPU 0 instructions: 330000003 cycles: 631533578 heartbeat IPC: 0.404339 cumulative IPC: 0.403977 (Simulation time: 0 hr 11 min 53 sec) 
Heartbeat CPU 0 instructions: 340000000 cycles: 656553123 heartbeat IPC: 0.399687 cumulative IPC: 0.403796 (Simulation time: 0 hr 12 min 18 sec) 
Heartbeat CPU 0 instructions: 350000002 cycles: 681541133 heartbeat IPC: 0.400192 cumulative IPC: 0.403651 (Simulation time: 0 hr 12 min 44 sec) 
Heartbeat CPU 0 instructions: 360000000 cycles: 706666487 heartbeat IPC: 0.398004 cumulative IPC: 0.40343 (Simulation time: 0 hr 13 min 9 sec) 
Heartbeat CPU 0 instructions: 370000000 cycles: 731577097 heartbeat IPC: 0.401435 cumulative IPC: 0.403356 (Simulation time: 0 hr 13 min 34 sec) 
Heartbeat CPU 0 instructions: 380000000 cycles: 756305762 heartbeat IPC: 0.404389 cumulative IPC: 0.403393 (Simulation time: 0 hr 13 min 58 sec) 
Heartbeat CPU 0 instructions: 390000002 cycles: 781053225 heartbeat IPC: 0.404082 cumulative IPC: 0.403417 (Simulation time: 0 hr 14 min 23 sec) 
Heartbeat CPU 0 instructions: 400000000 cycles: 805979496 heartbeat IPC: 0.401183 cumulative IPC: 0.403342 (Simulation time: 0 hr 14 min 48 sec) 
Heartbeat CPU 0 instructions: 410000002 cycles: 830802839 heartbeat IPC: 0.402847 cumulative IPC: 0.403326 (Simulation time: 0 hr 15 min 13 sec) 
Heartbeat CPU 0 instructions: 420000000 cycles: 855416960 heartbeat IPC: 0.406271 cumulative IPC: 0.403417 (Simulation time: 0 hr 15 min 38 sec) 
Heartbeat CPU 0 instructions: 430000000 cycles: 880264740 heartbeat IPC: 0.40245 cumulative IPC: 0.403388 (Simulation time: 0 hr 16 min 4 sec) 
Heartbeat CPU 0 instructions: 440000000 cycles: 904823605 heartbeat IPC: 0.407185 cumulative IPC: 0.403499 (Simulation time: 0 hr 16 min 28 sec) 
Heartbeat CPU 0 instructions: 450000000 cycles: 929810288 heartbeat IPC: 0.400213 cumulative IPC: 0.403404 (Simulation time: 0 hr 16 min 54 sec) 
Heartbeat CPU 0 instructions: 460000000 cycles: 954715076 heartbeat IPC: 0.401529 cumulative IPC: 0.403352 (Simulation time: 0 hr 17 min 19 sec) 
Heartbeat CPU 0 instructions: 470000001 cycles: 979411340 heartbeat IPC: 0.40492 cumulative IPC: 0.403394 (Simulation time: 0 hr 17 min 45 sec) 
Heartbeat CPU 0 instructions: 480000000 cycles: 1004272783 heartbeat IPC: 0.402229 cumulative IPC: 0.403363 (Simulation time: 0 hr 18 min 10 sec) 
Heartbeat CPU 0 instructions: 490000000 cycles: 1029243819 heartbeat IPC: 0.400464 cumulative IPC: 0.403288 (Simulation time: 0 hr 18 min 36 sec) 
Heartbeat CPU 0 instructions: 500000000 cycles: 1054535877 heartbeat IPC: 0.395381 cumulative IPC: 0.403087 (Simulation time: 0 hr 19 min 1 sec) 
Heartbeat CPU 0 instructions: 510000003 cycles: 1079703870 heartbeat IPC: 0.39733 cumulative IPC: 0.402944 (Simulation time: 0 hr 19 min 26 sec) 
Heartbeat CPU 0 instructions: 520000000 cycles: 1105021131 heartbeat IPC: 0.394987 cumulative IPC: 0.402751 (Simulation time: 0 hr 19 min 52 sec) 
Heartbeat CPU 0 instructions: 530000003 cycles: 1130375249 heartbeat IPC: 0.394413 cumulative IPC: 0.402553 (Simulation time: 0 hr 20 min 17 sec) 
Heartbeat CPU 0 instructions: 540000000 cycles: 1155630544 heartbeat IPC: 0.395956 cumulative IPC: 0.402401 (Simulation time: 0 hr 20 min 42 sec) 
Heartbeat CPU 0 instructions: 550000000 cycles: 1180904703 heartbeat IPC: 0.395661 cumulative IPC: 0.402249 (Simulation time: 0 hr 21 min 8 sec) 
Heartbeat CPU 0 instructions: 560000000 cycles: 1206486350 heartbeat IPC: 0.390905 cumulative IPC: 0.401995 (Simulation time: 0 hr 21 min 33 sec) 
Heartbeat CPU 0 instructions: 570000001 cycles: 1232005817 heartbeat IPC: 0.391858 cumulative IPC: 0.401774 (Simulation time: 0 hr 21 min 59 sec) 
Heartbeat CPU 0 instructions: 580000000 cycles: 1257534109 heartbeat IPC: 0.391722 cumulative IPC: 0.401559 (Simulation time: 0 hr 22 min 24 sec) 
Heartbeat CPU 0 instructions: 590000000 cycles: 1283210007 heartbeat IPC: 0.38947 cumulative IPC: 0.401305 (Simulation time: 0 hr 22 min 50 sec) 
Heartbeat CPU 0 instructions: 600000000 cycles: 1308971810 heartbeat IPC: 0.388172 cumulative IPC: 0.401034 (Simulation time: 0 hr 23 min 16 sec) 
Finished CPU 0 instructions: 500000003 cycles: 1246778315 cumulative IPC: 0.401034 (Simulation time: 0 hr 23 min 16 sec) 

CPU 0 Branch Prediction Accuracy: 91.1342% MPKI: 18.7968
Number of Branches: 106006945 Number of Mispredictions: 9398408
Number of LOAD Instructions: 207894007
Number of LOAD Instructions (ROI): 207894007
Number of STORE Instructions: 54285997
Number of STORE Instructions (ROI): 54285997
Total Destination Memory Operands: 57463404
Total Destination Memory Operands (ROI): 57463404
Total Source Memory Operands: 207894007
Total Source Memory Operands (ROI): 207894007
Number of DEPENDED LOADS: 18105990
Number of DEPENDED LOADS (ROI): 18105990
Number of SQ_ADDED: 57463404
Number of SQ_ADDED (ROI): 57463404
Number of LQ_ADDED: 209239042
Number of LQ_ADDED (ROI): 209239042
Number of Instructions read from trace: 600000039

ChampSim completed all CPUs

Region of Interest Statistics

CPU 0 cumulative IPC: 0.401034 instructions: 500000003 cycles: 1246778315
ITLB TOTAL     ACCESS:   96421101  HIT:   96421101  MISS:          0
ITLB LOAD      ACCESS:   96421101  HIT:   96421101  MISS:          0
ITLB RFO       ACCESS:          0  HIT:          0  MISS:          0
ITLB PREFETCH  ACCESS:          0  HIT:          0  MISS:          0
ITLB WRITEBACK ACCESS:          0  HIT:          0  MISS:          0
ITLB PREFETCH  REQUESTED:          0  ISSUED:          0  USEFUL:          0  USELESS:          0
ITLB TOTAL MSHR MERGED:          0
ITLB LOAD MSHR MERGED:          0
ITLB RFO MSHR MERGED:          0
ITLB PREFETCH MSHR MERGED:          0
ITLB WRITEBACK MSHR MERGED:          0
ITLB TOTAL ACCESSES:   96421101 HITS:   96421101 MISSES:          0
ITLB LOAD ACCESSES:   96421101 HITS:   96421101 MISSES:          0
ITLB RFO ACCESSES:          0 HITS:          0 MISSES:          0
ITLB PREFETCH ACCESSES:          0 HITS:          0 MISSES:          0
ITLB WRITEBACK ACCESSES:          0 HITS:          0 MISSES:          0
ITLB RQ ACCESS:  499999980
ITLB RQ TO_CACHE:   96421101
ITLB RQ MERGED:  403578879
ITLB RQ FORWARD:          0
ITLB WQ ACCESS:          0
ITLB WQ TO_CACHE:          0
ITLB WQ MERGED:          0
ITLB WQ FORWARD:          0
DTLB TOTAL     ACCESS:  155173217  HIT:  150261128  MISS:    4912089
DTLB LOAD      ACCESS:  117722648  HIT:  113332245  MISS:    4390403
DTLB RFO       ACCESS:   37450569  HIT:   36928883  MISS:     521686
DTLB PREFETCH  ACCESS:          0  HIT:          0  MISS:          0
DTLB WRITEBACK ACCESS:          0  HIT:          0  MISS:          0
DTLB PREFETCH  REQUESTED:          0  ISSUED:          0  USEFUL:          0  USELESS:          0
DTLB TOTAL MSHR MERGED:     453095
DTLB LOAD MSHR MERGED:     161609
DTLB RFO MSHR MERGED:     291486
DTLB PREFETCH MSHR MERGED:          0
DTLB WRITEBACK MSHR MERGED:          0
DTLB TOTAL ACCESSES:  155626312 HITS:  150261128 MISSES:    5365184
DTLB LOAD ACCESSES:  117884257 HITS:  113332245 MISSES:    4552012
DTLB RFO ACCESSES:   37742055 HITS:   36928883 MISSES:     813172
DTLB PREFETCH ACCESSES:          0 HITS:          0 MISSES:          0
DTLB WRITEBACK ACCESSES:          0 HITS:          0 MISSES:          0
DTLB RQ ACCESS:  205976934
DTLB RQ TO_CACHE:  155626312
DTLB RQ MERGED:   50350622
DTLB RQ FORWARD:          0
DTLB WQ ACCESS:          0
DTLB WQ TO_CACHE:          0
DTLB WQ MERGED:          0
DTLB WQ FORWARD:          0
L1D TOTAL     ACCESS:  277178052  HIT:  242355641  MISS:   34822411
L1D LOAD      ACCESS:  125414838  HIT:  107774945  MISS:   17639893
L1D RFO       ACCESS:   41135796  HIT:   38823961  MISS:    2311835
L1D PREFETCH  ACCESS:  110627418  HIT:   95756735  MISS:   14870683
L1D WRITEBACK ACCESS:          0  HIT:          0  MISS:          0
L1D PREFETCH  REQUESTED:  126271185  ISSUED:  124751973  USEFUL:    2704731  USELESS:   12165978
L1D TOTAL MSHR MERGED:    8489769
L1D LOAD MSHR MERGED:    1548213
L1D RFO MSHR MERGED:    3768828
L1D PREFETCH MSHR MERGED:    3172728
L1D WRITEBACK MSHR MERGED:          0
L1D TOTAL ACCESSES:  285755147 HITS:  242442965 MISSES:   43312182
L1D LOAD ACCESSES:  126271217 HITS:  107774977 MISSES:   18496240
L1D RFO ACCESSES:   44904130 HITS:   38823961 MISSES:    6080169
L1D PREFETCH ACCESSES:  114579800 HITS:   95844027 MISSES:   18735773
L1D WRITEBACK ACCESSES:          0 HITS:          0 MISSES:          0
L1D RQ ACCESS:  158430053
L1D RQ TO_CACHE:  126271185
L1D RQ MERGED:   32158836
L1D RQ FORWARD:          0
L1D WQ ACCESS:   47546882
L1D WQ TO_CACHE:   44904130
L1D WQ MERGED:    2642752
L1D WQ FORWARD:      87324
L1I TOTAL     ACCESS:  132830695  HIT:  132830695  MISS:          0
L1I LOAD      ACCESS:  132830695  HIT:  132830695  MISS:          0
L1I RFO       ACCESS:          0  HIT:          0  MISS:          0
L1I PREFETCH  ACCESS:          0  HIT:          0  MISS:          0
L1I WRITEBACK ACCESS:          0  HIT:          0  MISS:          0
L1I PREFETCH  REQUESTED:          0  ISSUED:          0  USEFUL:          0  USELESS:          0
L1I TOTAL MSHR MERGED:          0
L1I LOAD MSHR MERGED:          0
L1I RFO MSHR MERGED:          0
L1I PREFETCH MSHR MERGED:          0
L1I WRITEBACK MSHR MERGED:          0
L1I TOTAL ACCESSES:  132830695 HITS:  132830695 MISSES:          0
L1I LOAD ACCESSES:  132830695 HITS:  132830695 MISSES:          0
L1I RFO ACCESSES:          0 HITS:          0 MISSES:          0
L1I PREFETCH ACCESSES:          0 HITS:          0 MISSES:          0
L1I WRITEBACK ACCESSES:          0 HITS:          0 MISSES:          0
L1I RQ ACCESS:  499999980
L1I RQ TO_CACHE:  132830695
L1I RQ MERGED:  367169285
L1I RQ FORWARD:          0
L1I WQ ACCESS:          0
L1I WQ TO_CACHE:          0
L1I WQ MERGED:          0
L1I WQ FORWARD:          0
L2C TOTAL     ACCESS:   39597341  HIT:   20628040  MISS:   18969301
L2C LOAD      ACCESS:   16947966  HIT:    8567797  MISS:    8380169
L2C RFO       ACCESS:    2311289  HIT:     630845  MISS:    1680444
L2C PREFETCH  ACCESS:   17115648  HIT:    8210713  MISS:    8904935
L2C WRITEBACK ACCESS:    3222438  HIT:    3218685  MISS:       3753
L2C PREFETCH  REQUESTED:    2881956  ISSUED:    2881956  USEFUL:    1307089  USELESS:    7597589
L2C TOTAL MSHR MERGED:     533064
L2C LOAD MSHR MERGED:      89879
L2C RFO MSHR MERGED:          0
L2C PREFETCH MSHR MERGED:     443185
L2C WRITEBACK MSHR MERGED:          0
L2C TOTAL ACCESSES:   40246907 HITS:   20628205 MISSES:   19618702
L2C LOAD ACCESSES:   16948027 HITS:    8567858 MISSES:    8380169
L2C RFO ACCESSES:    2311341 HITS:     630897 MISSES:    1680444
L2C PREFETCH ACCESSES:   17765101 HITS:    8210765 MISSES:    9554336
L2C WRITEBACK ACCESSES:    3222438 HITS:    3218685 MISSES:       3753
L2C RQ ACCESS:   19259368
L2C RQ TO_CACHE:   19259255
L2C RQ MERGED:          0
L2C RQ FORWARD:          0
L2C WQ ACCESS:    3222438
L2C WQ TO_CACHE:    3222438
L2C WQ MERGED:          0
L2C WQ FORWARD:        165
LLC TOTAL     ACCESS:   21198863  HIT:   14061998  MISS:    7136865
LLC LOAD      ACCESS:    8290265  HIT:    5782619  MISS:    2507646
LLC RFO       ACCESS:    1680359  HIT:    1670535  MISS:       9824
LLC PREFETCH  ACCESS:    9052581  HIT:    4440606  MISS:    4611975
LLC WRITEBACK ACCESS:    2175658  HIT:    2168238  MISS:       7420
LLC PREFETCH  REQUESTED:          0  ISSUED:          0  USEFUL:     201897  USELESS:    4412456
LLC TOTAL MSHR MERGED:      49376
LLC LOAD MSHR MERGED:      15547
LLC RFO MSHR MERGED:          0
LLC PREFETCH MSHR MERGED:      33829
LLC WRITEBACK MSHR MERGED:          0
LLC TOTAL ACCESSES:   21248380 HITS:   14062137 MISSES:    7186243
LLC LOAD ACCESSES:    8290290 HITS:    5782644 MISSES:    2507646
LLC RFO ACCESSES:    1680444 HITS:    1670620 MISSES:       9824
LLC PREFETCH ACCESSES:    9101988 HITS:    4440635 MISSES:    4661353
LLC WRITEBACK ACCESSES:    2175658 HITS:    2168238 MISSES:       7420
LLC 0 RQ ACCESS:    9970734
LLC 0 RQ TO_CACHE:    9970624
LLC 0 RQ MERGED:          0
LLC 0 RQ FORWARD:          0
LLC WQ ACCESS:    2175659
LLC WQ TO_CACHE:    2175659
LLC WQ MERGED:          0
LLC WQ FORWARD:        139
Major fault: 0 Minor fault: 56391
CPU 0 L1D next line prefetcher final stats
CPU 0 L2C PC-based stride prefetcher final stats
All Misses: 8381672
All Hits: 16194036
SD Algo Stats - Switches: 0 SRR-Repls: 2630291 BRR-Repls: 0

DRAM Statistics
 CHANNEL 0
 RQ ROW_BUFFER_HIT:    4572255  ROW_BUFFER_MISS:    2542974
 DBUS_CONGESTED:    3313798
 WQ ROW_BUFFER_HIT:        825  ROW_BUFFER_MISS:      24968  FULL:          0

 AVG_CONGESTED_CYCLE: 12
LOADS RETIRED: 173631671
INSTR RETIRED: 500000000
