
*** ChampSim Multicore Out-of-Order Simulator ***

Warmup Instructions: 100000000
Simulation Instructions: 500000000
Number of CPUs: 1
LLC sets: 2048
LLC ways: 16
Clean RRIP Policies: 2213230122132301 Dirty RRIP Policies: 2203030122030301 PSEL Width: 10 Track Set: 4294967295 PSEL Mask: 1 Demote Mask: 3044100030441000DS Algo: 0Window size: 0
Off-chip DRAM Size: 4096 MB Channels: 1 Width: 64-bit Data Rate: 1600 MT/s

CPU 0 runs /mnt/beegfs/iconst01/spec2017/Mcf.trace.gz
NOT SORTED
TRACE STRING: /mnt/beegfs/iconst01/spec2017/Mcf.trace.gz
SORTED
TRACE STRING: /mnt/beegfs/iconst01/spec2017/Mcf.trace.gz
INITIAL
TRACE STRING: /mnt/beegfs/iconst01/spec2017/Mcf.trace.gz

champsim_seed used: 278

CPU 0 L1D next line prefetcher
CPU 0 L2C IP-based stride prefetcher
Initialize DRRIP state
Assign rand_sets[0]: 454  LLC: 2048
rand_sets[0]: 454
Assign rand_sets[1]: 1662  LLC: 2048
rand_sets[1]: 1662
Assign rand_sets[2]: 1921  LLC: 2048
rand_sets[2]: 1921
Assign rand_sets[3]: 1131  LLC: 2048
rand_sets[3]: 1131
Assign rand_sets[4]: 331  LLC: 2048
rand_sets[4]: 331
Assign rand_sets[5]: 1531  LLC: 2048
rand_sets[5]: 1531
Assign rand_sets[6]: 482  LLC: 2048
rand_sets[6]: 482
Assign rand_sets[7]: 1275  LLC: 2048
rand_sets[7]: 1275
Assign rand_sets[8]: 1876  LLC: 2048
rand_sets[8]: 1876
Assign rand_sets[9]: 2038  LLC: 2048
rand_sets[9]: 2038
Assign rand_sets[10]: 701  LLC: 2048
rand_sets[10]: 701
Assign rand_sets[11]: 479  LLC: 2048
rand_sets[11]: 479
Assign rand_sets[12]: 892  LLC: 2048
rand_sets[12]: 892
Assign rand_sets[13]: 1820  LLC: 2048
rand_sets[13]: 1820
Assign rand_sets[14]: 1505  LLC: 2048
rand_sets[14]: 1505
Assign rand_sets[15]: 1159  LLC: 2048
rand_sets[15]: 1159
Assign rand_sets[16]: 513  LLC: 2048
rand_sets[16]: 513
Assign rand_sets[17]: 703  LLC: 2048
rand_sets[17]: 703
Assign rand_sets[18]: 561  LLC: 2048
rand_sets[18]: 561
Assign rand_sets[19]: 990  LLC: 2048
rand_sets[19]: 990
Assign rand_sets[20]: 342  LLC: 2048
rand_sets[20]: 342
Assign rand_sets[21]: 882  LLC: 2048
rand_sets[21]: 882
Assign rand_sets[22]: 15  LLC: 2048
rand_sets[22]: 15
Assign rand_sets[23]: 71  LLC: 2048
rand_sets[23]: 71
Assign rand_sets[24]: 1127  LLC: 2048
rand_sets[24]: 1127
Assign rand_sets[25]: 1382  LLC: 2048
rand_sets[25]: 1382
Assign rand_sets[26]: 647  LLC: 2048
rand_sets[26]: 647
Assign rand_sets[27]: 857  LLC: 2048
rand_sets[27]: 857
Assign rand_sets[28]: 1450  LLC: 2048
rand_sets[28]: 1450
Assign rand_sets[29]: 1160  LLC: 2048
rand_sets[29]: 1160
Assign rand_sets[30]: 1852  LLC: 2048
rand_sets[30]: 1852
Assign rand_sets[31]: 1881  LLC: 2048
rand_sets[31]: 1881
Assign rand_sets[32]: 1770  LLC: 2048
rand_sets[32]: 1770
Assign rand_sets[33]: 1622  LLC: 2048
rand_sets[33]: 1622
Assign rand_sets[34]: 275  LLC: 2048
rand_sets[34]: 275
Assign rand_sets[35]: 635  LLC: 2048
rand_sets[35]: 635
Assign rand_sets[36]: 466  LLC: 2048
rand_sets[36]: 466
Assign rand_sets[37]: 1413  LLC: 2048
rand_sets[37]: 1413
Assign rand_sets[38]: 417  LLC: 2048
rand_sets[38]: 417
Assign rand_sets[39]: 472  LLC: 2048
rand_sets[39]: 472
Assign rand_sets[40]: 1340  LLC: 2048
rand_sets[40]: 1340
Assign rand_sets[41]: 852  LLC: 2048
rand_sets[41]: 852
Assign rand_sets[42]: 1365  LLC: 2048
rand_sets[42]: 1365
Assign rand_sets[43]: 47  LLC: 2048
rand_sets[43]: 47
Assign rand_sets[44]: 823  LLC: 2048
rand_sets[44]: 823
Assign rand_sets[45]: 686  LLC: 2048
rand_sets[45]: 686
Assign rand_sets[46]: 1637  LLC: 2048
rand_sets[46]: 1637
Assign rand_sets[47]: 1115  LLC: 2048
rand_sets[47]: 1115
Assign rand_sets[48]: 986  LLC: 2048
rand_sets[48]: 986
Assign rand_sets[49]: 258  LLC: 2048
rand_sets[49]: 258
Assign rand_sets[50]: 633  LLC: 2048
rand_sets[50]: 633
Assign rand_sets[51]: 920  LLC: 2048
rand_sets[51]: 920
Assign rand_sets[52]: 204  LLC: 2048
rand_sets[52]: 204
Assign rand_sets[53]: 227  LLC: 2048
rand_sets[53]: 227
Assign rand_sets[54]: 1818  LLC: 2048
rand_sets[54]: 1818
Assign rand_sets[55]: 886  LLC: 2048
rand_sets[55]: 886
Assign rand_sets[56]: 1422  LLC: 2048
rand_sets[56]: 1422
Assign rand_sets[57]: 607  LLC: 2048
rand_sets[57]: 607
Assign rand_sets[58]: 217  LLC: 2048
rand_sets[58]: 217
Assign rand_sets[59]: 1945  LLC: 2048
rand_sets[59]: 1945
Assign rand_sets[60]: 143  LLC: 2048
rand_sets[60]: 143
Assign rand_sets[61]: 1311  LLC: 2048
rand_sets[61]: 1311
Assign rand_sets[62]: 319  LLC: 2048
rand_sets[62]: 319
Assign rand_sets[63]: 1846  LLC: 2048
rand_sets[63]: 1846
 CLEAN-RRIP-POLICY-1: 2-2-1-3-2-3-0-1- CLEAN-RRIP-POLICY-2: 2-2-1-3-2-3-0-1-
 DIRTY-RRIP-POLICY-1: 2-2-0-3-0-3-0-1- DIRTY-RRIP-POLICY-2: 2-2-0-3-0-3-0-1-
 PSEL width: 10
Heartbeat CPU 0 instructions: 10000002 cycles: 6248383 heartbeat IPC: 1.60041 cumulative IPC: 1.60041 (Simulation time: 0 hr 0 min 13 sec) 
Heartbeat CPU 0 instructions: 20000000 cycles: 12468898 heartbeat IPC: 1.60758 cumulative IPC: 1.60399 (Simulation time: 0 hr 0 min 26 sec) 
Heartbeat CPU 0 instructions: 30000000 cycles: 18678937 heartbeat IPC: 1.6103 cumulative IPC: 1.60609 (Simulation time: 0 hr 0 min 39 sec) 
Heartbeat CPU 0 instructions: 40000000 cycles: 24889287 heartbeat IPC: 1.61022 cumulative IPC: 1.60712 (Simulation time: 0 hr 0 min 52 sec) 
Heartbeat CPU 0 instructions: 50000003 cycles: 31101515 heartbeat IPC: 1.60973 cumulative IPC: 1.60764 (Simulation time: 0 hr 1 min 5 sec) 
Heartbeat CPU 0 instructions: 60000000 cycles: 37297484 heartbeat IPC: 1.61395 cumulative IPC: 1.60869 (Simulation time: 0 hr 1 min 17 sec) 
Heartbeat CPU 0 instructions: 70000003 cycles: 43515691 heartbeat IPC: 1.60818 cumulative IPC: 1.60862 (Simulation time: 0 hr 1 min 30 sec) 
Heartbeat CPU 0 instructions: 80000000 cycles: 49745982 heartbeat IPC: 1.60506 cumulative IPC: 1.60817 (Simulation time: 0 hr 1 min 43 sec) 
Heartbeat CPU 0 instructions: 90000000 cycles: 55974764 heartbeat IPC: 1.60545 cumulative IPC: 1.60787 (Simulation time: 0 hr 1 min 56 sec) 
Heartbeat CPU 0 instructions: 100000000 cycles: 62193497 heartbeat IPC: 1.60804 cumulative IPC: 1.60789 (Simulation time: 0 hr 2 min 9 sec) 

Warmup complete CPU 0 instructions: 100000001 cycles: 62193498 (Simulation time: 0 hr 2 min 9 sec) 

Heartbeat CPU 0 instructions: 110000000 cycles: 86750440 heartbeat IPC: 0.407217 cumulative IPC: 0.407217 (Simulation time: 0 hr 2 min 33 sec) 
Heartbeat CPU 0 instructions: 120000000 cycles: 111411121 heartbeat IPC: 0.405504 cumulative IPC: 0.406358 (Simulation time: 0 hr 2 min 57 sec) 
Heartbeat CPU 0 instructions: 130000000 cycles: 136145033 heartbeat IPC: 0.404303 cumulative IPC: 0.405671 (Simulation time: 0 hr 3 min 22 sec) 
Heartbeat CPU 0 instructions: 140000000 cycles: 160829386 heartbeat IPC: 0.405115 cumulative IPC: 0.405532 (Simulation time: 0 hr 3 min 46 sec) 
Heartbeat CPU 0 instructions: 150000003 cycles: 185404098 heartbeat IPC: 0.406922 cumulative IPC: 0.405809 (Simulation time: 0 hr 4 min 11 sec) 
Heartbeat CPU 0 instructions: 160000000 cycles: 210248940 heartbeat IPC: 0.402498 cumulative IPC: 0.405254 (Simulation time: 0 hr 4 min 35 sec) 
Heartbeat CPU 0 instructions: 170000001 cycles: 234957089 heartbeat IPC: 0.404725 cumulative IPC: 0.405178 (Simulation time: 0 hr 5 min 0 sec) 
Heartbeat CPU 0 instructions: 180000000 cycles: 259668768 heartbeat IPC: 0.404667 cumulative IPC: 0.405114 (Simulation time: 0 hr 5 min 24 sec) 
Heartbeat CPU 0 instructions: 190000003 cycles: 284336934 heartbeat IPC: 0.405381 cumulative IPC: 0.405144 (Simulation time: 0 hr 5 min 49 sec) 
Heartbeat CPU 0 instructions: 200000000 cycles: 309045832 heartbeat IPC: 0.404712 cumulative IPC: 0.4051 (Simulation time: 0 hr 6 min 14 sec) 
Heartbeat CPU 0 instructions: 210000003 cycles: 333819807 heartbeat IPC: 0.40365 cumulative IPC: 0.404968 (Simulation time: 0 hr 6 min 38 sec) 
Heartbeat CPU 0 instructions: 220000000 cycles: 358781683 heartbeat IPC: 0.400611 cumulative IPC: 0.404601 (Simulation time: 0 hr 7 min 3 sec) 
Heartbeat CPU 0 instructions: 230000002 cycles: 383398704 heartbeat IPC: 0.406223 cumulative IPC: 0.404726 (Simulation time: 0 hr 7 min 27 sec) 
Heartbeat CPU 0 instructions: 240000000 cycles: 408323404 heartbeat IPC: 0.401208 cumulative IPC: 0.404472 (Simulation time: 0 hr 7 min 52 sec) 
Heartbeat CPU 0 instructions: 250000000 cycles: 433067782 heartbeat IPC: 0.404132 cumulative IPC: 0.40445 (Simulation time: 0 hr 8 min 17 sec) 
Heartbeat CPU 0 instructions: 260000000 cycles: 457774658 heartbeat IPC: 0.404746 cumulative IPC: 0.404468 (Simulation time: 0 hr 8 min 41 sec) 
Heartbeat CPU 0 instructions: 270000001 cycles: 482563114 heartbeat IPC: 0.403414 cumulative IPC: 0.404406 (Simulation time: 0 hr 9 min 6 sec) 
Heartbeat CPU 0 instructions: 280000000 cycles: 507288665 heartbeat IPC: 0.40444 cumulative IPC: 0.404408 (Simulation time: 0 hr 9 min 31 sec) 
Heartbeat CPU 0 instructions: 290000001 cycles: 532100377 heartbeat IPC: 0.403036 cumulative IPC: 0.404335 (Simulation time: 0 hr 9 min 55 sec) 
Heartbeat CPU 0 instructions: 300000000 cycles: 557063566 heartbeat IPC: 0.40059 cumulative IPC: 0.404146 (Simulation time: 0 hr 10 min 20 sec) 
Heartbeat CPU 0 instructions: 310000003 cycles: 581666418 heartbeat IPC: 0.406457 cumulative IPC: 0.404256 (Simulation time: 0 hr 10 min 45 sec) 
Heartbeat CPU 0 instructions: 320000000 cycles: 606637975 heartbeat IPC: 0.400455 cumulative IPC: 0.404082 (Simulation time: 0 hr 11 min 9 sec) 
Heartbeat CPU 0 instructions: 330000003 cycles: 631364738 heartbeat IPC: 0.40442 cumulative IPC: 0.404096 (Simulation time: 0 hr 11 min 34 sec) 
Heartbeat CPU 0 instructions: 340000000 cycles: 656371403 heartbeat IPC: 0.399893 cumulative IPC: 0.403919 (Simulation time: 0 hr 11 min 59 sec) 
Heartbeat CPU 0 instructions: 350000002 cycles: 681354912 heartbeat IPC: 0.400264 cumulative IPC: 0.403772 (Simulation time: 0 hr 12 min 24 sec) 
Heartbeat CPU 0 instructions: 360000000 cycles: 706469943 heartbeat IPC: 0.398168 cumulative IPC: 0.403553 (Simulation time: 0 hr 12 min 49 sec) 
Heartbeat CPU 0 instructions: 370000000 cycles: 731368248 heartbeat IPC: 0.401634 cumulative IPC: 0.403482 (Simulation time: 0 hr 13 min 13 sec) 
Heartbeat CPU 0 instructions: 380000000 cycles: 756085986 heartbeat IPC: 0.404568 cumulative IPC: 0.403521 (Simulation time: 0 hr 13 min 38 sec) 
Heartbeat CPU 0 instructions: 390000002 cycles: 780819658 heartbeat IPC: 0.404307 cumulative IPC: 0.403548 (Simulation time: 0 hr 14 min 3 sec) 
Heartbeat CPU 0 instructions: 400000000 cycles: 805721555 heartbeat IPC: 0.401576 cumulative IPC: 0.403482 (Simulation time: 0 hr 14 min 28 sec) 
Heartbeat CPU 0 instructions: 410000002 cycles: 830525471 heartbeat IPC: 0.403162 cumulative IPC: 0.403471 (Simulation time: 0 hr 14 min 53 sec) 
Heartbeat CPU 0 instructions: 420000000 cycles: 855129366 heartbeat IPC: 0.40644 cumulative IPC: 0.403564 (Simulation time: 0 hr 15 min 18 sec) 
Heartbeat CPU 0 instructions: 430000000 cycles: 879955135 heartbeat IPC: 0.402807 cumulative IPC: 0.403541 (Simulation time: 0 hr 15 min 43 sec) 
Heartbeat CPU 0 instructions: 440000000 cycles: 904498686 heartbeat IPC: 0.407439 cumulative IPC: 0.403654 (Simulation time: 0 hr 16 min 7 sec) 
Heartbeat CPU 0 instructions: 450000000 cycles: 929471469 heartbeat IPC: 0.400436 cumulative IPC: 0.403562 (Simulation time: 0 hr 16 min 34 sec) 
Heartbeat CPU 0 instructions: 460000000 cycles: 954356701 heartbeat IPC: 0.401845 cumulative IPC: 0.403514 (Simulation time: 0 hr 17 min 0 sec) 
Heartbeat CPU 0 instructions: 470000001 cycles: 979042345 heartbeat IPC: 0.405094 cumulative IPC: 0.403556 (Simulation time: 0 hr 17 min 26 sec) 
Heartbeat CPU 0 instructions: 480000000 cycles: 1003884289 heartbeat IPC: 0.402545 cumulative IPC: 0.403529 (Simulation time: 0 hr 17 min 52 sec) 
Heartbeat CPU 0 instructions: 490000000 cycles: 1028843026 heartbeat IPC: 0.400661 cumulative IPC: 0.403455 (Simulation time: 0 hr 18 min 18 sec) 
Heartbeat CPU 0 instructions: 500000000 cycles: 1054111840 heartbeat IPC: 0.395745 cumulative IPC: 0.403259 (Simulation time: 0 hr 18 min 44 sec) 
Heartbeat CPU 0 instructions: 510000003 cycles: 1079247230 heartbeat IPC: 0.397846 cumulative IPC: 0.403125 (Simulation time: 0 hr 19 min 10 sec) 
Heartbeat CPU 0 instructions: 520000000 cycles: 1104539239 heartbeat IPC: 0.395382 cumulative IPC: 0.402937 (Simulation time: 0 hr 19 min 36 sec) 
Heartbeat CPU 0 instructions: 530000003 cycles: 1129855599 heartbeat IPC: 0.395002 cumulative IPC: 0.402749 (Simulation time: 0 hr 20 min 2 sec) 
Heartbeat CPU 0 instructions: 540000000 cycles: 1155084181 heartbeat IPC: 0.396376 cumulative IPC: 0.402602 (Simulation time: 0 hr 20 min 28 sec) 
Heartbeat CPU 0 instructions: 550000000 cycles: 1180326961 heartbeat IPC: 0.396153 cumulative IPC: 0.402456 (Simulation time: 0 hr 20 min 54 sec) 
Heartbeat CPU 0 instructions: 560000000 cycles: 1205883530 heartbeat IPC: 0.391289 cumulative IPC: 0.402207 (Simulation time: 0 hr 21 min 20 sec) 
Heartbeat CPU 0 instructions: 570000001 cycles: 1231367288 heartbeat IPC: 0.392407 cumulative IPC: 0.401993 (Simulation time: 0 hr 21 min 46 sec) 
Heartbeat CPU 0 instructions: 580000000 cycles: 1256858274 heartbeat IPC: 0.392296 cumulative IPC: 0.401786 (Simulation time: 0 hr 22 min 12 sec) 
Heartbeat CPU 0 instructions: 590000000 cycles: 1282516254 heartbeat IPC: 0.389742 cumulative IPC: 0.401533 (Simulation time: 0 hr 22 min 38 sec) 
Heartbeat CPU 0 instructions: 600000000 cycles: 1308244545 heartbeat IPC: 0.388677 cumulative IPC: 0.401268 (Simulation time: 0 hr 23 min 5 sec) 
Finished CPU 0 instructions: 500000003 cycles: 1246051060 cumulative IPC: 0.401268 (Simulation time: 0 hr 23 min 5 sec) 

CPU 0 Branch Prediction Accuracy: 91.1342% MPKI: 18.7968
Number of Branches: 106006945 Number of Mispredictions: 9398408
Number of LOAD Instructions: 207894007
Number of LOAD Instructions (ROI): 207894007
Number of STORE Instructions: 54285997
Number of STORE Instructions (ROI): 54285997
Total Destination Memory Operands: 57463404
Total Destination Memory Operands (ROI): 57463404
Total Source Memory Operands: 207894007
Total Source Memory Operands (ROI): 207894007
Number of DEPENDED LOADS: 18105203
Number of DEPENDED LOADS (ROI): 18105203
Number of SQ_ADDED: 57463404
Number of SQ_ADDED (ROI): 57463404
Number of LQ_ADDED: 209238649
Number of LQ_ADDED (ROI): 209238649
Number of Instructions read from trace: 600000039

ChampSim completed all CPUs

Region of Interest Statistics

CPU 0 cumulative IPC: 0.401268 instructions: 500000003 cycles: 1246051060
ITLB TOTAL     ACCESS:   96421363  HIT:   96421363  MISS:          0
ITLB LOAD      ACCESS:   96421363  HIT:   96421363  MISS:          0
ITLB RFO       ACCESS:          0  HIT:          0  MISS:          0
ITLB PREFETCH  ACCESS:          0  HIT:          0  MISS:          0
ITLB WRITEBACK ACCESS:          0  HIT:          0  MISS:          0
ITLB PREFETCH  REQUESTED:          0  ISSUED:          0  USEFUL:          0  USELESS:          0
ITLB TOTAL MSHR MERGED:          0
ITLB LOAD MSHR MERGED:          0
ITLB RFO MSHR MERGED:          0
ITLB PREFETCH MSHR MERGED:          0
ITLB WRITEBACK MSHR MERGED:          0
ITLB TOTAL ACCESSES:   96421363 HITS:   96421363 MISSES:          0
ITLB LOAD ACCESSES:   96421363 HITS:   96421363 MISSES:          0
ITLB RFO ACCESSES:          0 HITS:          0 MISSES:          0
ITLB PREFETCH ACCESSES:          0 HITS:          0 MISSES:          0
ITLB WRITEBACK ACCESSES:          0 HITS:          0 MISSES:          0
ITLB RQ ACCESS:  499999980
ITLB RQ TO_CACHE:   96421363
ITLB RQ MERGED:  403578617
ITLB RQ FORWARD:          0
ITLB WQ ACCESS:          0
ITLB WQ TO_CACHE:          0
ITLB WQ MERGED:          0
ITLB WQ FORWARD:          0
DTLB TOTAL     ACCESS:  155173985  HIT:  150261822  MISS:    4912163
DTLB LOAD      ACCESS:  117723471  HIT:  113333005  MISS:    4390466
DTLB RFO       ACCESS:   37450514  HIT:   36928817  MISS:     521697
DTLB PREFETCH  ACCESS:          0  HIT:          0  MISS:          0
DTLB WRITEBACK ACCESS:          0  HIT:          0  MISS:          0
DTLB PREFETCH  REQUESTED:          0  ISSUED:          0  USEFUL:          0  USELESS:          0
DTLB TOTAL MSHR MERGED:     453156
DTLB LOAD MSHR MERGED:     161706
DTLB RFO MSHR MERGED:     291450
DTLB PREFETCH MSHR MERGED:          0
DTLB WRITEBACK MSHR MERGED:          0
DTLB TOTAL ACCESSES:  155627141 HITS:  150261822 MISSES:    5365319
DTLB LOAD ACCESSES:  117885177 HITS:  113333005 MISSES:    4552172
DTLB RFO ACCESSES:   37741964 HITS:   36928817 MISSES:     813147
DTLB PREFETCH ACCESSES:          0 HITS:          0 MISSES:          0
DTLB WRITEBACK ACCESSES:          0 HITS:          0 MISSES:          0
DTLB RQ ACCESS:  205977707
DTLB RQ TO_CACHE:  155627141
DTLB RQ MERGED:   50350566
DTLB RQ FORWARD:          0
DTLB WQ ACCESS:          0
DTLB WQ TO_CACHE:          0
DTLB WQ MERGED:          0
DTLB WQ FORWARD:          0
L1D TOTAL     ACCESS:  277177921  HIT:  242355467  MISS:   34822454
L1D LOAD      ACCESS:  125414848  HIT:  107775772  MISS:   17639076
L1D RFO       ACCESS:   41135947  HIT:   38824109  MISS:    2311838
L1D PREFETCH  ACCESS:  110627126  HIT:   95755586  MISS:   14871540
L1D WRITEBACK ACCESS:          0  HIT:          0  MISS:          0
L1D PREFETCH  REQUESTED:  126272497  ISSUED:  124753274  USEFUL:    2705541  USELESS:   12166025
L1D TOTAL MSHR MERGED:    8493759
L1D LOAD MSHR MERGED:    1550369
L1D RFO MSHR MERGED:    3768794
L1D PREFETCH MSHR MERGED:    3174596
L1D WRITEBACK MSHR MERGED:          0
L1D TOTAL ACCESSES:  285758996 HITS:  242442781 MISSES:   43316215
L1D LOAD ACCESSES:  126272531 HITS:  107775806 MISSES:   18496725
L1D RFO ACCESSES:   44904246 HITS:   38824109 MISSES:    6080137
L1D PREFETCH ACCESSES:  114582219 HITS:   95842866 MISSES:   18739353
L1D WRITEBACK ACCESSES:          0 HITS:          0 MISSES:          0
L1D RQ ACCESS:  158430826
L1D RQ TO_CACHE:  126272497
L1D RQ MERGED:   32158295
L1D RQ FORWARD:          0
L1D WQ ACCESS:   47546882
L1D WQ TO_CACHE:   44904246
L1D WQ MERGED:    2642636
L1D WQ FORWARD:      87314
L1I TOTAL     ACCESS:  132831137  HIT:  132831137  MISS:          0
L1I LOAD      ACCESS:  132831137  HIT:  132831137  MISS:          0
L1I RFO       ACCESS:          0  HIT:          0  MISS:          0
L1I PREFETCH  ACCESS:          0  HIT:          0  MISS:          0
L1I WRITEBACK ACCESS:          0  HIT:          0  MISS:          0
L1I PREFETCH  REQUESTED:          0  ISSUED:          0  USEFUL:          0  USELESS:          0
L1I TOTAL MSHR MERGED:          0
L1I LOAD MSHR MERGED:          0
L1I RFO MSHR MERGED:          0
L1I PREFETCH MSHR MERGED:          0
L1I WRITEBACK MSHR MERGED:          0
L1I TOTAL ACCESSES:  132831137 HITS:  132831137 MISSES:          0
L1I LOAD ACCESSES:  132831137 HITS:  132831137 MISSES:          0
L1I RFO ACCESSES:          0 HITS:          0 MISSES:          0
L1I PREFETCH ACCESSES:          0 HITS:          0 MISSES:          0
L1I WRITEBACK ACCESSES:          0 HITS:          0 MISSES:          0
L1I RQ ACCESS:  499999980
L1I RQ TO_CACHE:  132831137
L1I RQ MERGED:  367168843
L1I RQ FORWARD:          0
L1I WQ ACCESS:          0
L1I WQ TO_CACHE:          0
L1I WQ MERGED:          0
L1I WQ FORWARD:          0
L2C TOTAL     ACCESS:   39596898  HIT:   20627540  MISS:   18969358
L2C LOAD      ACCESS:   16946294  HIT:    8567861  MISS:    8378433
L2C RFO       ACCESS:    2311293  HIT:     630837  MISS:    1680456
L2C PREFETCH  ACCESS:   17116867  HIT:    8210150  MISS:    8906717
L2C WRITEBACK ACCESS:    3222444  HIT:    3218692  MISS:       3752
L2C PREFETCH  REQUESTED:    2877441  ISSUED:    2877441  USEFUL:    1307198  USELESS:    7599252
L2C TOTAL MSHR MERGED:     531613
L2C LOAD MSHR MERGED:      88545
L2C RFO MSHR MERGED:          0
L2C PREFETCH MSHR MERGED:     443068
L2C WRITEBACK MSHR MERGED:          0
L2C TOTAL ACCESSES:   40240617 HITS:   20627703 MISSES:   19612914
L2C LOAD ACCESSES:   16946356 HITS:    8567923 MISSES:    8378433
L2C RFO ACCESSES:    2311343 HITS:     630887 MISSES:    1680456
L2C PREFETCH ACCESSES:   17760474 HITS:    8210201 MISSES:    9550273
L2C WRITEBACK ACCESSES:    3222444 HITS:    3218692 MISSES:       3752
L2C RQ ACCESS:   19257699
L2C RQ TO_CACHE:   19257587
L2C RQ MERGED:          0
L2C RQ FORWARD:          0
L2C WQ ACCESS:    3222444
L2C WQ TO_CACHE:    3222444
L2C WQ MERGED:          0
L2C WQ FORWARD:        163
LLC TOTAL     ACCESS:   21197418  HIT:   14137472  MISS:    7059946
LLC LOAD      ACCESS:    8289862  HIT:    5784932  MISS:    2504930
LLC RFO       ACCESS:    1680374  HIT:    1671722  MISS:       8652
LLC PREFETCH  ACCESS:    9051515  HIT:    4511545  MISS:    4539970
LLC WRITEBACK ACCESS:    2175667  HIT:    2169273  MISS:       6394
LLC PREFETCH  REQUESTED:          0  ISSUED:          0  USEFUL:     203176  USELESS:    4339374
LLC TOTAL MSHR MERGED:      47120
LLC LOAD MSHR MERGED:      14729
LLC RFO MSHR MERGED:          0
LLC PREFETCH MSHR MERGED:      32391
LLC WRITEBACK MSHR MERGED:          0
LLC TOTAL ACCESSES:   21244677 HITS:   14137609 MISSES:    7107068
LLC LOAD ACCESSES:    8289888 HITS:    5784958 MISSES:    2504930
LLC RFO ACCESSES:    1680456 HITS:    1671804 MISSES:       8652
LLC PREFETCH ACCESSES:    9098666 HITS:    4511574 MISSES:    4587092
LLC WRITEBACK ACCESSES:    2175667 HITS:    2169273 MISSES:       6394
LLC 0 RQ ACCESS:    9970344
LLC 0 RQ TO_CACHE:    9970236
LLC 0 RQ MERGED:          0
LLC 0 RQ FORWARD:          0
LLC WQ ACCESS:    2175668
LLC WQ TO_CACHE:    2175668
LLC WQ MERGED:          0
LLC WQ FORWARD:        137
Major fault: 0 Minor fault: 56391
CPU 0 L1D next line prefetcher final stats
CPU 0 L2C PC-based stride prefetcher final stats
All Misses: 8302964
All Hits: 16271299
SD Algo Stats - Switches: 0 SRR-Repls: 2627637 BRR-Repls: 0

DRAM Statistics
 CHANNEL 0
 RQ ROW_BUFFER_HIT:    4569157  ROW_BUFFER_MISS:    2472165
 DBUS_CONGESTED:    3285862
 WQ ROW_BUFFER_HIT:        708  ROW_BUFFER_MISS:      22002  FULL:          0

 AVG_CONGESTED_CYCLE: 12
LOADS RETIRED: 173631671
INSTR RETIRED: 500000000
