
*** ChampSim Multicore Out-of-Order Simulator ***

Warmup Instructions: 100000000
Simulation Instructions: 500000000
Number of CPUs: 1
LLC sets: 2048
LLC ways: 16
Clean RRIP Policies: 1013030110130301 Dirty RRIP Policies: 2013130120131301 PSEL Width: 10 Track Set: 4294967295 PSEL Mask: 1 Demote Mask: 3030201030302010DS Algo: 0Window size: 0
Off-chip DRAM Size: 4096 MB Channels: 1 Width: 64-bit Data Rate: 1600 MT/s

CPU 0 runs /mnt/beegfs/iconst01/spec2017/Fotonik3d.trace.gz
NOT SORTED
TRACE STRING: /mnt/beegfs/iconst01/spec2017/Fotonik3d.trace.gz
SORTED
TRACE STRING: /mnt/beegfs/iconst01/spec2017/Fotonik3d.trace.gz
INITIAL
TRACE STRING: /mnt/beegfs/iconst01/spec2017/Fotonik3d.trace.gz

champsim_seed used: 881

CPU 0 L1D next line prefetcher
CPU 0 L2C IP-based stride prefetcher
Initialize DRRIP state
Assign rand_sets[0]: 454  LLC: 2048
rand_sets[0]: 454
Assign rand_sets[1]: 1662  LLC: 2048
rand_sets[1]: 1662
Assign rand_sets[2]: 1921  LLC: 2048
rand_sets[2]: 1921
Assign rand_sets[3]: 1131  LLC: 2048
rand_sets[3]: 1131
Assign rand_sets[4]: 331  LLC: 2048
rand_sets[4]: 331
Assign rand_sets[5]: 1531  LLC: 2048
rand_sets[5]: 1531
Assign rand_sets[6]: 482  LLC: 2048
rand_sets[6]: 482
Assign rand_sets[7]: 1275  LLC: 2048
rand_sets[7]: 1275
Assign rand_sets[8]: 1876  LLC: 2048
rand_sets[8]: 1876
Assign rand_sets[9]: 2038  LLC: 2048
rand_sets[9]: 2038
Assign rand_sets[10]: 701  LLC: 2048
rand_sets[10]: 701
Assign rand_sets[11]: 479  LLC: 2048
rand_sets[11]: 479
Assign rand_sets[12]: 892  LLC: 2048
rand_sets[12]: 892
Assign rand_sets[13]: 1820  LLC: 2048
rand_sets[13]: 1820
Assign rand_sets[14]: 1505  LLC: 2048
rand_sets[14]: 1505
Assign rand_sets[15]: 1159  LLC: 2048
rand_sets[15]: 1159
Assign rand_sets[16]: 513  LLC: 2048
rand_sets[16]: 513
Assign rand_sets[17]: 703  LLC: 2048
rand_sets[17]: 703
Assign rand_sets[18]: 561  LLC: 2048
rand_sets[18]: 561
Assign rand_sets[19]: 990  LLC: 2048
rand_sets[19]: 990
Assign rand_sets[20]: 342  LLC: 2048
rand_sets[20]: 342
Assign rand_sets[21]: 882  LLC: 2048
rand_sets[21]: 882
Assign rand_sets[22]: 15  LLC: 2048
rand_sets[22]: 15
Assign rand_sets[23]: 71  LLC: 2048
rand_sets[23]: 71
Assign rand_sets[24]: 1127  LLC: 2048
rand_sets[24]: 1127
Assign rand_sets[25]: 1382  LLC: 2048
rand_sets[25]: 1382
Assign rand_sets[26]: 647  LLC: 2048
rand_sets[26]: 647
Assign rand_sets[27]: 857  LLC: 2048
rand_sets[27]: 857
Assign rand_sets[28]: 1450  LLC: 2048
rand_sets[28]: 1450
Assign rand_sets[29]: 1160  LLC: 2048
rand_sets[29]: 1160
Assign rand_sets[30]: 1852  LLC: 2048
rand_sets[30]: 1852
Assign rand_sets[31]: 1881  LLC: 2048
rand_sets[31]: 1881
Assign rand_sets[32]: 1770  LLC: 2048
rand_sets[32]: 1770
Assign rand_sets[33]: 1622  LLC: 2048
rand_sets[33]: 1622
Assign rand_sets[34]: 275  LLC: 2048
rand_sets[34]: 275
Assign rand_sets[35]: 635  LLC: 2048
rand_sets[35]: 635
Assign rand_sets[36]: 466  LLC: 2048
rand_sets[36]: 466
Assign rand_sets[37]: 1413  LLC: 2048
rand_sets[37]: 1413
Assign rand_sets[38]: 417  LLC: 2048
rand_sets[38]: 417
Assign rand_sets[39]: 472  LLC: 2048
rand_sets[39]: 472
Assign rand_sets[40]: 1340  LLC: 2048
rand_sets[40]: 1340
Assign rand_sets[41]: 852  LLC: 2048
rand_sets[41]: 852
Assign rand_sets[42]: 1365  LLC: 2048
rand_sets[42]: 1365
Assign rand_sets[43]: 47  LLC: 2048
rand_sets[43]: 47
Assign rand_sets[44]: 823  LLC: 2048
rand_sets[44]: 823
Assign rand_sets[45]: 686  LLC: 2048
rand_sets[45]: 686
Assign rand_sets[46]: 1637  LLC: 2048
rand_sets[46]: 1637
Assign rand_sets[47]: 1115  LLC: 2048
rand_sets[47]: 1115
Assign rand_sets[48]: 986  LLC: 2048
rand_sets[48]: 986
Assign rand_sets[49]: 258  LLC: 2048
rand_sets[49]: 258
Assign rand_sets[50]: 633  LLC: 2048
rand_sets[50]: 633
Assign rand_sets[51]: 920  LLC: 2048
rand_sets[51]: 920
Assign rand_sets[52]: 204  LLC: 2048
rand_sets[52]: 204
Assign rand_sets[53]: 227  LLC: 2048
rand_sets[53]: 227
Assign rand_sets[54]: 1818  LLC: 2048
rand_sets[54]: 1818
Assign rand_sets[55]: 886  LLC: 2048
rand_sets[55]: 886
Assign rand_sets[56]: 1422  LLC: 2048
rand_sets[56]: 1422
Assign rand_sets[57]: 607  LLC: 2048
rand_sets[57]: 607
Assign rand_sets[58]: 217  LLC: 2048
rand_sets[58]: 217
Assign rand_sets[59]: 1945  LLC: 2048
rand_sets[59]: 1945
Assign rand_sets[60]: 143  LLC: 2048
rand_sets[60]: 143
Assign rand_sets[61]: 1311  LLC: 2048
rand_sets[61]: 1311
Assign rand_sets[62]: 319  LLC: 2048
rand_sets[62]: 319
Assign rand_sets[63]: 1846  LLC: 2048
rand_sets[63]: 1846
 CLEAN-RRIP-POLICY-1: 1-0-1-3-0-3-0-1- CLEAN-RRIP-POLICY-2: 1-0-1-3-0-3-0-1-
 DIRTY-RRIP-POLICY-1: 2-0-1-3-1-3-0-1- DIRTY-RRIP-POLICY-2: 2-0-1-3-1-3-0-1-
 PSEL width: 10
Heartbeat CPU 0 instructions: 10000002 cycles: 7306823 heartbeat IPC: 1.36858 cumulative IPC: 1.36858 (Simulation time: 0 hr 0 min 25 sec) 
Heartbeat CPU 0 instructions: 20000000 cycles: 14613786 heartbeat IPC: 1.36856 cumulative IPC: 1.36857 (Simulation time: 0 hr 0 min 50 sec) 
Heartbeat CPU 0 instructions: 30000001 cycles: 21920638 heartbeat IPC: 1.36858 cumulative IPC: 1.36857 (Simulation time: 0 hr 1 min 14 sec) 
Heartbeat CPU 0 instructions: 40000000 cycles: 29227412 heartbeat IPC: 1.36859 cumulative IPC: 1.36858 (Simulation time: 0 hr 1 min 40 sec) 
Heartbeat CPU 0 instructions: 50000001 cycles: 36534094 heartbeat IPC: 1.36861 cumulative IPC: 1.36858 (Simulation time: 0 hr 2 min 5 sec) 
Heartbeat CPU 0 instructions: 60000000 cycles: 43841060 heartbeat IPC: 1.36856 cumulative IPC: 1.36858 (Simulation time: 0 hr 2 min 30 sec) 
Heartbeat CPU 0 instructions: 70000002 cycles: 51147823 heartbeat IPC: 1.3686 cumulative IPC: 1.36858 (Simulation time: 0 hr 2 min 56 sec) 
Heartbeat CPU 0 instructions: 80000000 cycles: 58454563 heartbeat IPC: 1.3686 cumulative IPC: 1.36858 (Simulation time: 0 hr 3 min 21 sec) 
Heartbeat CPU 0 instructions: 90000003 cycles: 65765124 heartbeat IPC: 1.36788 cumulative IPC: 1.36851 (Simulation time: 0 hr 3 min 47 sec) 
Heartbeat CPU 0 instructions: 100000000 cycles: 73075731 heartbeat IPC: 1.36788 cumulative IPC: 1.36844 (Simulation time: 0 hr 4 min 12 sec) 

Warmup complete CPU 0 instructions: 100000002 cycles: 73075743 (Simulation time: 0 hr 4 min 12 sec) 

Heartbeat CPU 0 instructions: 110000001 cycles: 85573425 heartbeat IPC: 0.800148 cumulative IPC: 0.800148 (Simulation time: 0 hr 4 min 43 sec) 
Heartbeat CPU 0 instructions: 120000000 cycles: 98015928 heartbeat IPC: 0.803697 cumulative IPC: 0.801919 (Simulation time: 0 hr 5 min 13 sec) 
Heartbeat CPU 0 instructions: 130000000 cycles: 110504780 heartbeat IPC: 0.800714 cumulative IPC: 0.801517 (Simulation time: 0 hr 5 min 44 sec) 
Heartbeat CPU 0 instructions: 140000000 cycles: 122964696 heartbeat IPC: 0.802574 cumulative IPC: 0.801781 (Simulation time: 0 hr 6 min 15 sec) 
Heartbeat CPU 0 instructions: 150000000 cycles: 135390016 heartbeat IPC: 0.804808 cumulative IPC: 0.802384 (Simulation time: 0 hr 6 min 45 sec) 
Heartbeat CPU 0 instructions: 160000000 cycles: 147851634 heartbeat IPC: 0.802464 cumulative IPC: 0.802398 (Simulation time: 0 hr 7 min 16 sec) 
Heartbeat CPU 0 instructions: 170000001 cycles: 160308978 heartbeat IPC: 0.802739 cumulative IPC: 0.802446 (Simulation time: 0 hr 7 min 46 sec) 
Heartbeat CPU 0 instructions: 180000000 cycles: 172773097 heartbeat IPC: 0.802303 cumulative IPC: 0.802428 (Simulation time: 0 hr 8 min 17 sec) 
Heartbeat CPU 0 instructions: 190000000 cycles: 185257366 heartbeat IPC: 0.801008 cumulative IPC: 0.80227 (Simulation time: 0 hr 8 min 48 sec) 
Heartbeat CPU 0 instructions: 200000000 cycles: 197718120 heartbeat IPC: 0.80252 cumulative IPC: 0.802295 (Simulation time: 0 hr 9 min 18 sec) 
Heartbeat CPU 0 instructions: 210000002 cycles: 210224165 heartbeat IPC: 0.799613 cumulative IPC: 0.802051 (Simulation time: 0 hr 9 min 49 sec) 
Heartbeat CPU 0 instructions: 220000000 cycles: 222724929 heartbeat IPC: 0.799951 cumulative IPC: 0.801875 (Simulation time: 0 hr 10 min 19 sec) 
Heartbeat CPU 0 instructions: 230000002 cycles: 235196320 heartbeat IPC: 0.801835 cumulative IPC: 0.801872 (Simulation time: 0 hr 10 min 50 sec) 
Heartbeat CPU 0 instructions: 240000000 cycles: 248369175 heartbeat IPC: 0.759137 cumulative IPC: 0.798661 (Simulation time: 0 hr 11 min 21 sec) 
Heartbeat CPU 0 instructions: 250000001 cycles: 265550730 heartbeat IPC: 0.58202 cumulative IPC: 0.779322 (Simulation time: 0 hr 11 min 54 sec) 
Heartbeat CPU 0 instructions: 260000000 cycles: 282691073 heartbeat IPC: 0.583419 cumulative IPC: 0.763303 (Simulation time: 0 hr 12 min 28 sec) 
Heartbeat CPU 0 instructions: 270000000 cycles: 299904035 heartbeat IPC: 0.580958 cumulative IPC: 0.749466 (Simulation time: 0 hr 13 min 0 sec) 
Heartbeat CPU 0 instructions: 280000000 cycles: 317083160 heartbeat IPC: 0.582102 cumulative IPC: 0.737682 (Simulation time: 0 hr 13 min 33 sec) 
Heartbeat CPU 0 instructions: 290000000 cycles: 345502753 heartbeat IPC: 0.35187 cumulative IPC: 0.697434 (Simulation time: 0 hr 14 min 14 sec) 
Heartbeat CPU 0 instructions: 300000000 cycles: 382370631 heartbeat IPC: 0.271239 cumulative IPC: 0.646632 (Simulation time: 0 hr 15 min 0 sec) 
Heartbeat CPU 0 instructions: 310000000 cycles: 398901662 heartbeat IPC: 0.604923 cumulative IPC: 0.644516 (Simulation time: 0 hr 15 min 32 sec) 
Heartbeat CPU 0 instructions: 320000000 cycles: 415420880 heartbeat IPC: 0.605356 cumulative IPC: 0.642626 (Simulation time: 0 hr 16 min 4 sec) 
Heartbeat CPU 0 instructions: 330000003 cycles: 431991163 heartbeat IPC: 0.60349 cumulative IPC: 0.640819 (Simulation time: 0 hr 16 min 35 sec) 
Heartbeat CPU 0 instructions: 340000000 cycles: 448539880 heartbeat IPC: 0.604276 cumulative IPC: 0.639209 (Simulation time: 0 hr 17 min 7 sec) 
Heartbeat CPU 0 instructions: 350000001 cycles: 463297592 heartbeat IPC: 0.677612 cumulative IPC: 0.640661 (Simulation time: 0 hr 17 min 36 sec) 
Heartbeat CPU 0 instructions: 360000000 cycles: 475237865 heartbeat IPC: 0.837502 cumulative IPC: 0.646505 (Simulation time: 0 hr 18 min 3 sec) 
Heartbeat CPU 0 instructions: 370000002 cycles: 486952886 heartbeat IPC: 0.853605 cumulative IPC: 0.652368 (Simulation time: 0 hr 18 min 30 sec) 
Heartbeat CPU 0 instructions: 380000000 cycles: 498851072 heartbeat IPC: 0.840464 cumulative IPC: 0.657624 (Simulation time: 0 hr 18 min 58 sec) 
Heartbeat CPU 0 instructions: 390000003 cycles: 512207379 heartbeat IPC: 0.74871 cumulative IPC: 0.660394 (Simulation time: 0 hr 19 min 26 sec) 
Heartbeat CPU 0 instructions: 400000000 cycles: 524503529 heartbeat IPC: 0.813262 cumulative IPC: 0.664558 (Simulation time: 0 hr 19 min 53 sec) 
Heartbeat CPU 0 instructions: 410000003 cycles: 536513490 heartbeat IPC: 0.832642 cumulative IPC: 0.668914 (Simulation time: 0 hr 20 min 21 sec) 
Heartbeat CPU 0 instructions: 420000000 cycles: 549374085 heartbeat IPC: 0.777569 cumulative IPC: 0.671848 (Simulation time: 0 hr 20 min 49 sec) 
Heartbeat CPU 0 instructions: 430000003 cycles: 567902005 heartbeat IPC: 0.539726 cumulative IPC: 0.666901 (Simulation time: 0 hr 21 min 14 sec) 
Heartbeat CPU 0 instructions: 440000000 cycles: 586436457 heartbeat IPC: 0.539536 cumulative IPC: 0.662302 (Simulation time: 0 hr 21 min 39 sec) 
Heartbeat CPU 0 instructions: 450000003 cycles: 604985512 heartbeat IPC: 0.539111 cumulative IPC: 0.658006 (Simulation time: 0 hr 22 min 4 sec) 
Heartbeat CPU 0 instructions: 460000000 cycles: 623518473 heartbeat IPC: 0.539579 cumulative IPC: 0.654019 (Simulation time: 0 hr 22 min 30 sec) 
Heartbeat CPU 0 instructions: 470000003 cycles: 642067510 heartbeat IPC: 0.539112 cumulative IPC: 0.650273 (Simulation time: 0 hr 22 min 55 sec) 
Heartbeat CPU 0 instructions: 480000000 cycles: 660622659 heartbeat IPC: 0.538934 cumulative IPC: 0.646757 (Simulation time: 0 hr 23 min 20 sec) 
Heartbeat CPU 0 instructions: 490000003 cycles: 679182871 heartbeat IPC: 0.538787 cumulative IPC: 0.643451 (Simulation time: 0 hr 23 min 45 sec) 
Heartbeat CPU 0 instructions: 500000000 cycles: 697699850 heartbeat IPC: 0.540045 cumulative IPC: 0.640385 (Simulation time: 0 hr 24 min 10 sec) 
Heartbeat CPU 0 instructions: 510000003 cycles: 716250838 heartbeat IPC: 0.539055 cumulative IPC: 0.637462 (Simulation time: 0 hr 24 min 35 sec) 
Heartbeat CPU 0 instructions: 520000000 cycles: 734778400 heartbeat IPC: 0.539736 cumulative IPC: 0.634726 (Simulation time: 0 hr 25 min 1 sec) 
Heartbeat CPU 0 instructions: 530000001 cycles: 753326975 heartbeat IPC: 0.539125 cumulative IPC: 0.632119 (Simulation time: 0 hr 25 min 26 sec) 
Heartbeat CPU 0 instructions: 540000000 cycles: 771817889 heartbeat IPC: 0.540806 cumulative IPC: 0.629703 (Simulation time: 0 hr 25 min 51 sec) 
Heartbeat CPU 0 instructions: 550000001 cycles: 790308969 heartbeat IPC: 0.540801 cumulative IPC: 0.627411 (Simulation time: 0 hr 26 min 16 sec) 
Heartbeat CPU 0 instructions: 560000000 cycles: 808800618 heartbeat IPC: 0.540785 cumulative IPC: 0.625234 (Simulation time: 0 hr 26 min 42 sec) 
Heartbeat CPU 0 instructions: 570000001 cycles: 827286955 heartbeat IPC: 0.54094 cumulative IPC: 0.623168 (Simulation time: 0 hr 27 min 7 sec) 
Heartbeat CPU 0 instructions: 580000000 cycles: 845711875 heartbeat IPC: 0.542743 cumulative IPC: 0.62125 (Simulation time: 0 hr 27 min 32 sec) 
Heartbeat CPU 0 instructions: 590000001 cycles: 864213527 heartbeat IPC: 0.540492 cumulative IPC: 0.619361 (Simulation time: 0 hr 27 min 57 sec) 
Heartbeat CPU 0 instructions: 600000000 cycles: 882691369 heartbeat IPC: 0.541189 cumulative IPC: 0.617577 (Simulation time: 0 hr 28 min 22 sec) 
Finished CPU 0 instructions: 500000002 cycles: 809615640 cumulative IPC: 0.617577 (Simulation time: 0 hr 28 min 22 sec) 

CPU 0 Branch Prediction Accuracy: 99.5931% MPKI: 0.08288
Number of Branches: 10184133 Number of Mispredictions: 41440
Number of LOAD Instructions: 261155957
Number of LOAD Instructions (ROI): 261155957
Number of STORE Instructions: 57884062
Number of STORE Instructions (ROI): 57884062
Total Destination Memory Operands: 83293336
Total Destination Memory Operands (ROI): 83293336
Total Source Memory Operands: 261155957
Total Source Memory Operands (ROI): 261155957
Number of DEPENDED LOADS: 22256352
Number of DEPENDED LOADS (ROI): 22256352
Number of SQ_ADDED: 83293300
Number of SQ_ADDED (ROI): 83293300
Number of LQ_ADDED: 1773334602
Number of LQ_ADDED (ROI): 1773334602
Number of Instructions read from trace: 600000257

ChampSim completed all CPUs

Region of Interest Statistics

CPU 0 cumulative IPC: 0.617577 instructions: 500000002 cycles: 809615640
ITLB TOTAL     ACCESS:   94652375  HIT:   94652337  MISS:         38
ITLB LOAD      ACCESS:   94652375  HIT:   94652337  MISS:         38
ITLB RFO       ACCESS:          0  HIT:          0  MISS:          0
ITLB PREFETCH  ACCESS:          0  HIT:          0  MISS:          0
ITLB WRITEBACK ACCESS:          0  HIT:          0  MISS:          0
ITLB PREFETCH  REQUESTED:          0  ISSUED:          0  USEFUL:          0  USELESS:          0
ITLB TOTAL MSHR MERGED:         93
ITLB LOAD MSHR MERGED:         93
ITLB RFO MSHR MERGED:          0
ITLB PREFETCH MSHR MERGED:          0
ITLB WRITEBACK MSHR MERGED:          0
ITLB TOTAL ACCESSES:   94652468 HITS:   94652337 MISSES:        131
ITLB LOAD ACCESSES:   94652468 HITS:   94652337 MISSES:        131
ITLB RFO ACCESSES:          0 HITS:          0 MISSES:          0
ITLB PREFETCH ACCESSES:          0 HITS:          0 MISSES:          0
ITLB WRITEBACK ACCESSES:          0 HITS:          0 MISSES:          0
ITLB RQ ACCESS:  500000001
ITLB RQ TO_CACHE:   94652469
ITLB RQ MERGED:  405347532
ITLB RQ FORWARD:          0
ITLB WQ ACCESS:          0
ITLB WQ TO_CACHE:          0
ITLB WQ MERGED:          0
ITLB WQ FORWARD:          0
DTLB TOTAL     ACCESS:  149170754  HIT:  148573794  MISS:     596960
DTLB LOAD      ACCESS:  107297272  HIT:  106700323  MISS:     596949
DTLB RFO       ACCESS:   41873482  HIT:   41873471  MISS:         11
DTLB PREFETCH  ACCESS:          0  HIT:          0  MISS:          0
DTLB WRITEBACK ACCESS:          0  HIT:          0  MISS:          0
DTLB PREFETCH  REQUESTED:          0  ISSUED:          0  USEFUL:          0  USELESS:          0
DTLB TOTAL MSHR MERGED:     134279
DTLB LOAD MSHR MERGED:     134279
DTLB RFO MSHR MERGED:          0
DTLB PREFETCH MSHR MERGED:          0
DTLB WRITEBACK MSHR MERGED:          0
DTLB TOTAL ACCESSES:  149305033 HITS:  148573794 MISSES:     731239
DTLB LOAD ACCESSES:  107431551 HITS:  106700323 MISSES:     731228
DTLB RFO ACCESSES:   41873482 HITS:   41873471 MISSES:         11
DTLB PREFETCH ACCESSES:          0 HITS:          0 MISSES:          0
DTLB WRITEBACK ACCESSES:          0 HITS:          0 MISSES:          0
DTLB RQ ACCESS:  259759542
DTLB RQ TO_CACHE:  149305033
DTLB RQ MERGED:  110454509
DTLB RQ FORWARD:          0
DTLB WQ ACCESS:          0
DTLB WQ TO_CACHE:          0
DTLB WQ MERGED:          0
DTLB WQ FORWARD:          0
L1D TOTAL     ACCESS:  261018499  HIT:  245621324  MISS:   15397175
L1D LOAD      ACCESS:  118063080  HIT:  112559866  MISS:    5503214
L1D RFO       ACCESS:   68946716  HIT:   68932308  MISS:      14408
L1D PREFETCH  ACCESS:   74008703  HIT:   64129150  MISS:    9879553
L1D WRITEBACK ACCESS:          0  HIT:          0  MISS:          0
L1D PREFETCH  REQUESTED:  120653074  ISSUED:  119076468  USEFUL:    8009338  USELESS:    1870237
L1D TOTAL MSHR MERGED:   16526635
L1D LOAD MSHR MERGED:    5003017
L1D RFO MSHR MERGED:      21856
L1D PREFETCH MSHR MERGED:   11501762
L1D WRITEBACK MSHR MERGED:          0
L1D TOTAL ACCESSES:  277655291 HITS:  245731481 MISSES:   31923810
L1D LOAD ACCESSES:  120660603 HITS:  112567395 MISSES:    8093208
L1D RFO ACCESSES:   68968571 HITS:   68932308 MISSES:      36263
L1D PREFETCH ACCESSES:   88026117 HITS:   64231778 MISSES:   23794339
L1D WRITEBACK ACCESSES:          0 HITS:          0 MISSES:          0
L1D RQ ACCESS:  190685226
L1D RQ TO_CACHE:  120653074
L1D RQ MERGED:   70024623
L1D RQ FORWARD:          0
L1D WQ ACCESS:   69074336
L1D WQ TO_CACHE:   68968573
L1D WQ MERGED:     105763
L1D WQ FORWARD:     110157
L1I TOTAL     ACCESS:  121567174  HIT:  121566101  MISS:       1073
L1I LOAD      ACCESS:  121567174  HIT:  121566101  MISS:       1073
L1I RFO       ACCESS:          0  HIT:          0  MISS:          0
L1I PREFETCH  ACCESS:          0  HIT:          0  MISS:          0
L1I WRITEBACK ACCESS:          0  HIT:          0  MISS:          0
L1I PREFETCH  REQUESTED:          0  ISSUED:          0  USEFUL:          0  USELESS:          0
L1I TOTAL MSHR MERGED:       1084
L1I LOAD MSHR MERGED:       1084
L1I RFO MSHR MERGED:          0
L1I PREFETCH MSHR MERGED:          0
L1I WRITEBACK MSHR MERGED:          0
L1I TOTAL ACCESSES:  121568258 HITS:  121566101 MISSES:       2157
L1I LOAD ACCESSES:  121568258 HITS:  121566101 MISSES:       2157
L1I RFO ACCESSES:          0 HITS:          0 MISSES:          0
L1I PREFETCH ACCESSES:          0 HITS:          0 MISSES:          0
L1I WRITEBACK ACCESSES:          0 HITS:          0 MISSES:          0
L1I RQ ACCESS:  500000000
L1I RQ TO_CACHE:  121568258
L1I RQ MERGED:  378431742
L1I RQ FORWARD:          0
L1I WQ ACCESS:          0
L1I WQ TO_CACHE:          0
L1I WQ MERGED:          0
L1I WQ FORWARD:          0
L2C TOTAL     ACCESS:   22468962  HIT:    9150468  MISS:   13318494
L2C LOAD      ACCESS:    3091230  HIT:     416468  MISS:    2674762
L2C RFO       ACCESS:      14407  HIT:      13992  MISS:        415
L2C PREFETCH  ACCESS:   12733387  HIT:    2091918  MISS:   10641469
L2C WRITEBACK ACCESS:    6629938  HIT:    6628090  MISS:       1848
L2C PREFETCH  REQUESTED:     694217  ISSUED:     694217  USEFUL:     185882  USELESS:   10456381
L2C TOTAL MSHR MERGED:      71748
L2C LOAD MSHR MERGED:      22538
L2C RFO MSHR MERGED:          0
L2C PREFETCH MSHR MERGED:      49210
L2C WRITEBACK MSHR MERGED:          0
L2C TOTAL ACCESSES:   22682461 HITS:    9150516 MISSES:   13531945
L2C LOAD ACCESSES:    3091264 HITS:     416502 MISSES:    2674762
L2C RFO ACCESSES:      14407 HITS:      13992 MISSES:        415
L2C PREFETCH ACCESSES:   12946852 HITS:    2091932 MISSES:   10854920
L2C WRITEBACK ACCESSES:    6629938 HITS:    6628090 MISSES:       1848
L2C RQ ACCESS:    3105671
L2C RQ TO_CACHE:    3105637
L2C RQ MERGED:          0
L2C RQ FORWARD:          0
L2C WQ ACCESS:    6629938
L2C WQ TO_CACHE:    6629938
L2C WQ MERGED:          0
L2C WQ FORWARD:         48
LLC TOTAL     ACCESS:   20026793  HIT:    1957053  MISS:   18069740
LLC LOAD      ACCESS:    2652224  HIT:     414641  MISS:    2237583
LLC RFO       ACCESS:        415  HIT:         19  MISS:        396
LLC PREFETCH  ACCESS:   10782854  HIT:     111222  MISS:   10671632
LLC WRITEBACK ACCESS:    6591300  HIT:    1431171  MISS:    5160129
LLC PREFETCH  REQUESTED:          0  ISSUED:          0  USEFUL:      46703  USELESS:   10626018
LLC TOTAL MSHR MERGED:      21384
LLC LOAD MSHR MERGED:       9843
LLC RFO MSHR MERGED:          0
LLC PREFETCH MSHR MERGED:      11541
LLC WRITEBACK MSHR MERGED:          0
LLC TOTAL ACCESSES:   20048179 HITS:    1957054 MISSES:   18091125
LLC LOAD ACCESSES:    2652224 HITS:     414641 MISSES:    2237583
LLC RFO ACCESSES:        415 HITS:         19 MISSES:        396
LLC PREFETCH ACCESSES:   10804240 HITS:     111223 MISSES:   10693017
LLC WRITEBACK ACCESSES:    6591300 HITS:    1431171 MISSES:    5160129
LLC 0 RQ ACCESS:    2652639
LLC 0 RQ TO_CACHE:    2652639
LLC 0 RQ MERGED:          0
LLC 0 RQ FORWARD:          0
LLC WQ ACCESS:    6591301
LLC WQ TO_CACHE:    6591301
LLC WQ MERGED:          0
LLC WQ FORWARD:          1
Major fault: 0 Minor fault: 183991
CPU 0 L1D next line prefetcher final stats
CPU 0 L2C PC-based stride prefetcher final stats
All Misses: 20938418
All Hits: 2019421
SD Algo Stats - Switches: 0 SRR-Repls: 2298861 BRR-Repls: 0

DRAM Statistics
 CHANNEL 0
 RQ ROW_BUFFER_HIT:    7166332  ROW_BUFFER_MISS:    5743278
 DBUS_CONGESTED:   11427502
 WQ ROW_BUFFER_HIT:    1144673  ROW_BUFFER_MISS:    5442345  FULL:          0

 AVG_CONGESTED_CYCLE: 13
LOADS RETIRED: 204440772
INSTR RETIRED: 500000000
