
*** ChampSim Multicore Out-of-Order Simulator ***

Warmup Instructions: 100000000
Simulation Instructions: 500000000
Number of CPUs: 1
LLC sets: 2048
LLC ways: 16
Clean RRIP Policies: 1013030110130301 Dirty RRIP Policies: 2013130120131301 PSEL Width: 10 Track Set: 4294967295 PSEL Mask: 1 Demote Mask: 3030201030302010DS Algo: 0Window size: 0
Off-chip DRAM Size: 4096 MB Channels: 1 Width: 64-bit Data Rate: 1600 MT/s

CPU 0 runs /mnt/beegfs/iconst01/spec2017/Parest.trace.gz
NOT SORTED
TRACE STRING: /mnt/beegfs/iconst01/spec2017/Parest.trace.gz
SORTED
TRACE STRING: /mnt/beegfs/iconst01/spec2017/Parest.trace.gz
INITIAL
TRACE STRING: /mnt/beegfs/iconst01/spec2017/Parest.trace.gz

champsim_seed used: 623

CPU 0 L1D next line prefetcher
CPU 0 L2C IP-based stride prefetcher
Initialize DRRIP state
Assign rand_sets[0]: 454  LLC: 2048
rand_sets[0]: 454
Assign rand_sets[1]: 1662  LLC: 2048
rand_sets[1]: 1662
Assign rand_sets[2]: 1921  LLC: 2048
rand_sets[2]: 1921
Assign rand_sets[3]: 1131  LLC: 2048
rand_sets[3]: 1131
Assign rand_sets[4]: 331  LLC: 2048
rand_sets[4]: 331
Assign rand_sets[5]: 1531  LLC: 2048
rand_sets[5]: 1531
Assign rand_sets[6]: 482  LLC: 2048
rand_sets[6]: 482
Assign rand_sets[7]: 1275  LLC: 2048
rand_sets[7]: 1275
Assign rand_sets[8]: 1876  LLC: 2048
rand_sets[8]: 1876
Assign rand_sets[9]: 2038  LLC: 2048
rand_sets[9]: 2038
Assign rand_sets[10]: 701  LLC: 2048
rand_sets[10]: 701
Assign rand_sets[11]: 479  LLC: 2048
rand_sets[11]: 479
Assign rand_sets[12]: 892  LLC: 2048
rand_sets[12]: 892
Assign rand_sets[13]: 1820  LLC: 2048
rand_sets[13]: 1820
Assign rand_sets[14]: 1505  LLC: 2048
rand_sets[14]: 1505
Assign rand_sets[15]: 1159  LLC: 2048
rand_sets[15]: 1159
Assign rand_sets[16]: 513  LLC: 2048
rand_sets[16]: 513
Assign rand_sets[17]: 703  LLC: 2048
rand_sets[17]: 703
Assign rand_sets[18]: 561  LLC: 2048
rand_sets[18]: 561
Assign rand_sets[19]: 990  LLC: 2048
rand_sets[19]: 990
Assign rand_sets[20]: 342  LLC: 2048
rand_sets[20]: 342
Assign rand_sets[21]: 882  LLC: 2048
rand_sets[21]: 882
Assign rand_sets[22]: 15  LLC: 2048
rand_sets[22]: 15
Assign rand_sets[23]: 71  LLC: 2048
rand_sets[23]: 71
Assign rand_sets[24]: 1127  LLC: 2048
rand_sets[24]: 1127
Assign rand_sets[25]: 1382  LLC: 2048
rand_sets[25]: 1382
Assign rand_sets[26]: 647  LLC: 2048
rand_sets[26]: 647
Assign rand_sets[27]: 857  LLC: 2048
rand_sets[27]: 857
Assign rand_sets[28]: 1450  LLC: 2048
rand_sets[28]: 1450
Assign rand_sets[29]: 1160  LLC: 2048
rand_sets[29]: 1160
Assign rand_sets[30]: 1852  LLC: 2048
rand_sets[30]: 1852
Assign rand_sets[31]: 1881  LLC: 2048
rand_sets[31]: 1881
Assign rand_sets[32]: 1770  LLC: 2048
rand_sets[32]: 1770
Assign rand_sets[33]: 1622  LLC: 2048
rand_sets[33]: 1622
Assign rand_sets[34]: 275  LLC: 2048
rand_sets[34]: 275
Assign rand_sets[35]: 635  LLC: 2048
rand_sets[35]: 635
Assign rand_sets[36]: 466  LLC: 2048
rand_sets[36]: 466
Assign rand_sets[37]: 1413  LLC: 2048
rand_sets[37]: 1413
Assign rand_sets[38]: 417  LLC: 2048
rand_sets[38]: 417
Assign rand_sets[39]: 472  LLC: 2048
rand_sets[39]: 472
Assign rand_sets[40]: 1340  LLC: 2048
rand_sets[40]: 1340
Assign rand_sets[41]: 852  LLC: 2048
rand_sets[41]: 852
Assign rand_sets[42]: 1365  LLC: 2048
rand_sets[42]: 1365
Assign rand_sets[43]: 47  LLC: 2048
rand_sets[43]: 47
Assign rand_sets[44]: 823  LLC: 2048
rand_sets[44]: 823
Assign rand_sets[45]: 686  LLC: 2048
rand_sets[45]: 686
Assign rand_sets[46]: 1637  LLC: 2048
rand_sets[46]: 1637
Assign rand_sets[47]: 1115  LLC: 2048
rand_sets[47]: 1115
Assign rand_sets[48]: 986  LLC: 2048
rand_sets[48]: 986
Assign rand_sets[49]: 258  LLC: 2048
rand_sets[49]: 258
Assign rand_sets[50]: 633  LLC: 2048
rand_sets[50]: 633
Assign rand_sets[51]: 920  LLC: 2048
rand_sets[51]: 920
Assign rand_sets[52]: 204  LLC: 2048
rand_sets[52]: 204
Assign rand_sets[53]: 227  LLC: 2048
rand_sets[53]: 227
Assign rand_sets[54]: 1818  LLC: 2048
rand_sets[54]: 1818
Assign rand_sets[55]: 886  LLC: 2048
rand_sets[55]: 886
Assign rand_sets[56]: 1422  LLC: 2048
rand_sets[56]: 1422
Assign rand_sets[57]: 607  LLC: 2048
rand_sets[57]: 607
Assign rand_sets[58]: 217  LLC: 2048
rand_sets[58]: 217
Assign rand_sets[59]: 1945  LLC: 2048
rand_sets[59]: 1945
Assign rand_sets[60]: 143  LLC: 2048
rand_sets[60]: 143
Assign rand_sets[61]: 1311  LLC: 2048
rand_sets[61]: 1311
Assign rand_sets[62]: 319  LLC: 2048
rand_sets[62]: 319
Assign rand_sets[63]: 1846  LLC: 2048
rand_sets[63]: 1846
 CLEAN-RRIP-POLICY-1: 1-0-1-3-0-3-0-1- CLEAN-RRIP-POLICY-2: 1-0-1-3-0-3-0-1-
 DIRTY-RRIP-POLICY-1: 2-0-1-3-1-3-0-1- DIRTY-RRIP-POLICY-2: 2-0-1-3-1-3-0-1-
 PSEL width: 10
Heartbeat CPU 0 instructions: 10000001 cycles: 4387120 heartbeat IPC: 2.2794 cumulative IPC: 2.2794 (Simulation time: 0 hr 0 min 15 sec) 
Heartbeat CPU 0 instructions: 20000000 cycles: 8781243 heartbeat IPC: 2.27577 cumulative IPC: 2.27758 (Simulation time: 0 hr 0 min 29 sec) 
Heartbeat CPU 0 instructions: 30000003 cycles: 13213183 heartbeat IPC: 2.25635 cumulative IPC: 2.27046 (Simulation time: 0 hr 0 min 44 sec) 
Heartbeat CPU 0 instructions: 40000000 cycles: 17643752 heartbeat IPC: 2.25705 cumulative IPC: 2.26709 (Simulation time: 0 hr 0 min 58 sec) 
Heartbeat CPU 0 instructions: 50000000 cycles: 22051944 heartbeat IPC: 2.2685 cumulative IPC: 2.26737 (Simulation time: 0 hr 1 min 12 sec) 
Heartbeat CPU 0 instructions: 60000000 cycles: 26457629 heartbeat IPC: 2.26979 cumulative IPC: 2.26778 (Simulation time: 0 hr 1 min 27 sec) 
Heartbeat CPU 0 instructions: 70000000 cycles: 30858443 heartbeat IPC: 2.27231 cumulative IPC: 2.26842 (Simulation time: 0 hr 1 min 42 sec) 
Heartbeat CPU 0 instructions: 80000000 cycles: 35254004 heartbeat IPC: 2.27502 cumulative IPC: 2.26925 (Simulation time: 0 hr 1 min 57 sec) 
Heartbeat CPU 0 instructions: 90000000 cycles: 39648264 heartbeat IPC: 2.2757 cumulative IPC: 2.26996 (Simulation time: 0 hr 2 min 12 sec) 
Heartbeat CPU 0 instructions: 100000000 cycles: 44045571 heartbeat IPC: 2.27412 cumulative IPC: 2.27038 (Simulation time: 0 hr 2 min 26 sec) 

Warmup complete CPU 0 instructions: 100000002 cycles: 44045581 (Simulation time: 0 hr 2 min 26 sec) 

Heartbeat CPU 0 instructions: 110000000 cycles: 54213556 heartbeat IPC: 0.983479 cumulative IPC: 0.98348 (Simulation time: 0 hr 2 min 45 sec) 
Heartbeat CPU 0 instructions: 120000000 cycles: 63598941 heartbeat IPC: 1.06549 cumulative IPC: 1.02284 (Simulation time: 0 hr 3 min 4 sec) 
Heartbeat CPU 0 instructions: 130000000 cycles: 72997673 heartbeat IPC: 1.06397 cumulative IPC: 1.03619 (Simulation time: 0 hr 3 min 23 sec) 
Heartbeat CPU 0 instructions: 140000000 cycles: 82612222 heartbeat IPC: 1.04009 cumulative IPC: 1.03717 (Simulation time: 0 hr 3 min 42 sec) 
Heartbeat CPU 0 instructions: 150000000 cycles: 93597533 heartbeat IPC: 0.910307 cumulative IPC: 1.00904 (Simulation time: 0 hr 4 min 1 sec) 
Heartbeat CPU 0 instructions: 160000000 cycles: 103640785 heartbeat IPC: 0.995693 cumulative IPC: 1.00679 (Simulation time: 0 hr 4 min 19 sec) 
Heartbeat CPU 0 instructions: 170000003 cycles: 113580205 heartbeat IPC: 1.0061 cumulative IPC: 1.00669 (Simulation time: 0 hr 4 min 38 sec) 
Heartbeat CPU 0 instructions: 180000000 cycles: 123481705 heartbeat IPC: 1.00995 cumulative IPC: 1.0071 (Simulation time: 0 hr 4 min 57 sec) 
Heartbeat CPU 0 instructions: 190000002 cycles: 133536456 heartbeat IPC: 0.994555 cumulative IPC: 1.00569 (Simulation time: 0 hr 5 min 16 sec) 
Heartbeat CPU 0 instructions: 200000000 cycles: 143162053 heartbeat IPC: 1.0389 cumulative IPC: 1.00891 (Simulation time: 0 hr 5 min 34 sec) 
Heartbeat CPU 0 instructions: 210000000 cycles: 153113377 heartbeat IPC: 1.00489 cumulative IPC: 1.00855 (Simulation time: 0 hr 5 min 53 sec) 
Heartbeat CPU 0 instructions: 220000000 cycles: 162567108 heartbeat IPC: 1.05778 cumulative IPC: 1.01247 (Simulation time: 0 hr 6 min 12 sec) 
Heartbeat CPU 0 instructions: 230000001 cycles: 174721480 heartbeat IPC: 0.822749 cumulative IPC: 0.994828 (Simulation time: 0 hr 6 min 32 sec) 
Heartbeat CPU 0 instructions: 240000000 cycles: 185182559 heartbeat IPC: 0.955924 cumulative IPC: 0.991944 (Simulation time: 0 hr 6 min 51 sec) 
Heartbeat CPU 0 instructions: 250000002 cycles: 195115652 heartbeat IPC: 1.00674 cumulative IPC: 0.992917 (Simulation time: 0 hr 7 min 10 sec) 
Heartbeat CPU 0 instructions: 260000000 cycles: 204867084 heartbeat IPC: 1.02549 cumulative IPC: 0.994892 (Simulation time: 0 hr 7 min 29 sec) 
Heartbeat CPU 0 instructions: 270000001 cycles: 214524981 heartbeat IPC: 1.03542 cumulative IPC: 0.997188 (Simulation time: 0 hr 7 min 47 sec) 
Heartbeat CPU 0 instructions: 280000000 cycles: 224454799 heartbeat IPC: 1.00707 cumulative IPC: 0.997732 (Simulation time: 0 hr 8 min 6 sec) 
Heartbeat CPU 0 instructions: 290000002 cycles: 233921253 heartbeat IPC: 1.05636 cumulative IPC: 1.00065 (Simulation time: 0 hr 8 min 25 sec) 
Heartbeat CPU 0 instructions: 300000000 cycles: 243752165 heartbeat IPC: 1.0172 cumulative IPC: 1.00147 (Simulation time: 0 hr 8 min 43 sec) 
Heartbeat CPU 0 instructions: 310000000 cycles: 253175693 heartbeat IPC: 1.06117 cumulative IPC: 1.00416 (Simulation time: 0 hr 9 min 2 sec) 
Heartbeat CPU 0 instructions: 320000000 cycles: 262643568 heartbeat IPC: 1.0562 cumulative IPC: 1.00641 (Simulation time: 0 hr 9 min 21 sec) 
Heartbeat CPU 0 instructions: 330000003 cycles: 272217120 heartbeat IPC: 1.04454 cumulative IPC: 1.00801 (Simulation time: 0 hr 9 min 40 sec) 
Heartbeat CPU 0 instructions: 340000000 cycles: 282311977 heartbeat IPC: 0.990603 cumulative IPC: 1.00728 (Simulation time: 0 hr 9 min 59 sec) 
Heartbeat CPU 0 instructions: 350000000 cycles: 292496881 heartbeat IPC: 0.981845 cumulative IPC: 1.00623 (Simulation time: 0 hr 10 min 17 sec) 
Heartbeat CPU 0 instructions: 360000000 cycles: 302309790 heartbeat IPC: 1.01907 cumulative IPC: 1.00672 (Simulation time: 0 hr 10 min 36 sec) 
Heartbeat CPU 0 instructions: 370000000 cycles: 311996119 heartbeat IPC: 1.03238 cumulative IPC: 1.00765 (Simulation time: 0 hr 10 min 54 sec) 
Heartbeat CPU 0 instructions: 380000000 cycles: 321647459 heartbeat IPC: 1.03613 cumulative IPC: 1.00864 (Simulation time: 0 hr 11 min 13 sec) 
Heartbeat CPU 0 instructions: 390000002 cycles: 331128646 heartbeat IPC: 1.05472 cumulative IPC: 1.01016 (Simulation time: 0 hr 11 min 32 sec) 
Heartbeat CPU 0 instructions: 400000000 cycles: 340956206 heartbeat IPC: 1.01755 cumulative IPC: 1.01041 (Simulation time: 0 hr 11 min 50 sec) 
Heartbeat CPU 0 instructions: 410000000 cycles: 350333671 heartbeat IPC: 1.06639 cumulative IPC: 1.01212 (Simulation time: 0 hr 12 min 9 sec) 
Heartbeat CPU 0 instructions: 420000000 cycles: 361378292 heartbeat IPC: 0.905418 cumulative IPC: 1.00841 (Simulation time: 0 hr 12 min 28 sec) 
Heartbeat CPU 0 instructions: 430000000 cycles: 372154591 heartbeat IPC: 0.927962 cumulative IPC: 1.00576 (Simulation time: 0 hr 12 min 47 sec) 
Heartbeat CPU 0 instructions: 440000000 cycles: 382139759 heartbeat IPC: 1.00149 cumulative IPC: 1.00564 (Simulation time: 0 hr 13 min 5 sec) 
Heartbeat CPU 0 instructions: 450000000 cycles: 392081901 heartbeat IPC: 1.00582 cumulative IPC: 1.00564 (Simulation time: 0 hr 13 min 24 sec) 
Heartbeat CPU 0 instructions: 460000000 cycles: 402019583 heartbeat IPC: 1.00627 cumulative IPC: 1.00566 (Simulation time: 0 hr 13 min 42 sec) 
Heartbeat CPU 0 instructions: 470000001 cycles: 412028474 heartbeat IPC: 0.999112 cumulative IPC: 1.00548 (Simulation time: 0 hr 14 min 1 sec) 
Heartbeat CPU 0 instructions: 480000000 cycles: 421604375 heartbeat IPC: 1.04429 cumulative IPC: 1.00647 (Simulation time: 0 hr 14 min 19 sec) 
Heartbeat CPU 0 instructions: 490000000 cycles: 431565992 heartbeat IPC: 1.00385 cumulative IPC: 1.0064 (Simulation time: 0 hr 14 min 38 sec) 
Heartbeat CPU 0 instructions: 500000000 cycles: 441235638 heartbeat IPC: 1.03416 cumulative IPC: 1.00707 (Simulation time: 0 hr 14 min 56 sec) 
Heartbeat CPU 0 instructions: 510000000 cycles: 450705794 heartbeat IPC: 1.05595 cumulative IPC: 1.00821 (Simulation time: 0 hr 15 min 15 sec) 
Heartbeat CPU 0 instructions: 520000000 cycles: 460367098 heartbeat IPC: 1.03506 cumulative IPC: 1.00884 (Simulation time: 0 hr 15 min 33 sec) 
Heartbeat CPU 0 instructions: 530000001 cycles: 470703093 heartbeat IPC: 0.967493 cumulative IPC: 1.00783 (Simulation time: 0 hr 15 min 52 sec) 
Heartbeat CPU 0 instructions: 540000000 cycles: 481063156 heartbeat IPC: 0.965245 cumulative IPC: 1.00682 (Simulation time: 0 hr 16 min 10 sec) 
Heartbeat CPU 0 instructions: 550000003 cycles: 491088623 heartbeat IPC: 0.99746 cumulative IPC: 1.00661 (Simulation time: 0 hr 16 min 28 sec) 
Heartbeat CPU 0 instructions: 560000000 cycles: 500960681 heartbeat IPC: 1.01296 cumulative IPC: 1.00675 (Simulation time: 0 hr 16 min 47 sec) 
Heartbeat CPU 0 instructions: 570000002 cycles: 510768586 heartbeat IPC: 1.01959 cumulative IPC: 1.00702 (Simulation time: 0 hr 17 min 5 sec) 
Heartbeat CPU 0 instructions: 580000000 cycles: 520432487 heartbeat IPC: 1.03478 cumulative IPC: 1.00758 (Simulation time: 0 hr 17 min 23 sec) 
Heartbeat CPU 0 instructions: 590000002 cycles: 530380714 heartbeat IPC: 1.0052 cumulative IPC: 1.00754 (Simulation time: 0 hr 17 min 41 sec) 
Heartbeat CPU 0 instructions: 600000000 cycles: 539998014 heartbeat IPC: 1.03979 cumulative IPC: 1.00816 (Simulation time: 0 hr 17 min 59 sec) 
Finished CPU 0 instructions: 500000000 cycles: 495952447 cumulative IPC: 1.00816 (Simulation time: 0 hr 17 min 59 sec) 

CPU 0 Branch Prediction Accuracy: 97.8526% MPKI: 2.66709
Number of Branches: 62099103 Number of Mispredictions: 1333545
Number of LOAD Instructions: 210576465
Number of LOAD Instructions (ROI): 210576465
Number of STORE Instructions: 16915507
Number of STORE Instructions (ROI): 16915507
Total Destination Memory Operands: 16918869
Total Destination Memory Operands (ROI): 16918869
Total Source Memory Operands: 210576465
Total Source Memory Operands (ROI): 210576465
Number of DEPENDED LOADS: 345144
Number of DEPENDED LOADS (ROI): 345144
Number of SQ_ADDED: 16918826
Number of SQ_ADDED (ROI): 16918826
Number of LQ_ADDED: 210609372
Number of LQ_ADDED (ROI): 210609372
Number of Instructions read from trace: 600000257

ChampSim completed all CPUs

Region of Interest Statistics

CPU 0 cumulative IPC: 1.00816 instructions: 500000000 cycles: 495952447
ITLB TOTAL     ACCESS:   76280930  HIT:   76280892  MISS:         38
ITLB LOAD      ACCESS:   76280930  HIT:   76280892  MISS:         38
ITLB RFO       ACCESS:          0  HIT:          0  MISS:          0
ITLB PREFETCH  ACCESS:          0  HIT:          0  MISS:          0
ITLB WRITEBACK ACCESS:          0  HIT:          0  MISS:          0
ITLB PREFETCH  REQUESTED:          0  ISSUED:          0  USEFUL:          0  USELESS:          0
ITLB TOTAL MSHR MERGED:         37
ITLB LOAD MSHR MERGED:         37
ITLB RFO MSHR MERGED:          0
ITLB PREFETCH MSHR MERGED:          0
ITLB WRITEBACK MSHR MERGED:          0
ITLB TOTAL ACCESSES:   76280967 HITS:   76280892 MISSES:         75
ITLB LOAD ACCESSES:   76280967 HITS:   76280892 MISSES:         75
ITLB RFO ACCESSES:          0 HITS:          0 MISSES:          0
ITLB PREFETCH ACCESSES:          0 HITS:          0 MISSES:          0
ITLB WRITEBACK ACCESSES:          0 HITS:          0 MISSES:          0
ITLB RQ ACCESS:  500000188
ITLB RQ TO_CACHE:   76280968
ITLB RQ MERGED:  423719220
ITLB RQ FORWARD:          0
ITLB WQ ACCESS:          0
ITLB WQ TO_CACHE:          0
ITLB WQ MERGED:          0
ITLB WQ FORWARD:          0
DTLB TOTAL     ACCESS:  136821270  HIT:  136618473  MISS:     202797
DTLB LOAD      ACCESS:  128759343  HIT:  128559267  MISS:     200076
DTLB RFO       ACCESS:    8061927  HIT:    8059206  MISS:       2721
DTLB PREFETCH  ACCESS:          0  HIT:          0  MISS:          0
DTLB WRITEBACK ACCESS:          0  HIT:          0  MISS:          0
DTLB PREFETCH  REQUESTED:          0  ISSUED:          0  USEFUL:          0  USELESS:          0
DTLB TOTAL MSHR MERGED:     448111
DTLB LOAD MSHR MERGED:     444374
DTLB RFO MSHR MERGED:       3737
DTLB PREFETCH MSHR MERGED:          0
DTLB WRITEBACK MSHR MERGED:          0
DTLB TOTAL ACCESSES:  137269381 HITS:  136618473 MISSES:     650908
DTLB LOAD ACCESSES:  129203717 HITS:  128559267 MISSES:     644450
DTLB RFO ACCESSES:    8065664 HITS:    8059206 MISSES:       6458
DTLB PREFETCH ACCESSES:          0 HITS:          0 MISSES:          0
DTLB WRITEBACK ACCESSES:          0 HITS:          0 MISSES:          0
DTLB RQ ACCESS:  189419423
DTLB RQ TO_CACHE:  137269381
DTLB RQ MERGED:   52150042
DTLB RQ FORWARD:          0
DTLB WQ ACCESS:          0
DTLB WQ TO_CACHE:          0
DTLB WQ MERGED:          0
DTLB WQ FORWARD:          0
L1D TOTAL     ACCESS:  125442671  HIT:  107885818  MISS:   17556853
L1D LOAD      ACCESS:   72331048  HIT:   62067165  MISS:   10263883
L1D RFO       ACCESS:   14016266  HIT:   13863436  MISS:     152830
L1D PREFETCH  ACCESS:   39095357  HIT:   31955217  MISS:    7140140
L1D WRITEBACK ACCESS:          0  HIT:          0  MISS:          0
L1D PREFETCH  REQUESTED:   85541051  ISSUED:   84219716  USEFUL:    5880865  USELESS:    1259286
L1D TOTAL MSHR MERGED:   31491980
L1D LOAD MSHR MERGED:   18367898
L1D RFO MSHR MERGED:     264594
L1D PREFETCH MSHR MERGED:   12859488
L1D WRITEBACK MSHR MERGED:          0
L1D TOTAL ACCESSES:  156935166 HITS:  107886334 MISSES:   49048832
L1D LOAD ACCESSES:   85541065 HITS:   62067179 MISSES:   23473886
L1D RFO ACCESSES:   14280835 HITS:   13863436 MISSES:     417399
L1D PREFETCH ACCESSES:   57113266 HITS:   31955719 MISSES:   25157547
L1D WRITEBACK ACCESSES:          0 HITS:          0 MISSES:          0
L1D RQ ACCESS:  175130401
L1D RQ TO_CACHE:   85541051
L1D RQ MERGED:   89589336
L1D RQ FORWARD:          0
L1D WQ ACCESS:   14289037
L1D WQ TO_CACHE:   14280835
L1D WQ MERGED:       8202
L1D WQ FORWARD:        516
L1I TOTAL     ACCESS:   93305780  HIT:   93303984  MISS:       1796
L1I LOAD      ACCESS:   93305780  HIT:   93303984  MISS:       1796
L1I RFO       ACCESS:          0  HIT:          0  MISS:          0
L1I PREFETCH  ACCESS:          0  HIT:          0  MISS:          0
L1I WRITEBACK ACCESS:          0  HIT:          0  MISS:          0
L1I PREFETCH  REQUESTED:          0  ISSUED:          0  USEFUL:          0  USELESS:          0
L1I TOTAL MSHR MERGED:       2315
L1I LOAD MSHR MERGED:       2315
L1I RFO MSHR MERGED:          0
L1I PREFETCH MSHR MERGED:          0
L1I WRITEBACK MSHR MERGED:          0
L1I TOTAL ACCESSES:   93308095 HITS:   93303984 MISSES:       4111
L1I LOAD ACCESSES:   93308095 HITS:   93303984 MISSES:       4111
L1I RFO ACCESSES:          0 HITS:          0 MISSES:          0
L1I PREFETCH ACCESSES:          0 HITS:          0 MISSES:          0
L1I WRITEBACK ACCESSES:          0 HITS:          0 MISSES:          0
L1I RQ ACCESS:  500000187
L1I RQ TO_CACHE:   93308095
L1I RQ MERGED:  406692092
L1I RQ FORWARD:          0
L1I WQ ACCESS:          0
L1I WQ TO_CACHE:          0
L1I WQ MERGED:          0
L1I WQ FORWARD:          0
L2C TOTAL     ACCESS:   20895723  HIT:    8666506  MISS:   12229217
L2C LOAD      ACCESS:    5107759  HIT:    2141529  MISS:    2966230
L2C RFO       ACCESS:     152805  HIT:       6503  MISS:     146302
L2C PREFETCH  ACCESS:   13862405  HIT:    4745830  MISS:    9116575
L2C WRITEBACK ACCESS:    1772754  HIT:    1772644  MISS:        110
L2C PREFETCH  REQUESTED:    1801066  ISSUED:    1801066  USEFUL:    1067590  USELESS:    8050607
L2C TOTAL MSHR MERGED:      96777
L2C LOAD MSHR MERGED:      22236
L2C RFO MSHR MERGED:          0
L2C PREFETCH MSHR MERGED:      74541
L2C WRITEBACK MSHR MERGED:          0
L2C TOTAL ACCESSES:   21013792 HITS:    8666547 MISSES:   12347245
L2C LOAD ACCESSES:    5107784 HITS:    2141554 MISSES:    2966230
L2C RFO ACCESSES:     152805 HITS:       6503 MISSES:     146302
L2C PREFETCH ACCESSES:   13980449 HITS:    4745846 MISSES:    9234603
L2C WRITEBACK ACCESSES:    1772754 HITS:    1772644 MISSES:        110
L2C RQ ACCESS:    5260589
L2C RQ TO_CACHE:    5260564
L2C RQ MERGED:          0
L2C RQ FORWARD:          0
L2C WQ ACCESS:    1772754
L2C WQ TO_CACHE:    1772754
L2C WQ MERGED:          0
L2C WQ FORWARD:         41
LLC TOTAL     ACCESS:   12531618  HIT:    6653083  MISS:    5878535
LLC LOAD      ACCESS:    2943977  HIT:    2448774  MISS:     495203
LLC RFO       ACCESS:     146302  HIT:      81809  MISS:      64493
LLC PREFETCH  ACCESS:    9155359  HIT:    3890363  MISS:    5264996
LLC WRITEBACK ACCESS:     285980  HIT:     232137  MISS:      53843
LLC PREFETCH  REQUESTED:          0  ISSUED:          0  USEFUL:      13521  USELESS:    5251002
LLC TOTAL MSHR MERGED:       1145
LLC LOAD MSHR MERGED:        236
LLC RFO MSHR MERGED:          0
LLC PREFETCH MSHR MERGED:        909
LLC WRITEBACK MSHR MERGED:          0
LLC TOTAL ACCESSES:   12532796 HITS:    6653116 MISSES:    5879680
LLC LOAD ACCESSES:    2943994 HITS:    2448791 MISSES:     495203
LLC RFO ACCESSES:     146302 HITS:      81809 MISSES:      64493
LLC PREFETCH ACCESSES:    9156520 HITS:    3890379 MISSES:    5266141
LLC WRITEBACK ACCESSES:     285980 HITS:     232137 MISSES:      53843
LLC 0 RQ ACCESS:    3090296
LLC 0 RQ TO_CACHE:    3090279
LLC 0 RQ MERGED:          0
LLC 0 RQ FORWARD:          0
LLC WQ ACCESS:     285980
LLC WQ TO_CACHE:     285980
LLC WQ MERGED:          0
LLC WQ FORWARD:         33
Major fault: 0 Minor fault: 6524
CPU 0 L1D next line prefetcher final stats
CPU 0 L2C PC-based stride prefetcher final stats
All Misses: 7680222
All Hits: 7376409
SD Algo Stats - Switches: 0 SRR-Repls: 527986 BRR-Repls: 0

DRAM Statistics
 CHANNEL 0
 RQ ROW_BUFFER_HIT:    4990337  ROW_BUFFER_MISS:     826816
 DBUS_CONGESTED:    1995027
 WQ ROW_BUFFER_HIT:       7100  ROW_BUFFER_MISS:      80926  FULL:          0

 AVG_CONGESTED_CYCLE: 12
LOADS RETIRED: 175418235
INSTR RETIRED: 500000000
