
*** ChampSim Multicore Out-of-Order Simulator ***

Warmup Instructions: 100000000
Simulation Instructions: 500000000
Number of CPUs: 1
LLC sets: 2048
LLC ways: 16
Clean RRIP Policies: 2213230222132302 Dirty RRIP Policies: 203130202031302 PSEL Width: 10 Track Set: 4294967295 PSEL Mask: 1 Demote Mask: 1040100010401000DS Algo: 0Window size: 0
Off-chip DRAM Size: 4096 MB Channels: 1 Width: 64-bit Data Rate: 1600 MT/s

CPU 0 runs /mnt/beegfs/iconst01/spec2017/Cam4.trace.gz
NOT SORTED
TRACE STRING: /mnt/beegfs/iconst01/spec2017/Cam4.trace.gz
SORTED
TRACE STRING: /mnt/beegfs/iconst01/spec2017/Cam4.trace.gz
INITIAL
TRACE STRING: /mnt/beegfs/iconst01/spec2017/Cam4.trace.gz

champsim_seed used: 325

CPU 0 L1D next line prefetcher
CPU 0 L2C IP-based stride prefetcher
Initialize DRRIP state
Assign rand_sets[0]: 454  LLC: 2048
rand_sets[0]: 454
Assign rand_sets[1]: 1662  LLC: 2048
rand_sets[1]: 1662
Assign rand_sets[2]: 1921  LLC: 2048
rand_sets[2]: 1921
Assign rand_sets[3]: 1131  LLC: 2048
rand_sets[3]: 1131
Assign rand_sets[4]: 331  LLC: 2048
rand_sets[4]: 331
Assign rand_sets[5]: 1531  LLC: 2048
rand_sets[5]: 1531
Assign rand_sets[6]: 482  LLC: 2048
rand_sets[6]: 482
Assign rand_sets[7]: 1275  LLC: 2048
rand_sets[7]: 1275
Assign rand_sets[8]: 1876  LLC: 2048
rand_sets[8]: 1876
Assign rand_sets[9]: 2038  LLC: 2048
rand_sets[9]: 2038
Assign rand_sets[10]: 701  LLC: 2048
rand_sets[10]: 701
Assign rand_sets[11]: 479  LLC: 2048
rand_sets[11]: 479
Assign rand_sets[12]: 892  LLC: 2048
rand_sets[12]: 892
Assign rand_sets[13]: 1820  LLC: 2048
rand_sets[13]: 1820
Assign rand_sets[14]: 1505  LLC: 2048
rand_sets[14]: 1505
Assign rand_sets[15]: 1159  LLC: 2048
rand_sets[15]: 1159
Assign rand_sets[16]: 513  LLC: 2048
rand_sets[16]: 513
Assign rand_sets[17]: 703  LLC: 2048
rand_sets[17]: 703
Assign rand_sets[18]: 561  LLC: 2048
rand_sets[18]: 561
Assign rand_sets[19]: 990  LLC: 2048
rand_sets[19]: 990
Assign rand_sets[20]: 342  LLC: 2048
rand_sets[20]: 342
Assign rand_sets[21]: 882  LLC: 2048
rand_sets[21]: 882
Assign rand_sets[22]: 15  LLC: 2048
rand_sets[22]: 15
Assign rand_sets[23]: 71  LLC: 2048
rand_sets[23]: 71
Assign rand_sets[24]: 1127  LLC: 2048
rand_sets[24]: 1127
Assign rand_sets[25]: 1382  LLC: 2048
rand_sets[25]: 1382
Assign rand_sets[26]: 647  LLC: 2048
rand_sets[26]: 647
Assign rand_sets[27]: 857  LLC: 2048
rand_sets[27]: 857
Assign rand_sets[28]: 1450  LLC: 2048
rand_sets[28]: 1450
Assign rand_sets[29]: 1160  LLC: 2048
rand_sets[29]: 1160
Assign rand_sets[30]: 1852  LLC: 2048
rand_sets[30]: 1852
Assign rand_sets[31]: 1881  LLC: 2048
rand_sets[31]: 1881
Assign rand_sets[32]: 1770  LLC: 2048
rand_sets[32]: 1770
Assign rand_sets[33]: 1622  LLC: 2048
rand_sets[33]: 1622
Assign rand_sets[34]: 275  LLC: 2048
rand_sets[34]: 275
Assign rand_sets[35]: 635  LLC: 2048
rand_sets[35]: 635
Assign rand_sets[36]: 466  LLC: 2048
rand_sets[36]: 466
Assign rand_sets[37]: 1413  LLC: 2048
rand_sets[37]: 1413
Assign rand_sets[38]: 417  LLC: 2048
rand_sets[38]: 417
Assign rand_sets[39]: 472  LLC: 2048
rand_sets[39]: 472
Assign rand_sets[40]: 1340  LLC: 2048
rand_sets[40]: 1340
Assign rand_sets[41]: 852  LLC: 2048
rand_sets[41]: 852
Assign rand_sets[42]: 1365  LLC: 2048
rand_sets[42]: 1365
Assign rand_sets[43]: 47  LLC: 2048
rand_sets[43]: 47
Assign rand_sets[44]: 823  LLC: 2048
rand_sets[44]: 823
Assign rand_sets[45]: 686  LLC: 2048
rand_sets[45]: 686
Assign rand_sets[46]: 1637  LLC: 2048
rand_sets[46]: 1637
Assign rand_sets[47]: 1115  LLC: 2048
rand_sets[47]: 1115
Assign rand_sets[48]: 986  LLC: 2048
rand_sets[48]: 986
Assign rand_sets[49]: 258  LLC: 2048
rand_sets[49]: 258
Assign rand_sets[50]: 633  LLC: 2048
rand_sets[50]: 633
Assign rand_sets[51]: 920  LLC: 2048
rand_sets[51]: 920
Assign rand_sets[52]: 204  LLC: 2048
rand_sets[52]: 204
Assign rand_sets[53]: 227  LLC: 2048
rand_sets[53]: 227
Assign rand_sets[54]: 1818  LLC: 2048
rand_sets[54]: 1818
Assign rand_sets[55]: 886  LLC: 2048
rand_sets[55]: 886
Assign rand_sets[56]: 1422  LLC: 2048
rand_sets[56]: 1422
Assign rand_sets[57]: 607  LLC: 2048
rand_sets[57]: 607
Assign rand_sets[58]: 217  LLC: 2048
rand_sets[58]: 217
Assign rand_sets[59]: 1945  LLC: 2048
rand_sets[59]: 1945
Assign rand_sets[60]: 143  LLC: 2048
rand_sets[60]: 143
Assign rand_sets[61]: 1311  LLC: 2048
rand_sets[61]: 1311
Assign rand_sets[62]: 319  LLC: 2048
rand_sets[62]: 319
Assign rand_sets[63]: 1846  LLC: 2048
rand_sets[63]: 1846
 CLEAN-RRIP-POLICY-1: 2-2-1-3-2-3-0-2- CLEAN-RRIP-POLICY-2: 2-2-1-3-2-3-0-2-
 DIRTY-RRIP-POLICY-1: 0-2-0-3-1-3-0-2- DIRTY-RRIP-POLICY-2: 0-2-0-3-1-3-0-2-
 PSEL width: 10
Heartbeat CPU 0 instructions: 10000000 cycles: 4859184 heartbeat IPC: 2.05796 cumulative IPC: 2.05796 (Simulation time: 0 hr 0 min 17 sec) 
Heartbeat CPU 0 instructions: 20000000 cycles: 9790786 heartbeat IPC: 2.02774 cumulative IPC: 2.04274 (Simulation time: 0 hr 0 min 33 sec) 
Heartbeat CPU 0 instructions: 30000001 cycles: 14562953 heartbeat IPC: 2.09548 cumulative IPC: 2.06002 (Simulation time: 0 hr 0 min 48 sec) 
Heartbeat CPU 0 instructions: 40000000 cycles: 19399953 heartbeat IPC: 2.0674 cumulative IPC: 2.06186 (Simulation time: 0 hr 1 min 4 sec) 
Heartbeat CPU 0 instructions: 50000000 cycles: 24256470 heartbeat IPC: 2.05909 cumulative IPC: 2.06131 (Simulation time: 0 hr 1 min 21 sec) 
Heartbeat CPU 0 instructions: 60000000 cycles: 29181895 heartbeat IPC: 2.03028 cumulative IPC: 2.05607 (Simulation time: 0 hr 1 min 37 sec) 
Heartbeat CPU 0 instructions: 70000001 cycles: 33956974 heartbeat IPC: 2.09421 cumulative IPC: 2.06143 (Simulation time: 0 hr 1 min 52 sec) 
Heartbeat CPU 0 instructions: 80000000 cycles: 38793211 heartbeat IPC: 2.06772 cumulative IPC: 2.06222 (Simulation time: 0 hr 2 min 9 sec) 
Heartbeat CPU 0 instructions: 90000002 cycles: 43647246 heartbeat IPC: 2.06014 cumulative IPC: 2.06199 (Simulation time: 0 hr 2 min 25 sec) 
Heartbeat CPU 0 instructions: 100000000 cycles: 48566010 heartbeat IPC: 2.03303 cumulative IPC: 2.05905 (Simulation time: 0 hr 2 min 42 sec) 

Warmup complete CPU 0 instructions: 100000001 cycles: 48566011 (Simulation time: 0 hr 2 min 42 sec) 

Heartbeat CPU 0 instructions: 110000000 cycles: 61638930 heartbeat IPC: 0.76494 cumulative IPC: 0.76494 (Simulation time: 0 hr 3 min 5 sec) 
Heartbeat CPU 0 instructions: 120000000 cycles: 75388652 heartbeat IPC: 0.727287 cumulative IPC: 0.745639 (Simulation time: 0 hr 3 min 29 sec) 
Heartbeat CPU 0 instructions: 130000000 cycles: 89133364 heartbeat IPC: 0.727553 cumulative IPC: 0.739511 (Simulation time: 0 hr 3 min 54 sec) 
Heartbeat CPU 0 instructions: 140000000 cycles: 103386734 heartbeat IPC: 0.701588 cumulative IPC: 0.729651 (Simulation time: 0 hr 4 min 19 sec) 
Heartbeat CPU 0 instructions: 150000003 cycles: 116535064 heartbeat IPC: 0.760553 cumulative IPC: 0.735629 (Simulation time: 0 hr 4 min 42 sec) 
Heartbeat CPU 0 instructions: 160000000 cycles: 130281168 heartbeat IPC: 0.727479 cumulative IPC: 0.734258 (Simulation time: 0 hr 5 min 6 sec) 
Heartbeat CPU 0 instructions: 170000001 cycles: 144061561 heartbeat IPC: 0.725669 cumulative IPC: 0.733018 (Simulation time: 0 hr 5 min 31 sec) 
Heartbeat CPU 0 instructions: 180000000 cycles: 158297318 heartbeat IPC: 0.702456 cumulative IPC: 0.729054 (Simulation time: 0 hr 5 min 56 sec) 
Heartbeat CPU 0 instructions: 190000003 cycles: 171398603 heartbeat IPC: 0.763284 cumulative IPC: 0.732705 (Simulation time: 0 hr 6 min 19 sec) 
Heartbeat CPU 0 instructions: 200000000 cycles: 185142260 heartbeat IPC: 0.727608 cumulative IPC: 0.732192 (Simulation time: 0 hr 6 min 44 sec) 
Heartbeat CPU 0 instructions: 210000002 cycles: 198926144 heartbeat IPC: 0.725485 cumulative IPC: 0.731577 (Simulation time: 0 hr 7 min 8 sec) 
Heartbeat CPU 0 instructions: 220000000 cycles: 213165160 heartbeat IPC: 0.702296 cumulative IPC: 0.729044 (Simulation time: 0 hr 7 min 33 sec) 
Heartbeat CPU 0 instructions: 230000001 cycles: 226208618 heartbeat IPC: 0.766668 cumulative IPC: 0.731806 (Simulation time: 0 hr 7 min 56 sec) 
Heartbeat CPU 0 instructions: 240000000 cycles: 239943761 heartbeat IPC: 0.728059 cumulative IPC: 0.731537 (Simulation time: 0 hr 8 min 20 sec) 
Heartbeat CPU 0 instructions: 250000001 cycles: 253672167 heartbeat IPC: 0.728417 cumulative IPC: 0.731329 (Simulation time: 0 hr 8 min 45 sec) 
Heartbeat CPU 0 instructions: 260000000 cycles: 267808045 heartbeat IPC: 0.70742 cumulative IPC: 0.729787 (Simulation time: 0 hr 9 min 10 sec) 
Heartbeat CPU 0 instructions: 270000003 cycles: 280964008 heartbeat IPC: 0.760112 cumulative IPC: 0.731504 (Simulation time: 0 hr 9 min 32 sec) 
Heartbeat CPU 0 instructions: 280000000 cycles: 294712278 heartbeat IPC: 0.727364 cumulative IPC: 0.731273 (Simulation time: 0 hr 9 min 57 sec) 
Heartbeat CPU 0 instructions: 290000001 cycles: 308484103 heartbeat IPC: 0.72612 cumulative IPC: 0.731 (Simulation time: 0 hr 10 min 21 sec) 
Heartbeat CPU 0 instructions: 300000000 cycles: 322567227 heartbeat IPC: 0.71007 cumulative IPC: 0.729924 (Simulation time: 0 hr 10 min 46 sec) 
Heartbeat CPU 0 instructions: 310000000 cycles: 335742024 heartbeat IPC: 0.759025 cumulative IPC: 0.731259 (Simulation time: 0 hr 11 min 9 sec) 
Heartbeat CPU 0 instructions: 320000000 cycles: 349531249 heartbeat IPC: 0.725204 cumulative IPC: 0.730981 (Simulation time: 0 hr 11 min 33 sec) 
Heartbeat CPU 0 instructions: 330000000 cycles: 363323059 heartbeat IPC: 0.725068 cumulative IPC: 0.730722 (Simulation time: 0 hr 11 min 58 sec) 
Heartbeat CPU 0 instructions: 340000000 cycles: 377378930 heartbeat IPC: 0.711446 cumulative IPC: 0.729898 (Simulation time: 0 hr 12 min 22 sec) 
Heartbeat CPU 0 instructions: 350000000 cycles: 390596757 heartbeat IPC: 0.756554 cumulative IPC: 0.730928 (Simulation time: 0 hr 12 min 44 sec) 
Heartbeat CPU 0 instructions: 360000000 cycles: 404417656 heartbeat IPC: 0.723542 cumulative IPC: 0.730642 (Simulation time: 0 hr 13 min 8 sec) 
Heartbeat CPU 0 instructions: 370000003 cycles: 418208381 heartbeat IPC: 0.725125 cumulative IPC: 0.730436 (Simulation time: 0 hr 13 min 33 sec) 
Heartbeat CPU 0 instructions: 380000000 cycles: 432230781 heartbeat IPC: 0.713144 cumulative IPC: 0.729804 (Simulation time: 0 hr 13 min 57 sec) 
Heartbeat CPU 0 instructions: 390000003 cycles: 445447941 heartbeat IPC: 0.756592 cumulative IPC: 0.730696 (Simulation time: 0 hr 14 min 19 sec) 
Heartbeat CPU 0 instructions: 400000000 cycles: 459262890 heartbeat IPC: 0.723853 cumulative IPC: 0.730466 (Simulation time: 0 hr 14 min 44 sec) 
Heartbeat CPU 0 instructions: 410000000 cycles: 473025968 heartbeat IPC: 0.726582 cumulative IPC: 0.73034 (Simulation time: 0 hr 15 min 8 sec) 
Heartbeat CPU 0 instructions: 420000000 cycles: 487036329 heartbeat IPC: 0.713757 cumulative IPC: 0.72981 (Simulation time: 0 hr 15 min 32 sec) 
Heartbeat CPU 0 instructions: 430000003 cycles: 500276224 heartbeat IPC: 0.755293 cumulative IPC: 0.730557 (Simulation time: 0 hr 15 min 54 sec) 
Heartbeat CPU 0 instructions: 440000000 cycles: 514092928 heartbeat IPC: 0.723761 cumulative IPC: 0.730355 (Simulation time: 0 hr 16 min 18 sec) 
Heartbeat CPU 0 instructions: 450000000 cycles: 527876061 heartbeat IPC: 0.725524 cumulative IPC: 0.730216 (Simulation time: 0 hr 16 min 42 sec) 
Heartbeat CPU 0 instructions: 460000000 cycles: 541869880 heartbeat IPC: 0.714601 cumulative IPC: 0.729773 (Simulation time: 0 hr 17 min 6 sec) 
Heartbeat CPU 0 instructions: 470000001 cycles: 555093090 heartbeat IPC: 0.756246 cumulative IPC: 0.730464 (Simulation time: 0 hr 17 min 28 sec) 
Heartbeat CPU 0 instructions: 480000000 cycles: 568880822 heartbeat IPC: 0.725282 cumulative IPC: 0.730327 (Simulation time: 0 hr 17 min 52 sec) 
Heartbeat CPU 0 instructions: 490000002 cycles: 582635972 heartbeat IPC: 0.727001 cumulative IPC: 0.730241 (Simulation time: 0 hr 18 min 16 sec) 
Heartbeat CPU 0 instructions: 500000000 cycles: 596626236 heartbeat IPC: 0.714783 cumulative IPC: 0.729847 (Simulation time: 0 hr 18 min 40 sec) 
Heartbeat CPU 0 instructions: 510000002 cycles: 609876507 heartbeat IPC: 0.754702 cumulative IPC: 0.730434 (Simulation time: 0 hr 19 min 2 sec) 
Heartbeat CPU 0 instructions: 520000000 cycles: 623650368 heartbeat IPC: 0.726013 cumulative IPC: 0.730328 (Simulation time: 0 hr 19 min 26 sec) 
Heartbeat CPU 0 instructions: 530000003 cycles: 637384399 heartbeat IPC: 0.728119 cumulative IPC: 0.730276 (Simulation time: 0 hr 19 min 50 sec) 
Heartbeat CPU 0 instructions: 540000000 cycles: 651396900 heartbeat IPC: 0.713648 cumulative IPC: 0.72989 (Simulation time: 0 hr 20 min 14 sec) 
Heartbeat CPU 0 instructions: 550000003 cycles: 664640752 heartbeat IPC: 0.755068 cumulative IPC: 0.730431 (Simulation time: 0 hr 20 min 36 sec) 
Heartbeat CPU 0 instructions: 560000000 cycles: 678391525 heartbeat IPC: 0.727232 cumulative IPC: 0.730361 (Simulation time: 0 hr 21 min 0 sec) 
Heartbeat CPU 0 instructions: 570000001 cycles: 692156191 heartbeat IPC: 0.726498 cumulative IPC: 0.730278 (Simulation time: 0 hr 21 min 24 sec) 
Heartbeat CPU 0 instructions: 580000000 cycles: 706191988 heartbeat IPC: 0.712464 cumulative IPC: 0.729898 (Simulation time: 0 hr 21 min 48 sec) 
Heartbeat CPU 0 instructions: 590000000 cycles: 719371246 heartbeat IPC: 0.758768 cumulative IPC: 0.730465 (Simulation time: 0 hr 22 min 9 sec) 
Heartbeat CPU 0 instructions: 600000000 cycles: 733129174 heartbeat IPC: 0.726854 cumulative IPC: 0.730393 (Simulation time: 0 hr 22 min 33 sec) 
Finished CPU 0 instructions: 500000001 cycles: 684563171 cumulative IPC: 0.730393 (Simulation time: 0 hr 22 min 33 sec) 

CPU 0 Branch Prediction Accuracy: 97.5275% MPKI: 2.1997
Number of Branches: 44482865 Number of Mispredictions: 1099852
Number of LOAD Instructions: 144955155
Number of LOAD Instructions (ROI): 144955155
Number of STORE Instructions: 55921098
Number of STORE Instructions (ROI): 55921098
Total Destination Memory Operands: 57111147
Total Destination Memory Operands (ROI): 57111147
Total Source Memory Operands: 144955155
Total Source Memory Operands (ROI): 144955155
Number of DEPENDED LOADS: 13454679
Number of DEPENDED LOADS (ROI): 13454679
Number of SQ_ADDED: 57111126
Number of SQ_ADDED (ROI): 57111126
Number of LQ_ADDED: 174223222
Number of LQ_ADDED (ROI): 174223222
Number of Instructions read from trace: 600000256

ChampSim completed all CPUs

Region of Interest Statistics

CPU 0 cumulative IPC: 0.730393 instructions: 500000001 cycles: 684563171
ITLB TOTAL     ACCESS:  136065827  HIT:  136063274  MISS:       2553
ITLB LOAD      ACCESS:  136065827  HIT:  136063274  MISS:       2553
ITLB RFO       ACCESS:          0  HIT:          0  MISS:          0
ITLB PREFETCH  ACCESS:          0  HIT:          0  MISS:          0
ITLB WRITEBACK ACCESS:          0  HIT:          0  MISS:          0
ITLB PREFETCH  REQUESTED:          0  ISSUED:          0  USEFUL:          0  USELESS:          0
ITLB TOTAL MSHR MERGED:       4371
ITLB LOAD MSHR MERGED:       4371
ITLB RFO MSHR MERGED:          0
ITLB PREFETCH MSHR MERGED:          0
ITLB WRITEBACK MSHR MERGED:          0
ITLB TOTAL ACCESSES:  136070198 HITS:  136063274 MISSES:       6924
ITLB LOAD ACCESSES:  136070198 HITS:  136063274 MISSES:       6924
ITLB RFO ACCESSES:          0 HITS:          0 MISSES:          0
ITLB PREFETCH ACCESSES:          0 HITS:          0 MISSES:          0
ITLB WRITEBACK ACCESSES:          0 HITS:          0 MISSES:          0
ITLB RQ ACCESS:  500000202
ITLB RQ TO_CACHE:  136070198
ITLB RQ MERGED:  363930004
ITLB RQ FORWARD:          0
ITLB WQ ACCESS:          0
ITLB WQ TO_CACHE:          0
ITLB WQ MERGED:          0
ITLB WQ FORWARD:          0
DTLB TOTAL     ACCESS:  111550708  HIT:  111414515  MISS:     136193
DTLB LOAD      ACCESS:   78951285  HIT:   78825660  MISS:     125625
DTLB RFO       ACCESS:   32599423  HIT:   32588855  MISS:      10568
DTLB PREFETCH  ACCESS:          0  HIT:          0  MISS:          0
DTLB WRITEBACK ACCESS:          0  HIT:          0  MISS:          0
DTLB PREFETCH  REQUESTED:          0  ISSUED:          0  USEFUL:          0  USELESS:          0
DTLB TOTAL MSHR MERGED:      63715
DTLB LOAD MSHR MERGED:      50922
DTLB RFO MSHR MERGED:      12793
DTLB PREFETCH MSHR MERGED:          0
DTLB WRITEBACK MSHR MERGED:          0
DTLB TOTAL ACCESSES:  111614423 HITS:  111414515 MISSES:     199908
DTLB LOAD ACCESSES:   79002207 HITS:   78825660 MISSES:     176547
DTLB RFO ACCESSES:   32612216 HITS:   32588855 MISSES:      23361
DTLB PREFETCH ACCESSES:          0 HITS:          0 MISSES:          0
DTLB WRITEBACK ACCESSES:          0 HITS:          0 MISSES:          0
DTLB RQ ACCESS:  157180752
DTLB RQ TO_CACHE:  111614423
DTLB RQ MERGED:   45566329
DTLB RQ FORWARD:          0
DTLB WQ ACCESS:          0
DTLB WQ TO_CACHE:          0
DTLB WQ MERGED:          0
DTLB WQ FORWARD:          0
L1D TOTAL     ACCESS:  198254961  HIT:  188413851  MISS:    9841110
L1D LOAD      ACCESS:   79951748  HIT:   75689833  MISS:    4261915
L1D RFO       ACCESS:   44546972  HIT:   43646670  MISS:     900302
L1D PREFETCH  ACCESS:   73756241  HIT:   69077348  MISS:    4678893
L1D WRITEBACK ACCESS:          0  HIT:          0  MISS:          0
L1D PREFETCH  REQUESTED:   80347080  ISSUED:   79891478  USEFUL:    1820603  USELESS:    2858199
L1D TOTAL MSHR MERGED:    2475957
L1D LOAD MSHR MERGED:     518701
L1D RFO MSHR MERGED:    1405871
L1D PREFETCH MSHR MERGED:     551385
L1D WRITEBACK MSHR MERGED:          0
L1D TOTAL ACCESSES:  200752081 HITS:  188435014 MISSES:   12317067
L1D LOAD ACCESSES:   80359601 HITS:   75702354 MISSES:    4657247
L1D RFO ACCESSES:   45949902 HITS:   43646670 MISSES:    2303232
L1D PREFETCH ACCESSES:   74442578 HITS:   69085990 MISSES:    5356588
L1D WRITEBACK ACCESSES:          0 HITS:          0 MISSES:          0
L1D RQ ACCESS:  109538782
L1D RQ TO_CACHE:   80347080
L1D RQ MERGED:   29179181
L1D RQ FORWARD:          0
L1D WQ ACCESS:   47641970
L1D WQ TO_CACHE:   45949902
L1D WQ MERGED:    1692068
L1D WQ FORWARD:      21163
L1I TOTAL     ACCESS:  161536560  HIT:  161272586  MISS:     263974
L1I LOAD      ACCESS:  161536560  HIT:  161272586  MISS:     263974
L1I RFO       ACCESS:          0  HIT:          0  MISS:          0
L1I PREFETCH  ACCESS:          0  HIT:          0  MISS:          0
L1I WRITEBACK ACCESS:          0  HIT:          0  MISS:          0
L1I PREFETCH  REQUESTED:          0  ISSUED:          0  USEFUL:          0  USELESS:          0
L1I TOTAL MSHR MERGED:     261001
L1I LOAD MSHR MERGED:     261001
L1I RFO MSHR MERGED:          0
L1I PREFETCH MSHR MERGED:          0
L1I WRITEBACK MSHR MERGED:          0
L1I TOTAL ACCESSES:  161797561 HITS:  161272586 MISSES:     524975
L1I LOAD ACCESSES:  161797561 HITS:  161272586 MISSES:     524975
L1I RFO ACCESSES:          0 HITS:          0 MISSES:          0
L1I PREFETCH ACCESSES:          0 HITS:          0 MISSES:          0
L1I WRITEBACK ACCESSES:          0 HITS:          0 MISSES:          0
L1I RQ ACCESS:  500000202
L1I RQ TO_CACHE:  161797561
L1I RQ MERGED:  338202641
L1I RQ FORWARD:          0
L1I WQ ACCESS:          0
L1I WQ TO_CACHE:          0
L1I WQ MERGED:          0
L1I WQ FORWARD:          0
L2C TOTAL     ACCESS:   11771750  HIT:   10382452  MISS:    1389298
L2C LOAD      ACCESS:    4402455  HIT:    3905799  MISS:     496656
L2C RFO       ACCESS:     897296  HIT:     536263  MISS:     361033
L2C PREFETCH  ACCESS:    5284442  HIT:    4755781  MISS:     528661
L2C WRITEBACK ACCESS:    1187557  HIT:    1184609  MISS:       2948
L2C PREFETCH  REQUESTED:     504570  ISSUED:     504570  USEFUL:     114889  USELESS:     413964
L2C TOTAL MSHR MERGED:       2019
L2C LOAD MSHR MERGED:        410
L2C RFO MSHR MERGED:          0
L2C PREFETCH MSHR MERGED:       1609
L2C WRITEBACK MSHR MERGED:          0
L2C TOTAL ACCESSES:   11776473 HITS:   10382669 MISSES:    1393804
L2C LOAD ACCESSES:    4402520 HITS:    3905864 MISSES:     496656
L2C RFO ACCESSES:     897361 HITS:     536328 MISSES:     361033
L2C PREFETCH ACCESSES:    5289035 HITS:    4755868 MISSES:     533167
L2C WRITEBACK ACCESSES:    1187557 HITS:    1184609 MISSES:       2948
L2C RQ ACCESS:    5299881
L2C RQ TO_CACHE:    5299751
L2C RQ MERGED:          0
L2C RQ FORWARD:          0
L2C WQ ACCESS:    1187557
L2C WQ TO_CACHE:    1187557
L2C WQ MERGED:          0
L2C WQ FORWARD:        217
LLC TOTAL     ACCESS:    1849467  HIT:    1183253  MISS:     666214
LLC LOAD      ACCESS:     496244  HIT:     232957  MISS:     263287
LLC RFO       ACCESS:     361029  HIT:     257381  MISS:     103648
LLC PREFETCH  ACCESS:     531463  HIT:     317655  MISS:     213808
LLC WRITEBACK ACCESS:     460731  HIT:     375260  MISS:      85471
LLC PREFETCH  REQUESTED:          0  ISSUED:          0  USEFUL:       2785  USELESS:     211206
LLC TOTAL MSHR MERGED:         68
LLC LOAD MSHR MERGED:         27
LLC RFO MSHR MERGED:          0
LLC PREFETCH MSHR MERGED:         41
LLC WRITEBACK MSHR MERGED:          0
LLC TOTAL ACCESSES:    1849561 HITS:    1183279 MISSES:     666282
LLC LOAD ACCESSES:     496246 HITS:     232959 MISSES:     263287
LLC RFO ACCESSES:     361033 HITS:     257385 MISSES:     103648
LLC PREFETCH ACCESSES:     531551 HITS:     317675 MISSES:     213876
LLC WRITEBACK ACCESSES:     460731 HITS:     375260 MISSES:      85471
LLC 0 RQ ACCESS:     857279
LLC 0 RQ TO_CACHE:     857273
LLC 0 RQ MERGED:          0
LLC 0 RQ FORWARD:          0
LLC WQ ACCESS:     460731
LLC WQ TO_CACHE:     460731
LLC WQ MERGED:          0
LLC WQ FORWARD:         26
Major fault: 0 Minor fault: 3073
CPU 0 L1D next line prefetcher final stats
CPU 0 L2C PC-based stride prefetcher final stats
All Misses: 818113
All Hits: 1358045
SD Algo Stats - Switches: 0 SRR-Repls: 301712 BRR-Repls: 0

DRAM Statistics
 CHANNEL 0
 RQ ROW_BUFFER_HIT:     401777  ROW_BUFFER_MISS:     178696
 DBUS_CONGESTED:     409706
 WQ ROW_BUFFER_HIT:      13878  ROW_BUFFER_MISS:      95673  FULL:          0

 AVG_CONGESTED_CYCLE: 13
LOADS RETIRED: 120673965
INSTR RETIRED: 500000000
