
*** ChampSim Multicore Out-of-Order Simulator ***

Warmup Instructions: 100000000
Simulation Instructions: 500000000
Number of CPUs: 1
LLC sets: 2048
LLC ways: 16
Clean RRIP Policies: 2213230322132303 Dirty RRIP Policies: 1203130312031303 PSEL Width: 10 Track Set: 4294967295 PSEL Mask: 1 Demote Mask: 3040100030401000DS Algo: 0Window size: 0
Off-chip DRAM Size: 4096 MB Channels: 1 Width: 64-bit Data Rate: 1600 MT/s

CPU 0 runs /mnt/beegfs/iconst01/spec2017/Mcf.trace.gz
NOT SORTED
TRACE STRING: /mnt/beegfs/iconst01/spec2017/Mcf.trace.gz
SORTED
TRACE STRING: /mnt/beegfs/iconst01/spec2017/Mcf.trace.gz
INITIAL
TRACE STRING: /mnt/beegfs/iconst01/spec2017/Mcf.trace.gz

champsim_seed used: 278

CPU 0 L1D next line prefetcher
CPU 0 L2C IP-based stride prefetcher
Initialize DRRIP state
Assign rand_sets[0]: 454  LLC: 2048
rand_sets[0]: 454
Assign rand_sets[1]: 1662  LLC: 2048
rand_sets[1]: 1662
Assign rand_sets[2]: 1921  LLC: 2048
rand_sets[2]: 1921
Assign rand_sets[3]: 1131  LLC: 2048
rand_sets[3]: 1131
Assign rand_sets[4]: 331  LLC: 2048
rand_sets[4]: 331
Assign rand_sets[5]: 1531  LLC: 2048
rand_sets[5]: 1531
Assign rand_sets[6]: 482  LLC: 2048
rand_sets[6]: 482
Assign rand_sets[7]: 1275  LLC: 2048
rand_sets[7]: 1275
Assign rand_sets[8]: 1876  LLC: 2048
rand_sets[8]: 1876
Assign rand_sets[9]: 2038  LLC: 2048
rand_sets[9]: 2038
Assign rand_sets[10]: 701  LLC: 2048
rand_sets[10]: 701
Assign rand_sets[11]: 479  LLC: 2048
rand_sets[11]: 479
Assign rand_sets[12]: 892  LLC: 2048
rand_sets[12]: 892
Assign rand_sets[13]: 1820  LLC: 2048
rand_sets[13]: 1820
Assign rand_sets[14]: 1505  LLC: 2048
rand_sets[14]: 1505
Assign rand_sets[15]: 1159  LLC: 2048
rand_sets[15]: 1159
Assign rand_sets[16]: 513  LLC: 2048
rand_sets[16]: 513
Assign rand_sets[17]: 703  LLC: 2048
rand_sets[17]: 703
Assign rand_sets[18]: 561  LLC: 2048
rand_sets[18]: 561
Assign rand_sets[19]: 990  LLC: 2048
rand_sets[19]: 990
Assign rand_sets[20]: 342  LLC: 2048
rand_sets[20]: 342
Assign rand_sets[21]: 882  LLC: 2048
rand_sets[21]: 882
Assign rand_sets[22]: 15  LLC: 2048
rand_sets[22]: 15
Assign rand_sets[23]: 71  LLC: 2048
rand_sets[23]: 71
Assign rand_sets[24]: 1127  LLC: 2048
rand_sets[24]: 1127
Assign rand_sets[25]: 1382  LLC: 2048
rand_sets[25]: 1382
Assign rand_sets[26]: 647  LLC: 2048
rand_sets[26]: 647
Assign rand_sets[27]: 857  LLC: 2048
rand_sets[27]: 857
Assign rand_sets[28]: 1450  LLC: 2048
rand_sets[28]: 1450
Assign rand_sets[29]: 1160  LLC: 2048
rand_sets[29]: 1160
Assign rand_sets[30]: 1852  LLC: 2048
rand_sets[30]: 1852
Assign rand_sets[31]: 1881  LLC: 2048
rand_sets[31]: 1881
Assign rand_sets[32]: 1770  LLC: 2048
rand_sets[32]: 1770
Assign rand_sets[33]: 1622  LLC: 2048
rand_sets[33]: 1622
Assign rand_sets[34]: 275  LLC: 2048
rand_sets[34]: 275
Assign rand_sets[35]: 635  LLC: 2048
rand_sets[35]: 635
Assign rand_sets[36]: 466  LLC: 2048
rand_sets[36]: 466
Assign rand_sets[37]: 1413  LLC: 2048
rand_sets[37]: 1413
Assign rand_sets[38]: 417  LLC: 2048
rand_sets[38]: 417
Assign rand_sets[39]: 472  LLC: 2048
rand_sets[39]: 472
Assign rand_sets[40]: 1340  LLC: 2048
rand_sets[40]: 1340
Assign rand_sets[41]: 852  LLC: 2048
rand_sets[41]: 852
Assign rand_sets[42]: 1365  LLC: 2048
rand_sets[42]: 1365
Assign rand_sets[43]: 47  LLC: 2048
rand_sets[43]: 47
Assign rand_sets[44]: 823  LLC: 2048
rand_sets[44]: 823
Assign rand_sets[45]: 686  LLC: 2048
rand_sets[45]: 686
Assign rand_sets[46]: 1637  LLC: 2048
rand_sets[46]: 1637
Assign rand_sets[47]: 1115  LLC: 2048
rand_sets[47]: 1115
Assign rand_sets[48]: 986  LLC: 2048
rand_sets[48]: 986
Assign rand_sets[49]: 258  LLC: 2048
rand_sets[49]: 258
Assign rand_sets[50]: 633  LLC: 2048
rand_sets[50]: 633
Assign rand_sets[51]: 920  LLC: 2048
rand_sets[51]: 920
Assign rand_sets[52]: 204  LLC: 2048
rand_sets[52]: 204
Assign rand_sets[53]: 227  LLC: 2048
rand_sets[53]: 227
Assign rand_sets[54]: 1818  LLC: 2048
rand_sets[54]: 1818
Assign rand_sets[55]: 886  LLC: 2048
rand_sets[55]: 886
Assign rand_sets[56]: 1422  LLC: 2048
rand_sets[56]: 1422
Assign rand_sets[57]: 607  LLC: 2048
rand_sets[57]: 607
Assign rand_sets[58]: 217  LLC: 2048
rand_sets[58]: 217
Assign rand_sets[59]: 1945  LLC: 2048
rand_sets[59]: 1945
Assign rand_sets[60]: 143  LLC: 2048
rand_sets[60]: 143
Assign rand_sets[61]: 1311  LLC: 2048
rand_sets[61]: 1311
Assign rand_sets[62]: 319  LLC: 2048
rand_sets[62]: 319
Assign rand_sets[63]: 1846  LLC: 2048
rand_sets[63]: 1846
 CLEAN-RRIP-POLICY-1: 2-2-1-3-2-3-0-3- CLEAN-RRIP-POLICY-2: 2-2-1-3-2-3-0-3-
 DIRTY-RRIP-POLICY-1: 1-2-0-3-1-3-0-3- DIRTY-RRIP-POLICY-2: 1-2-0-3-1-3-0-3-
 PSEL width: 10
Heartbeat CPU 0 instructions: 10000002 cycles: 6266273 heartbeat IPC: 1.59585 cumulative IPC: 1.59585 (Simulation time: 0 hr 0 min 12 sec) 
Heartbeat CPU 0 instructions: 20000000 cycles: 12503869 heartbeat IPC: 1.60318 cumulative IPC: 1.5995 (Simulation time: 0 hr 0 min 25 sec) 
Heartbeat CPU 0 instructions: 30000000 cycles: 18730460 heartbeat IPC: 1.60602 cumulative IPC: 1.60167 (Simulation time: 0 hr 0 min 37 sec) 
Heartbeat CPU 0 instructions: 40000000 cycles: 24953709 heartbeat IPC: 1.60688 cumulative IPC: 1.60297 (Simulation time: 0 hr 0 min 49 sec) 
Heartbeat CPU 0 instructions: 50000003 cycles: 31178480 heartbeat IPC: 1.60649 cumulative IPC: 1.60367 (Simulation time: 0 hr 1 min 2 sec) 
Heartbeat CPU 0 instructions: 60000000 cycles: 37384879 heartbeat IPC: 1.61124 cumulative IPC: 1.60493 (Simulation time: 0 hr 1 min 14 sec) 
Heartbeat CPU 0 instructions: 70000003 cycles: 43613218 heartbeat IPC: 1.60556 cumulative IPC: 1.60502 (Simulation time: 0 hr 1 min 27 sec) 
Heartbeat CPU 0 instructions: 80000000 cycles: 49852115 heartbeat IPC: 1.60285 cumulative IPC: 1.60475 (Simulation time: 0 hr 1 min 39 sec) 
Heartbeat CPU 0 instructions: 90000000 cycles: 56088992 heartbeat IPC: 1.60337 cumulative IPC: 1.60459 (Simulation time: 0 hr 1 min 51 sec) 
Heartbeat CPU 0 instructions: 100000000 cycles: 62315793 heartbeat IPC: 1.60596 cumulative IPC: 1.60473 (Simulation time: 0 hr 2 min 4 sec) 

Warmup complete CPU 0 instructions: 100000001 cycles: 62315794 (Simulation time: 0 hr 2 min 4 sec) 

Heartbeat CPU 0 instructions: 110000000 cycles: 89242378 heartbeat IPC: 0.37138 cumulative IPC: 0.37138 (Simulation time: 0 hr 2 min 28 sec) 
Heartbeat CPU 0 instructions: 120000000 cycles: 116069012 heartbeat IPC: 0.372764 cumulative IPC: 0.372071 (Simulation time: 0 hr 2 min 51 sec) 
Heartbeat CPU 0 instructions: 130000000 cycles: 142875219 heartbeat IPC: 0.373048 cumulative IPC: 0.372396 (Simulation time: 0 hr 3 min 15 sec) 
Heartbeat CPU 0 instructions: 140000000 cycles: 169519392 heartbeat IPC: 0.375317 cumulative IPC: 0.373122 (Simulation time: 0 hr 3 min 39 sec) 
Heartbeat CPU 0 instructions: 150000003 cycles: 195958437 heartbeat IPC: 0.378229 cumulative IPC: 0.374132 (Simulation time: 0 hr 4 min 3 sec) 
Heartbeat CPU 0 instructions: 160000000 cycles: 222649353 heartbeat IPC: 0.374659 cumulative IPC: 0.37422 (Simulation time: 0 hr 4 min 27 sec) 
Heartbeat CPU 0 instructions: 170000001 cycles: 249117695 heartbeat IPC: 0.37781 cumulative IPC: 0.374729 (Simulation time: 0 hr 4 min 50 sec) 
Heartbeat CPU 0 instructions: 180000000 cycles: 275525145 heartbeat IPC: 0.378681 cumulative IPC: 0.375218 (Simulation time: 0 hr 5 min 14 sec) 
Heartbeat CPU 0 instructions: 190000003 cycles: 301830935 heartbeat IPC: 0.380145 cumulative IPC: 0.375759 (Simulation time: 0 hr 5 min 38 sec) 
Heartbeat CPU 0 instructions: 200000000 cycles: 328169278 heartbeat IPC: 0.379674 cumulative IPC: 0.376147 (Simulation time: 0 hr 6 min 2 sec) 
Heartbeat CPU 0 instructions: 210000003 cycles: 354540770 heartbeat IPC: 0.379197 cumulative IPC: 0.376422 (Simulation time: 0 hr 6 min 25 sec) 
Heartbeat CPU 0 instructions: 220000000 cycles: 381130461 heartbeat IPC: 0.376085 cumulative IPC: 0.376394 (Simulation time: 0 hr 6 min 49 sec) 
Heartbeat CPU 0 instructions: 230000002 cycles: 407253179 heartbeat IPC: 0.382809 cumulative IPC: 0.37688 (Simulation time: 0 hr 7 min 13 sec) 
Heartbeat CPU 0 instructions: 240000000 cycles: 433721807 heartbeat IPC: 0.377806 cumulative IPC: 0.376946 (Simulation time: 0 hr 7 min 37 sec) 
Heartbeat CPU 0 instructions: 250000000 cycles: 459983066 heartbeat IPC: 0.380789 cumulative IPC: 0.3772 (Simulation time: 0 hr 8 min 1 sec) 
Heartbeat CPU 0 instructions: 260000000 cycles: 486138167 heartbeat IPC: 0.382335 cumulative IPC: 0.377517 (Simulation time: 0 hr 8 min 24 sec) 
Heartbeat CPU 0 instructions: 270000001 cycles: 512394007 heartbeat IPC: 0.380868 cumulative IPC: 0.377712 (Simulation time: 0 hr 8 min 48 sec) 
Heartbeat CPU 0 instructions: 280000000 cycles: 538511209 heartbeat IPC: 0.382889 cumulative IPC: 0.377996 (Simulation time: 0 hr 9 min 12 sec) 
Heartbeat CPU 0 instructions: 290000001 cycles: 564712016 heartbeat IPC: 0.381668 cumulative IPC: 0.378188 (Simulation time: 0 hr 9 min 36 sec) 
Heartbeat CPU 0 instructions: 300000000 cycles: 591094514 heartbeat IPC: 0.379039 cumulative IPC: 0.37823 (Simulation time: 0 hr 10 min 0 sec) 
Heartbeat CPU 0 instructions: 310000003 cycles: 617084827 heartbeat IPC: 0.384759 cumulative IPC: 0.378536 (Simulation time: 0 hr 10 min 24 sec) 
Heartbeat CPU 0 instructions: 320000000 cycles: 643401597 heartbeat IPC: 0.379986 cumulative IPC: 0.378602 (Simulation time: 0 hr 10 min 47 sec) 
Heartbeat CPU 0 instructions: 330000003 cycles: 669378302 heartbeat IPC: 0.38496 cumulative IPC: 0.378874 (Simulation time: 0 hr 11 min 11 sec) 
Heartbeat CPU 0 instructions: 340000000 cycles: 695700372 heartbeat IPC: 0.379909 cumulative IPC: 0.378917 (Simulation time: 0 hr 11 min 35 sec) 
Heartbeat CPU 0 instructions: 350000002 cycles: 722007348 heartbeat IPC: 0.380127 cumulative IPC: 0.378965 (Simulation time: 0 hr 11 min 58 sec) 
Heartbeat CPU 0 instructions: 360000000 cycles: 748457700 heartbeat IPC: 0.378067 cumulative IPC: 0.37893 (Simulation time: 0 hr 12 min 22 sec) 
Heartbeat CPU 0 instructions: 370000000 cycles: 774648988 heartbeat IPC: 0.381806 cumulative IPC: 0.379036 (Simulation time: 0 hr 12 min 46 sec) 
Heartbeat CPU 0 instructions: 380000000 cycles: 800651032 heartbeat IPC: 0.384585 cumulative IPC: 0.379232 (Simulation time: 0 hr 13 min 10 sec) 
Heartbeat CPU 0 instructions: 390000002 cycles: 826627182 heartbeat IPC: 0.384969 cumulative IPC: 0.379427 (Simulation time: 0 hr 13 min 33 sec) 
Heartbeat CPU 0 instructions: 400000000 cycles: 852827816 heartbeat IPC: 0.38167 cumulative IPC: 0.379501 (Simulation time: 0 hr 13 min 57 sec) 
Heartbeat CPU 0 instructions: 410000002 cycles: 878841817 heartbeat IPC: 0.384408 cumulative IPC: 0.379657 (Simulation time: 0 hr 14 min 21 sec) 
Heartbeat CPU 0 instructions: 420000000 cycles: 904571248 heartbeat IPC: 0.38866 cumulative IPC: 0.379932 (Simulation time: 0 hr 14 min 44 sec) 
Heartbeat CPU 0 instructions: 430000000 cycles: 930604807 heartbeat IPC: 0.38412 cumulative IPC: 0.380058 (Simulation time: 0 hr 15 min 8 sec) 
Heartbeat CPU 0 instructions: 440000000 cycles: 956261782 heartbeat IPC: 0.389758 cumulative IPC: 0.380336 (Simulation time: 0 hr 15 min 32 sec) 
Heartbeat CPU 0 instructions: 450000000 cycles: 982601381 heartbeat IPC: 0.379656 cumulative IPC: 0.380317 (Simulation time: 0 hr 15 min 57 sec) 
Heartbeat CPU 0 instructions: 460000000 cycles: 1008831231 heartbeat IPC: 0.381245 cumulative IPC: 0.380342 (Simulation time: 0 hr 16 min 21 sec) 
Heartbeat CPU 0 instructions: 470000001 cycles: 1034778377 heartbeat IPC: 0.385399 cumulative IPC: 0.380477 (Simulation time: 0 hr 16 min 46 sec) 
Heartbeat CPU 0 instructions: 480000000 cycles: 1060968674 heartbeat IPC: 0.381821 cumulative IPC: 0.380513 (Simulation time: 0 hr 17 min 11 sec) 
Heartbeat CPU 0 instructions: 490000000 cycles: 1087271577 heartbeat IPC: 0.380186 cumulative IPC: 0.380504 (Simulation time: 0 hr 17 min 36 sec) 
Heartbeat CPU 0 instructions: 500000000 cycles: 1113971806 heartbeat IPC: 0.374529 cumulative IPC: 0.380352 (Simulation time: 0 hr 18 min 1 sec) 
Heartbeat CPU 0 instructions: 510000003 cycles: 1140488623 heartbeat IPC: 0.377119 cumulative IPC: 0.380273 (Simulation time: 0 hr 18 min 25 sec) 
Heartbeat CPU 0 instructions: 520000000 cycles: 1167133626 heartbeat IPC: 0.375305 cumulative IPC: 0.380153 (Simulation time: 0 hr 18 min 50 sec) 
Heartbeat CPU 0 instructions: 530000003 cycles: 1193846172 heartbeat IPC: 0.374356 cumulative IPC: 0.380016 (Simulation time: 0 hr 19 min 15 sec) 
Heartbeat CPU 0 instructions: 540000000 cycles: 1220427839 heartbeat IPC: 0.376199 cumulative IPC: 0.379929 (Simulation time: 0 hr 19 min 40 sec) 
Heartbeat CPU 0 instructions: 550000000 cycles: 1247013257 heartbeat IPC: 0.376146 cumulative IPC: 0.379844 (Simulation time: 0 hr 20 min 5 sec) 
Heartbeat CPU 0 instructions: 560000000 cycles: 1273976383 heartbeat IPC: 0.370877 cumulative IPC: 0.379644 (Simulation time: 0 hr 20 min 30 sec) 
Heartbeat CPU 0 instructions: 570000001 cycles: 1300897357 heartbeat IPC: 0.371458 cumulative IPC: 0.379466 (Simulation time: 0 hr 20 min 54 sec) 
Heartbeat CPU 0 instructions: 580000000 cycles: 1327779851 heartbeat IPC: 0.371989 cumulative IPC: 0.379307 (Simulation time: 0 hr 21 min 19 sec) 
Heartbeat CPU 0 instructions: 590000000 cycles: 1354878130 heartbeat IPC: 0.369027 cumulative IPC: 0.379092 (Simulation time: 0 hr 21 min 44 sec) 
Heartbeat CPU 0 instructions: 600000000 cycles: 1382132364 heartbeat IPC: 0.366915 cumulative IPC: 0.378841 (Simulation time: 0 hr 22 min 9 sec) 
Finished CPU 0 instructions: 500000003 cycles: 1319816583 cumulative IPC: 0.378841 (Simulation time: 0 hr 22 min 9 sec) 

CPU 0 Branch Prediction Accuracy: 91.1342% MPKI: 18.7968
Number of Branches: 106006945 Number of Mispredictions: 9398408
Number of LOAD Instructions: 207894007
Number of LOAD Instructions (ROI): 207894007
Number of STORE Instructions: 54285997
Number of STORE Instructions (ROI): 54285997
Total Destination Memory Operands: 57463404
Total Destination Memory Operands (ROI): 57463404
Total Source Memory Operands: 207894007
Total Source Memory Operands (ROI): 207894007
Number of DEPENDED LOADS: 18169206
Number of DEPENDED LOADS (ROI): 18169206
Number of SQ_ADDED: 57463404
Number of SQ_ADDED (ROI): 57463404
Number of LQ_ADDED: 209995202
Number of LQ_ADDED (ROI): 209995202
Number of Instructions read from trace: 600000039

ChampSim completed all CPUs

Region of Interest Statistics

CPU 0 cumulative IPC: 0.378841 instructions: 500000003 cycles: 1319816583
ITLB TOTAL     ACCESS:   96449188  HIT:   96449188  MISS:          0
ITLB LOAD      ACCESS:   96449188  HIT:   96449188  MISS:          0
ITLB RFO       ACCESS:          0  HIT:          0  MISS:          0
ITLB PREFETCH  ACCESS:          0  HIT:          0  MISS:          0
ITLB WRITEBACK ACCESS:          0  HIT:          0  MISS:          0
ITLB PREFETCH  REQUESTED:          0  ISSUED:          0  USEFUL:          0  USELESS:          0
ITLB TOTAL MSHR MERGED:          0
ITLB LOAD MSHR MERGED:          0
ITLB RFO MSHR MERGED:          0
ITLB PREFETCH MSHR MERGED:          0
ITLB WRITEBACK MSHR MERGED:          0
ITLB TOTAL ACCESSES:   96449188 HITS:   96449188 MISSES:          0
ITLB LOAD ACCESSES:   96449188 HITS:   96449188 MISSES:          0
ITLB RFO ACCESSES:          0 HITS:          0 MISSES:          0
ITLB PREFETCH ACCESSES:          0 HITS:          0 MISSES:          0
ITLB WRITEBACK ACCESSES:          0 HITS:          0 MISSES:          0
ITLB RQ ACCESS:  499999980
ITLB RQ TO_CACHE:   96449188
ITLB RQ MERGED:  403550792
ITLB RQ FORWARD:          0
ITLB WQ ACCESS:          0
ITLB WQ TO_CACHE:          0
ITLB WQ MERGED:          0
ITLB WQ FORWARD:          0
DTLB TOTAL     ACCESS:  155127104  HIT:  150214987  MISS:    4912117
DTLB LOAD      ACCESS:  117681076  HIT:  113290608  MISS:    4390468
DTLB RFO       ACCESS:   37446028  HIT:   36924379  MISS:     521649
DTLB PREFETCH  ACCESS:          0  HIT:          0  MISS:          0
DTLB WRITEBACK ACCESS:          0  HIT:          0  MISS:          0
DTLB PREFETCH  REQUESTED:          0  ISSUED:          0  USEFUL:          0  USELESS:          0
DTLB TOTAL MSHR MERGED:     451776
DTLB LOAD MSHR MERGED:     160238
DTLB RFO MSHR MERGED:     291538
DTLB PREFETCH MSHR MERGED:          0
DTLB WRITEBACK MSHR MERGED:          0
DTLB TOTAL ACCESSES:  155578880 HITS:  150214987 MISSES:    5363893
DTLB LOAD ACCESSES:  117841314 HITS:  113290608 MISSES:    4550706
DTLB RFO ACCESSES:   37737566 HITS:   36924379 MISSES:     813187
DTLB PREFETCH ACCESSES:          0 HITS:          0 MISSES:          0
DTLB WRITEBACK ACCESSES:          0 HITS:          0 MISSES:          0
DTLB RQ ACCESS:  205914823
DTLB RQ TO_CACHE:  155578880
DTLB RQ MERGED:   50335943
DTLB RQ FORWARD:          0
DTLB WQ ACCESS:          0
DTLB WQ TO_CACHE:          0
DTLB WQ MERGED:          0
DTLB WQ FORWARD:          0
L1D TOTAL     ACCESS:  277146710  HIT:  242324100  MISS:   34822610
L1D LOAD      ACCESS:  125380063  HIT:  107777816  MISS:   17602247
L1D RFO       ACCESS:   41130220  HIT:   38818402  MISS:    2311818
L1D PREFETCH  ACCESS:  110636427  HIT:   95727882  MISS:   14908545
L1D WRITEBACK ACCESS:          0  HIT:          0  MISS:          0
L1D PREFETCH  REQUESTED:  126238791  ISSUED:  124719342  USEFUL:    2741957  USELESS:   12166613
L1D TOTAL MSHR MERGED:    8492532
L1D LOAD MSHR MERGED:    1541870
L1D RFO MSHR MERGED:    3765090
L1D PREFETCH MSHR MERGED:    3185572
L1D WRITEBACK MSHR MERGED:          0
L1D TOTAL ACCESSES:  285725840 HITS:  242410697 MISSES:   43315143
L1D LOAD ACCESSES:  126238826 HITS:  107777851 MISSES:   18460975
L1D RFO ACCESSES:   44894820 HITS:   38818402 MISSES:    6076418
L1D PREFETCH ACCESSES:  114592194 HITS:   95814444 MISSES:   18777750
L1D WRITEBACK ACCESSES:          0 HITS:          0 MISSES:          0
L1D RQ ACCESS:  158367942
L1D RQ TO_CACHE:  126238791
L1D RQ MERGED:   32129116
L1D RQ FORWARD:          0
L1D WQ ACCESS:   47546882
L1D WQ TO_CACHE:   44894820
L1D WQ MERGED:    2652062
L1D WQ FORWARD:      86597
L1I TOTAL     ACCESS:  132846402  HIT:  132846402  MISS:          0
L1I LOAD      ACCESS:  132846402  HIT:  132846402  MISS:          0
L1I RFO       ACCESS:          0  HIT:          0  MISS:          0
L1I PREFETCH  ACCESS:          0  HIT:          0  MISS:          0
L1I WRITEBACK ACCESS:          0  HIT:          0  MISS:          0
L1I PREFETCH  REQUESTED:          0  ISSUED:          0  USEFUL:          0  USELESS:          0
L1I TOTAL MSHR MERGED:          0
L1I LOAD MSHR MERGED:          0
L1I RFO MSHR MERGED:          0
L1I PREFETCH MSHR MERGED:          0
L1I WRITEBACK MSHR MERGED:          0
L1I TOTAL ACCESSES:  132846402 HITS:  132846402 MISSES:          0
L1I LOAD ACCESSES:  132846402 HITS:  132846402 MISSES:          0
L1I RFO ACCESSES:          0 HITS:          0 MISSES:          0
L1I PREFETCH ACCESSES:          0 HITS:          0 MISSES:          0
L1I WRITEBACK ACCESSES:          0 HITS:          0 MISSES:          0
L1I RQ ACCESS:  499999980
L1I RQ TO_CACHE:  132846402
L1I RQ MERGED:  367153578
L1I RQ FORWARD:          0
L1I WQ ACCESS:          0
L1I WQ TO_CACHE:          0
L1I WQ MERGED:          0
L1I WQ FORWARD:          0
L2C TOTAL     ACCESS:   39593140  HIT:   20623785  MISS:   18969355
L2C LOAD      ACCESS:   16919052  HIT:    8567767  MISS:    8351285
L2C RFO       ACCESS:    2311278  HIT:     630668  MISS:    1680610
L2C PREFETCH  ACCESS:   17140369  HIT:    8206657  MISS:    8933712
L2C WRITEBACK ACCESS:    3222441  HIT:    3218693  MISS:       3748
L2C PREFETCH  REQUESTED:    2802607  ISSUED:    2802607  USEFUL:    1309312  USELESS:    7624120
L2C TOTAL MSHR MERGED:     487385
L2C LOAD MSHR MERGED:      64157
L2C RFO MSHR MERGED:          0
L2C PREFETCH MSHR MERGED:     423228
L2C WRITEBACK MSHR MERGED:          0
L2C TOTAL ACCESSES:   40146466 HITS:   20623938 MISSES:   19522528
L2C LOAD ACCESSES:   16919105 HITS:    8567820 MISSES:    8351285
L2C RFO ACCESSES:    2311328 HITS:     630718 MISSES:    1680610
L2C PREFETCH ACCESSES:   17693592 HITS:    8206707 MISSES:    9486885
L2C WRITEBACK ACCESSES:    3222441 HITS:    3218693 MISSES:       3748
L2C RQ ACCESS:   19230433
L2C RQ TO_CACHE:   19230330
L2C RQ MERGED:          0
L2C RQ FORWARD:          0
L2C WQ ACCESS:    3222441
L2C WQ TO_CACHE:    3222441
L2C WQ MERGED:          0
L2C WQ FORWARD:        153
LLC TOTAL     ACCESS:   21180642  HIT:   13522778  MISS:    7657864
LLC LOAD      ACCESS:    8287110  HIT:    4794901  MISS:    3492209
LLC RFO       ACCESS:    1680548  HIT:    1679035  MISS:       1513
LLC PREFETCH  ACCESS:    9037190  HIT:    4878937  MISS:    4158253
LLC WRITEBACK ACCESS:    2175794  HIT:    2169905  MISS:       5889
LLC PREFETCH  REQUESTED:          0  ISSUED:          0  USEFUL:     182264  USELESS:    3978519
LLC TOTAL MSHR MERGED:      22555
LLC LOAD MSHR MERGED:       6523
LLC RFO MSHR MERGED:          0
LLC PREFETCH MSHR MERGED:      16032
LLC WRITEBACK MSHR MERGED:          0
LLC TOTAL ACCESSES:   21203303 HITS:   13522883 MISSES:    7680420
LLC LOAD ACCESSES:    8287128 HITS:    4794919 MISSES:    3492209
LLC RFO ACCESSES:    1680610 HITS:    1679097 MISSES:       1513
LLC PREFETCH ACCESSES:    9059771 HITS:    4878962 MISSES:    4180809
LLC WRITEBACK ACCESSES:    2175794 HITS:    2169905 MISSES:       5889
LLC 0 RQ ACCESS:    9967738
LLC 0 RQ TO_CACHE:    9967658
LLC 0 RQ MERGED:          0
LLC 0 RQ FORWARD:          0
LLC WQ ACCESS:    2175795
LLC WQ TO_CACHE:    2175795
LLC WQ MERGED:          0
LLC WQ FORWARD:        105
Major fault: 0 Minor fault: 56391
CPU 0 L1D next line prefetcher final stats
CPU 0 L2C PC-based stride prefetcher final stats
All Misses: 9359901
All Hits: 15197506
SD Algo Stats - Switches: 346 SRR-Repls: 2894208 BRR-Repls: 1029536

DRAM Statistics
 CHANNEL 0
 RQ ROW_BUFFER_HIT:    5122508  ROW_BUFFER_MISS:    2528577
 DBUS_CONGESTED:    3682449
 WQ ROW_BUFFER_HIT:        179  ROW_BUFFER_MISS:       8502  FULL:          0

 AVG_CONGESTED_CYCLE: 12
LOADS RETIRED: 173631671
INSTR RETIRED: 500000000
