
*** ChampSim Multicore Out-of-Order Simulator ***

Warmup Instructions: 100000000
Simulation Instructions: 500000000
Number of CPUs: 1
LLC sets: 2048
LLC ways: 16
Clean RRIP Policies: 1213030112130301 Dirty RRIP Policies: 2213130122131301 PSEL Width: 10 Track Set: 4294967295 PSEL Mask: 1 Demote Mask: 3040201030402010DS Algo: 0Window size: 0
Off-chip DRAM Size: 4096 MB Channels: 1 Width: 64-bit Data Rate: 1600 MT/s

CPU 0 runs /mnt/beegfs/iconst01/spec2017/Blender.trace.gz
NOT SORTED
TRACE STRING: /mnt/beegfs/iconst01/spec2017/Blender.trace.gz
SORTED
TRACE STRING: /mnt/beegfs/iconst01/spec2017/Blender.trace.gz
INITIAL
TRACE STRING: /mnt/beegfs/iconst01/spec2017/Blender.trace.gz

champsim_seed used: 700

CPU 0 L1D next line prefetcher
CPU 0 L2C IP-based stride prefetcher
Initialize DRRIP state
Assign rand_sets[0]: 454  LLC: 2048
rand_sets[0]: 454
Assign rand_sets[1]: 1662  LLC: 2048
rand_sets[1]: 1662
Assign rand_sets[2]: 1921  LLC: 2048
rand_sets[2]: 1921
Assign rand_sets[3]: 1131  LLC: 2048
rand_sets[3]: 1131
Assign rand_sets[4]: 331  LLC: 2048
rand_sets[4]: 331
Assign rand_sets[5]: 1531  LLC: 2048
rand_sets[5]: 1531
Assign rand_sets[6]: 482  LLC: 2048
rand_sets[6]: 482
Assign rand_sets[7]: 1275  LLC: 2048
rand_sets[7]: 1275
Assign rand_sets[8]: 1876  LLC: 2048
rand_sets[8]: 1876
Assign rand_sets[9]: 2038  LLC: 2048
rand_sets[9]: 2038
Assign rand_sets[10]: 701  LLC: 2048
rand_sets[10]: 701
Assign rand_sets[11]: 479  LLC: 2048
rand_sets[11]: 479
Assign rand_sets[12]: 892  LLC: 2048
rand_sets[12]: 892
Assign rand_sets[13]: 1820  LLC: 2048
rand_sets[13]: 1820
Assign rand_sets[14]: 1505  LLC: 2048
rand_sets[14]: 1505
Assign rand_sets[15]: 1159  LLC: 2048
rand_sets[15]: 1159
Assign rand_sets[16]: 513  LLC: 2048
rand_sets[16]: 513
Assign rand_sets[17]: 703  LLC: 2048
rand_sets[17]: 703
Assign rand_sets[18]: 561  LLC: 2048
rand_sets[18]: 561
Assign rand_sets[19]: 990  LLC: 2048
rand_sets[19]: 990
Assign rand_sets[20]: 342  LLC: 2048
rand_sets[20]: 342
Assign rand_sets[21]: 882  LLC: 2048
rand_sets[21]: 882
Assign rand_sets[22]: 15  LLC: 2048
rand_sets[22]: 15
Assign rand_sets[23]: 71  LLC: 2048
rand_sets[23]: 71
Assign rand_sets[24]: 1127  LLC: 2048
rand_sets[24]: 1127
Assign rand_sets[25]: 1382  LLC: 2048
rand_sets[25]: 1382
Assign rand_sets[26]: 647  LLC: 2048
rand_sets[26]: 647
Assign rand_sets[27]: 857  LLC: 2048
rand_sets[27]: 857
Assign rand_sets[28]: 1450  LLC: 2048
rand_sets[28]: 1450
Assign rand_sets[29]: 1160  LLC: 2048
rand_sets[29]: 1160
Assign rand_sets[30]: 1852  LLC: 2048
rand_sets[30]: 1852
Assign rand_sets[31]: 1881  LLC: 2048
rand_sets[31]: 1881
Assign rand_sets[32]: 1770  LLC: 2048
rand_sets[32]: 1770
Assign rand_sets[33]: 1622  LLC: 2048
rand_sets[33]: 1622
Assign rand_sets[34]: 275  LLC: 2048
rand_sets[34]: 275
Assign rand_sets[35]: 635  LLC: 2048
rand_sets[35]: 635
Assign rand_sets[36]: 466  LLC: 2048
rand_sets[36]: 466
Assign rand_sets[37]: 1413  LLC: 2048
rand_sets[37]: 1413
Assign rand_sets[38]: 417  LLC: 2048
rand_sets[38]: 417
Assign rand_sets[39]: 472  LLC: 2048
rand_sets[39]: 472
Assign rand_sets[40]: 1340  LLC: 2048
rand_sets[40]: 1340
Assign rand_sets[41]: 852  LLC: 2048
rand_sets[41]: 852
Assign rand_sets[42]: 1365  LLC: 2048
rand_sets[42]: 1365
Assign rand_sets[43]: 47  LLC: 2048
rand_sets[43]: 47
Assign rand_sets[44]: 823  LLC: 2048
rand_sets[44]: 823
Assign rand_sets[45]: 686  LLC: 2048
rand_sets[45]: 686
Assign rand_sets[46]: 1637  LLC: 2048
rand_sets[46]: 1637
Assign rand_sets[47]: 1115  LLC: 2048
rand_sets[47]: 1115
Assign rand_sets[48]: 986  LLC: 2048
rand_sets[48]: 986
Assign rand_sets[49]: 258  LLC: 2048
rand_sets[49]: 258
Assign rand_sets[50]: 633  LLC: 2048
rand_sets[50]: 633
Assign rand_sets[51]: 920  LLC: 2048
rand_sets[51]: 920
Assign rand_sets[52]: 204  LLC: 2048
rand_sets[52]: 204
Assign rand_sets[53]: 227  LLC: 2048
rand_sets[53]: 227
Assign rand_sets[54]: 1818  LLC: 2048
rand_sets[54]: 1818
Assign rand_sets[55]: 886  LLC: 2048
rand_sets[55]: 886
Assign rand_sets[56]: 1422  LLC: 2048
rand_sets[56]: 1422
Assign rand_sets[57]: 607  LLC: 2048
rand_sets[57]: 607
Assign rand_sets[58]: 217  LLC: 2048
rand_sets[58]: 217
Assign rand_sets[59]: 1945  LLC: 2048
rand_sets[59]: 1945
Assign rand_sets[60]: 143  LLC: 2048
rand_sets[60]: 143
Assign rand_sets[61]: 1311  LLC: 2048
rand_sets[61]: 1311
Assign rand_sets[62]: 319  LLC: 2048
rand_sets[62]: 319
Assign rand_sets[63]: 1846  LLC: 2048
rand_sets[63]: 1846
 CLEAN-RRIP-POLICY-1: 1-2-1-3-0-3-0-1- CLEAN-RRIP-POLICY-2: 1-2-1-3-0-3-0-1-
 DIRTY-RRIP-POLICY-1: 2-2-1-3-1-3-0-1- DIRTY-RRIP-POLICY-2: 2-2-1-3-1-3-0-1-
 PSEL width: 10
Heartbeat CPU 0 instructions: 10000002 cycles: 5480930 heartbeat IPC: 1.82451 cumulative IPC: 1.82451 (Simulation time: 0 hr 0 min 13 sec) 
Heartbeat CPU 0 instructions: 20000000 cycles: 10913520 heartbeat IPC: 1.84074 cumulative IPC: 1.83259 (Simulation time: 0 hr 0 min 26 sec) 
Heartbeat CPU 0 instructions: 30000000 cycles: 16447388 heartbeat IPC: 1.80705 cumulative IPC: 1.824 (Simulation time: 0 hr 0 min 39 sec) 
Heartbeat CPU 0 instructions: 40000000 cycles: 21898152 heartbeat IPC: 1.83461 cumulative IPC: 1.82664 (Simulation time: 0 hr 0 min 52 sec) 
Heartbeat CPU 0 instructions: 50000000 cycles: 27400065 heartbeat IPC: 1.81755 cumulative IPC: 1.82481 (Simulation time: 0 hr 1 min 5 sec) 
Heartbeat CPU 0 instructions: 60000000 cycles: 32778901 heartbeat IPC: 1.85914 cumulative IPC: 1.83045 (Simulation time: 0 hr 1 min 19 sec) 
Heartbeat CPU 0 instructions: 70000001 cycles: 38335192 heartbeat IPC: 1.79976 cumulative IPC: 1.826 (Simulation time: 0 hr 1 min 31 sec) 
Heartbeat CPU 0 instructions: 80000000 cycles: 43795397 heartbeat IPC: 1.83143 cumulative IPC: 1.82668 (Simulation time: 0 hr 1 min 44 sec) 
Heartbeat CPU 0 instructions: 90000000 cycles: 49242154 heartbeat IPC: 1.83595 cumulative IPC: 1.8277 (Simulation time: 0 hr 1 min 58 sec) 
Heartbeat CPU 0 instructions: 100000000 cycles: 54787285 heartbeat IPC: 1.80338 cumulative IPC: 1.82524 (Simulation time: 0 hr 2 min 10 sec) 

Warmup complete CPU 0 instructions: 100000002 cycles: 54787286 (Simulation time: 0 hr 2 min 10 sec) 

Heartbeat CPU 0 instructions: 110000001 cycles: 69188800 heartbeat IPC: 0.694371 cumulative IPC: 0.694371 (Simulation time: 0 hr 2 min 29 sec) 
Heartbeat CPU 0 instructions: 120000000 cycles: 84193895 heartbeat IPC: 0.66644 cumulative IPC: 0.680119 (Simulation time: 0 hr 2 min 48 sec) 
Heartbeat CPU 0 instructions: 130000000 cycles: 98694472 heartbeat IPC: 0.689628 cumulative IPC: 0.683259 (Simulation time: 0 hr 3 min 7 sec) 
Heartbeat CPU 0 instructions: 140000000 cycles: 113039379 heartbeat IPC: 0.697112 cumulative IPC: 0.686671 (Simulation time: 0 hr 3 min 25 sec) 
Heartbeat CPU 0 instructions: 150000000 cycles: 127747579 heartbeat IPC: 0.679893 cumulative IPC: 0.685304 (Simulation time: 0 hr 3 min 44 sec) 
Heartbeat CPU 0 instructions: 160000000 cycles: 142868936 heartbeat IPC: 0.661316 cumulative IPC: 0.681186 (Simulation time: 0 hr 4 min 3 sec) 
Heartbeat CPU 0 instructions: 170000001 cycles: 157733025 heartbeat IPC: 0.672762 cumulative IPC: 0.67997 (Simulation time: 0 hr 4 min 21 sec) 
Heartbeat CPU 0 instructions: 180000000 cycles: 172664614 heartbeat IPC: 0.669721 cumulative IPC: 0.678672 (Simulation time: 0 hr 4 min 40 sec) 
Heartbeat CPU 0 instructions: 190000002 cycles: 187140404 heartbeat IPC: 0.690809 cumulative IPC: 0.679999 (Simulation time: 0 hr 4 min 59 sec) 
Heartbeat CPU 0 instructions: 200000000 cycles: 201498184 heartbeat IPC: 0.696486 cumulative IPC: 0.681613 (Simulation time: 0 hr 5 min 18 sec) 
Heartbeat CPU 0 instructions: 210000003 cycles: 216120859 heartbeat IPC: 0.68387 cumulative IPC: 0.681817 (Simulation time: 0 hr 5 min 37 sec) 
Heartbeat CPU 0 instructions: 220000000 cycles: 230818040 heartbeat IPC: 0.680402 cumulative IPC: 0.681699 (Simulation time: 0 hr 5 min 55 sec) 
Heartbeat CPU 0 instructions: 230000001 cycles: 245931720 heartbeat IPC: 0.661652 cumulative IPC: 0.680114 (Simulation time: 0 hr 6 min 15 sec) 
Heartbeat CPU 0 instructions: 240000000 cycles: 260847092 heartbeat IPC: 0.670449 cumulative IPC: 0.679414 (Simulation time: 0 hr 6 min 33 sec) 
Heartbeat CPU 0 instructions: 250000003 cycles: 275677001 heartbeat IPC: 0.674313 cumulative IPC: 0.679072 (Simulation time: 0 hr 6 min 52 sec) 
Heartbeat CPU 0 instructions: 260000000 cycles: 291165231 heartbeat IPC: 0.645651 cumulative IPC: 0.676882 (Simulation time: 0 hr 7 min 11 sec) 
Heartbeat CPU 0 instructions: 270000003 cycles: 305749247 heartbeat IPC: 0.685682 cumulative IPC: 0.677393 (Simulation time: 0 hr 7 min 29 sec) 
Heartbeat CPU 0 instructions: 280000000 cycles: 320246921 heartbeat IPC: 0.689766 cumulative IPC: 0.678069 (Simulation time: 0 hr 7 min 48 sec) 
Heartbeat CPU 0 instructions: 290000002 cycles: 334695916 heartbeat IPC: 0.69209 cumulative IPC: 0.678793 (Simulation time: 0 hr 8 min 7 sec) 
Heartbeat CPU 0 instructions: 300000000 cycles: 350088644 heartbeat IPC: 0.649657 cumulative IPC: 0.677274 (Simulation time: 0 hr 8 min 26 sec) 
Heartbeat CPU 0 instructions: 310000000 cycles: 365063433 heartbeat IPC: 0.667789 cumulative IPC: 0.676816 (Simulation time: 0 hr 8 min 45 sec) 
Heartbeat CPU 0 instructions: 320000000 cycles: 379870900 heartbeat IPC: 0.675335 cumulative IPC: 0.676749 (Simulation time: 0 hr 9 min 3 sec) 
Heartbeat CPU 0 instructions: 330000000 cycles: 395628925 heartbeat IPC: 0.634597 cumulative IPC: 0.6748 (Simulation time: 0 hr 9 min 22 sec) 
Heartbeat CPU 0 instructions: 340000000 cycles: 410265778 heartbeat IPC: 0.683207 cumulative IPC: 0.675146 (Simulation time: 0 hr 9 min 41 sec) 
Heartbeat CPU 0 instructions: 350000000 cycles: 424898585 heartbeat IPC: 0.683396 cumulative IPC: 0.675472 (Simulation time: 0 hr 10 min 0 sec) 
Heartbeat CPU 0 instructions: 360000000 cycles: 439562380 heartbeat IPC: 0.681952 cumulative IPC: 0.675719 (Simulation time: 0 hr 10 min 18 sec) 
Heartbeat CPU 0 instructions: 370000002 cycles: 454986777 heartbeat IPC: 0.648324 cumulative IPC: 0.674664 (Simulation time: 0 hr 10 min 37 sec) 
Heartbeat CPU 0 instructions: 380000000 cycles: 469842417 heartbeat IPC: 0.673145 cumulative IPC: 0.674609 (Simulation time: 0 hr 10 min 56 sec) 
Heartbeat CPU 0 instructions: 390000003 cycles: 484800447 heartbeat IPC: 0.668537 cumulative IPC: 0.674398 (Simulation time: 0 hr 11 min 14 sec) 
Heartbeat CPU 0 instructions: 400000000 cycles: 500651146 heartbeat IPC: 0.630887 cumulative IPC: 0.672851 (Simulation time: 0 hr 11 min 34 sec) 
Heartbeat CPU 0 instructions: 410000001 cycles: 515677423 heartbeat IPC: 0.665501 cumulative IPC: 0.672611 (Simulation time: 0 hr 11 min 52 sec) 
Heartbeat CPU 0 instructions: 420000000 cycles: 530410874 heartbeat IPC: 0.678728 cumulative IPC: 0.672801 (Simulation time: 0 hr 12 min 11 sec) 
Heartbeat CPU 0 instructions: 430000000 cycles: 545822482 heartbeat IPC: 0.648862 cumulative IPC: 0.67205 (Simulation time: 0 hr 12 min 30 sec) 
Heartbeat CPU 0 instructions: 440000000 cycles: 560626488 heartbeat IPC: 0.675493 cumulative IPC: 0.67215 (Simulation time: 0 hr 12 min 48 sec) 
Heartbeat CPU 0 instructions: 450000000 cycles: 575605979 heartbeat IPC: 0.667579 cumulative IPC: 0.672019 (Simulation time: 0 hr 13 min 7 sec) 
Heartbeat CPU 0 instructions: 460000000 cycles: 591343826 heartbeat IPC: 0.635411 cumulative IPC: 0.670945 (Simulation time: 0 hr 13 min 26 sec) 
Heartbeat CPU 0 instructions: 470000000 cycles: 606419054 heartbeat IPC: 0.66334 cumulative IPC: 0.670737 (Simulation time: 0 hr 13 min 44 sec) 
Heartbeat CPU 0 instructions: 480000000 cycles: 621283947 heartbeat IPC: 0.672726 cumulative IPC: 0.670789 (Simulation time: 0 hr 14 min 3 sec) 
Heartbeat CPU 0 instructions: 490000002 cycles: 636552981 heartbeat IPC: 0.65492 cumulative IPC: 0.670373 (Simulation time: 0 hr 14 min 22 sec) 
Heartbeat CPU 0 instructions: 500000000 cycles: 651422678 heartbeat IPC: 0.672509 cumulative IPC: 0.670426 (Simulation time: 0 hr 14 min 40 sec) 
Heartbeat CPU 0 instructions: 510000001 cycles: 666528242 heartbeat IPC: 0.662008 cumulative IPC: 0.670218 (Simulation time: 0 hr 14 min 59 sec) 
Heartbeat CPU 0 instructions: 520000000 cycles: 681993809 heartbeat IPC: 0.646598 cumulative IPC: 0.669636 (Simulation time: 0 hr 15 min 18 sec) 
Heartbeat CPU 0 instructions: 530000001 cycles: 697410650 heartbeat IPC: 0.648641 cumulative IPC: 0.669132 (Simulation time: 0 hr 15 min 36 sec) 
Heartbeat CPU 0 instructions: 540000000 cycles: 711995827 heartbeat IPC: 0.685628 cumulative IPC: 0.669498 (Simulation time: 0 hr 15 min 55 sec) 
Heartbeat CPU 0 instructions: 550000001 cycles: 727253405 heartbeat IPC: 0.655412 cumulative IPC: 0.669179 (Simulation time: 0 hr 16 min 14 sec) 
Heartbeat CPU 0 instructions: 560000000 cycles: 742053676 heartbeat IPC: 0.675663 cumulative IPC: 0.669318 (Simulation time: 0 hr 16 min 32 sec) 
Heartbeat CPU 0 instructions: 570000002 cycles: 757199461 heartbeat IPC: 0.66025 cumulative IPC: 0.669123 (Simulation time: 0 hr 16 min 51 sec) 
Heartbeat CPU 0 instructions: 580000000 cycles: 772209280 heartbeat IPC: 0.66623 cumulative IPC: 0.669062 (Simulation time: 0 hr 17 min 10 sec) 
Heartbeat CPU 0 instructions: 590000001 cycles: 787207168 heartbeat IPC: 0.666761 cumulative IPC: 0.669015 (Simulation time: 0 hr 17 min 28 sec) 
Heartbeat CPU 0 instructions: 600000000 cycles: 801856755 heartbeat IPC: 0.682613 cumulative IPC: 0.669282 (Simulation time: 0 hr 17 min 47 sec) 
Finished CPU 0 instructions: 500000000 cycles: 747069477 cumulative IPC: 0.669282 (Simulation time: 0 hr 17 min 47 sec) 

CPU 0 Branch Prediction Accuracy: 93.7783% MPKI: 10.0718
Number of Branches: 80940586 Number of Mispredictions: 5035908
Number of LOAD Instructions: 184238101
Number of LOAD Instructions (ROI): 184238101
Number of STORE Instructions: 33143298
Number of STORE Instructions (ROI): 33143298
Total Destination Memory Operands: 33324321
Total Destination Memory Operands (ROI): 33324321
Total Source Memory Operands: 184238101
Total Source Memory Operands (ROI): 184238101
Number of DEPENDED LOADS: 4461360
Number of DEPENDED LOADS (ROI): 4461360
Number of SQ_ADDED: 33324292
Number of SQ_ADDED (ROI): 33324292
Number of LQ_ADDED: 184867417
Number of LQ_ADDED (ROI): 184867417
Number of Instructions read from trace: 600000256

ChampSim completed all CPUs

Region of Interest Statistics

CPU 0 cumulative IPC: 0.669282 instructions: 500000000 cycles: 747069477
ITLB TOTAL     ACCESS:   77746068  HIT:   77746068  MISS:          0
ITLB LOAD      ACCESS:   77746068  HIT:   77746068  MISS:          0
ITLB RFO       ACCESS:          0  HIT:          0  MISS:          0
ITLB PREFETCH  ACCESS:          0  HIT:          0  MISS:          0
ITLB WRITEBACK ACCESS:          0  HIT:          0  MISS:          0
ITLB PREFETCH  REQUESTED:          0  ISSUED:          0  USEFUL:          0  USELESS:          0
ITLB TOTAL MSHR MERGED:          0
ITLB LOAD MSHR MERGED:          0
ITLB RFO MSHR MERGED:          0
ITLB PREFETCH MSHR MERGED:          0
ITLB WRITEBACK MSHR MERGED:          0
ITLB TOTAL ACCESSES:   77746068 HITS:   77746068 MISSES:          0
ITLB LOAD ACCESSES:   77746068 HITS:   77746068 MISSES:          0
ITLB RFO ACCESSES:          0 HITS:          0 MISSES:          0
ITLB PREFETCH ACCESSES:          0 HITS:          0 MISSES:          0
ITLB WRITEBACK ACCESSES:          0 HITS:          0 MISSES:          0
ITLB RQ ACCESS:  500000245
ITLB RQ TO_CACHE:   77746068
ITLB RQ MERGED:  422254177
ITLB RQ FORWARD:          0
ITLB WQ ACCESS:          0
ITLB WQ TO_CACHE:          0
ITLB WQ MERGED:          0
ITLB WQ FORWARD:          0
DTLB TOTAL     ACCESS:   88436818  HIT:   87299968  MISS:    1136850
DTLB LOAD      ACCESS:   66310098  HIT:   65177488  MISS:    1132610
DTLB RFO       ACCESS:   22126720  HIT:   22122480  MISS:       4240
DTLB PREFETCH  ACCESS:          0  HIT:          0  MISS:          0
DTLB WRITEBACK ACCESS:          0  HIT:          0  MISS:          0
DTLB PREFETCH  REQUESTED:          0  ISSUED:          0  USEFUL:          0  USELESS:          0
DTLB TOTAL MSHR MERGED:     135526
DTLB LOAD MSHR MERGED:     133709
DTLB RFO MSHR MERGED:       1817
DTLB PREFETCH MSHR MERGED:          0
DTLB WRITEBACK MSHR MERGED:          0
DTLB TOTAL ACCESSES:   88572344 HITS:   87299968 MISSES:    1272376
DTLB LOAD ACCESSES:   66443807 HITS:   65177488 MISSES:    1266319
DTLB RFO ACCESSES:   22128537 HITS:   22122480 MISSES:       6057
DTLB PREFETCH ACCESSES:          0 HITS:          0 MISSES:          0
DTLB WRITEBACK ACCESSES:          0 HITS:          0 MISSES:          0
DTLB RQ ACCESS:  177579379
DTLB RQ TO_CACHE:   88572344
DTLB RQ MERGED:   89007035
DTLB RQ FORWARD:          0
DTLB WQ ACCESS:          0
DTLB WQ TO_CACHE:          0
DTLB WQ MERGED:          0
DTLB WQ FORWARD:          0
L1D TOTAL     ACCESS:  142081086  HIT:  136522037  MISS:    5559049
L1D LOAD      ACCESS:   61384044  HIT:   58275661  MISS:    3108383
L1D RFO       ACCESS:   27668721  HIT:   27586912  MISS:      81809
L1D PREFETCH  ACCESS:   53028321  HIT:   50659464  MISS:    2368857
L1D WRITEBACK ACCESS:          0  HIT:          0  MISS:          0
L1D PREFETCH  REQUESTED:   61670262  ISSUED:   60752093  USEFUL:     661977  USELESS:    1706885
L1D TOTAL MSHR MERGED:    1198527
L1D LOAD MSHR MERGED:     388962
L1D RFO MSHR MERGED:     164358
L1D PREFETCH MSHR MERGED:     645207
L1D WRITEBACK MSHR MERGED:          0
L1D TOTAL ACCESSES:  143377228 HITS:  136619652 MISSES:    6757576
L1D LOAD ACCESSES:   61670272 HITS:   58275671 MISSES:    3394601
L1D RFO ACCESSES:   27829287 HITS:   27586912 MISSES:     242375
L1D PREFETCH ACCESSES:   53877669 HITS:   50757069 MISSES:    3120600
L1D WRITEBACK ACCESSES:          0 HITS:          0 MISSES:          0
L1D RQ ACCESS:  149746413
L1D RQ TO_CACHE:   61670262
L1D RQ MERGED:   88076141
L1D RQ FORWARD:          0
L1D WQ ACCESS:   27832966
L1D WQ TO_CACHE:   27829287
L1D WQ MERGED:       3679
L1D WQ FORWARD:      97615
L1I TOTAL     ACCESS:   96223408  HIT:   96064140  MISS:     159268
L1I LOAD      ACCESS:   96223408  HIT:   96064140  MISS:     159268
L1I RFO       ACCESS:          0  HIT:          0  MISS:          0
L1I PREFETCH  ACCESS:          0  HIT:          0  MISS:          0
L1I WRITEBACK ACCESS:          0  HIT:          0  MISS:          0
L1I PREFETCH  REQUESTED:          0  ISSUED:          0  USEFUL:          0  USELESS:          0
L1I TOTAL MSHR MERGED:     130253
L1I LOAD MSHR MERGED:     130253
L1I RFO MSHR MERGED:          0
L1I PREFETCH MSHR MERGED:          0
L1I WRITEBACK MSHR MERGED:          0
L1I TOTAL ACCESSES:   96353661 HITS:   96064140 MISSES:     289521
L1I LOAD ACCESSES:   96353661 HITS:   96064140 MISSES:     289521
L1I RFO ACCESSES:          0 HITS:          0 MISSES:          0
L1I PREFETCH ACCESSES:          0 HITS:          0 MISSES:          0
L1I WRITEBACK ACCESSES:          0 HITS:          0 MISSES:          0
L1I RQ ACCESS:  500000245
L1I RQ TO_CACHE:   96353661
L1I RQ MERGED:  403646584
L1I RQ FORWARD:          0
L1I WQ ACCESS:          0
L1I WQ TO_CACHE:          0
L1I WQ MERGED:          0
L1I WQ FORWARD:          0
L2C TOTAL     ACCESS:    5910961  HIT:    3062289  MISS:    2848672
L2C LOAD      ACCESS:    3164897  HIT:    1583011  MISS:    1581886
L2C RFO       ACCESS:      77941  HIT:      45087  MISS:      32854
L2C PREFETCH  ACCESS:    2524593  HIT:    1296244  MISS:    1228349
L2C WRITEBACK ACCESS:     143530  HIT:     137947  MISS:       5583
L2C PREFETCH  REQUESTED:      52724  ISSUED:      52724  USEFUL:      18667  USELESS:    1209722
L2C TOTAL MSHR MERGED:       2590
L2C LOAD MSHR MERGED:        941
L2C RFO MSHR MERGED:          0
L2C PREFETCH MSHR MERGED:       1649
L2C WRITEBACK MSHR MERGED:          0
L2C TOTAL ACCESSES:    5913645 HITS:    3062375 MISSES:    2851270
L2C LOAD ACCESSES:    3164907 HITS:    1583021 MISSES:    1581886
L2C RFO ACCESSES:      78017 HITS:      45163 MISSES:      32854
L2C PREFETCH ACCESSES:    2527191 HITS:    1296244 MISSES:    1230947
L2C WRITEBACK ACCESSES:     143530 HITS:     137947 MISSES:       5583
L2C RQ ACCESS:    3242924
L2C RQ TO_CACHE:    3242838
L2C RQ MERGED:          0
L2C RQ FORWARD:          0
L2C WQ ACCESS:     143530
L2C WQ TO_CACHE:     143530
L2C WQ MERGED:          0
L2C WQ FORWARD:         86
LLC TOTAL     ACCESS:    2892632  HIT:    1807545  MISS:    1085087
LLC LOAD      ACCESS:    1580945  HIT:    1132882  MISS:     448063
LLC RFO       ACCESS:      32844  HIT:      32351  MISS:        493
LLC PREFETCH  ACCESS:    1229298  HIT:     593571  MISS:     635727
LLC WRITEBACK ACCESS:      49545  HIT:      48741  MISS:        804
LLC PREFETCH  REQUESTED:          0  ISSUED:          0  USEFUL:       3098  USELESS:     632663
LLC TOTAL MSHR MERGED:          0
LLC LOAD MSHR MERGED:          0
LLC RFO MSHR MERGED:          0
LLC PREFETCH MSHR MERGED:          0
LLC WRITEBACK MSHR MERGED:          0
LLC TOTAL ACCESSES:    2892642 HITS:    1807555 MISSES:    1085087
LLC LOAD ACCESSES:    1580945 HITS:    1132882 MISSES:     448063
LLC RFO ACCESSES:      32854 HITS:      32361 MISSES:        493
LLC PREFETCH ACCESSES:    1229298 HITS:     593571 MISSES:     635727
LLC WRITEBACK ACCESSES:      49545 HITS:      48741 MISSES:        804
LLC 0 RQ ACCESS:    1613799
LLC 0 RQ TO_CACHE:    1613789
LLC 0 RQ MERGED:          0
LLC 0 RQ FORWARD:          0
LLC WQ ACCESS:      49545
LLC WQ TO_CACHE:      49545
LLC WQ MERGED:          0
LLC WQ FORWARD:         10
Major fault: 0 Minor fault: 8460
CPU 0 L1D next line prefetcher final stats
CPU 0 L2C PC-based stride prefetcher final stats
All Misses: 1317317
All Hits: 2111911
SD Algo Stats - Switches: 0 SRR-Repls: 519289 BRR-Repls: 0

DRAM Statistics
 CHANNEL 0
 RQ ROW_BUFFER_HIT:     370231  ROW_BUFFER_MISS:     713681
 DBUS_CONGESTED:     332916
 WQ ROW_BUFFER_HIT:        135  ROW_BUFFER_MISS:       1014  FULL:          0

 AVG_CONGESTED_CYCLE: 12
LOADS RETIRED: 153532848
INSTR RETIRED: 500000000
