
*** ChampSim Multicore Out-of-Order Simulator ***

Warmup Instructions: 100000000
Simulation Instructions: 500000000
Number of CPUs: 1
LLC sets: 2048
LLC ways: 16
Clean RRIP Policies: 2113022021130220 Dirty RRIP Policies: 2123122021231220 PSEL Width: 10 Track Set: 4294967295 PSEL Mask: 1 Demote Mask: 1141402211414022DS Algo: 0Window size: 0
Off-chip DRAM Size: 4096 MB Channels: 1 Width: 64-bit Data Rate: 1600 MT/s

CPU 0 runs /mnt/beegfs/iconst01/spec2017/Wrf.trace.gz
NOT SORTED
TRACE STRING: /mnt/beegfs/iconst01/spec2017/Wrf.trace.gz
SORTED
TRACE STRING: /mnt/beegfs/iconst01/spec2017/Wrf.trace.gz
INITIAL
TRACE STRING: /mnt/beegfs/iconst01/spec2017/Wrf.trace.gz

champsim_seed used: 303

CPU 0 L1D next line prefetcher
CPU 0 L2C IP-based stride prefetcher
Initialize DRRIP state
Assign rand_sets[0]: 454  LLC: 2048
rand_sets[0]: 454
Assign rand_sets[1]: 1662  LLC: 2048
rand_sets[1]: 1662
Assign rand_sets[2]: 1921  LLC: 2048
rand_sets[2]: 1921
Assign rand_sets[3]: 1131  LLC: 2048
rand_sets[3]: 1131
Assign rand_sets[4]: 331  LLC: 2048
rand_sets[4]: 331
Assign rand_sets[5]: 1531  LLC: 2048
rand_sets[5]: 1531
Assign rand_sets[6]: 482  LLC: 2048
rand_sets[6]: 482
Assign rand_sets[7]: 1275  LLC: 2048
rand_sets[7]: 1275
Assign rand_sets[8]: 1876  LLC: 2048
rand_sets[8]: 1876
Assign rand_sets[9]: 2038  LLC: 2048
rand_sets[9]: 2038
Assign rand_sets[10]: 701  LLC: 2048
rand_sets[10]: 701
Assign rand_sets[11]: 479  LLC: 2048
rand_sets[11]: 479
Assign rand_sets[12]: 892  LLC: 2048
rand_sets[12]: 892
Assign rand_sets[13]: 1820  LLC: 2048
rand_sets[13]: 1820
Assign rand_sets[14]: 1505  LLC: 2048
rand_sets[14]: 1505
Assign rand_sets[15]: 1159  LLC: 2048
rand_sets[15]: 1159
Assign rand_sets[16]: 513  LLC: 2048
rand_sets[16]: 513
Assign rand_sets[17]: 703  LLC: 2048
rand_sets[17]: 703
Assign rand_sets[18]: 561  LLC: 2048
rand_sets[18]: 561
Assign rand_sets[19]: 990  LLC: 2048
rand_sets[19]: 990
Assign rand_sets[20]: 342  LLC: 2048
rand_sets[20]: 342
Assign rand_sets[21]: 882  LLC: 2048
rand_sets[21]: 882
Assign rand_sets[22]: 15  LLC: 2048
rand_sets[22]: 15
Assign rand_sets[23]: 71  LLC: 2048
rand_sets[23]: 71
Assign rand_sets[24]: 1127  LLC: 2048
rand_sets[24]: 1127
Assign rand_sets[25]: 1382  LLC: 2048
rand_sets[25]: 1382
Assign rand_sets[26]: 647  LLC: 2048
rand_sets[26]: 647
Assign rand_sets[27]: 857  LLC: 2048
rand_sets[27]: 857
Assign rand_sets[28]: 1450  LLC: 2048
rand_sets[28]: 1450
Assign rand_sets[29]: 1160  LLC: 2048
rand_sets[29]: 1160
Assign rand_sets[30]: 1852  LLC: 2048
rand_sets[30]: 1852
Assign rand_sets[31]: 1881  LLC: 2048
rand_sets[31]: 1881
Assign rand_sets[32]: 1770  LLC: 2048
rand_sets[32]: 1770
Assign rand_sets[33]: 1622  LLC: 2048
rand_sets[33]: 1622
Assign rand_sets[34]: 275  LLC: 2048
rand_sets[34]: 275
Assign rand_sets[35]: 635  LLC: 2048
rand_sets[35]: 635
Assign rand_sets[36]: 466  LLC: 2048
rand_sets[36]: 466
Assign rand_sets[37]: 1413  LLC: 2048
rand_sets[37]: 1413
Assign rand_sets[38]: 417  LLC: 2048
rand_sets[38]: 417
Assign rand_sets[39]: 472  LLC: 2048
rand_sets[39]: 472
Assign rand_sets[40]: 1340  LLC: 2048
rand_sets[40]: 1340
Assign rand_sets[41]: 852  LLC: 2048
rand_sets[41]: 852
Assign rand_sets[42]: 1365  LLC: 2048
rand_sets[42]: 1365
Assign rand_sets[43]: 47  LLC: 2048
rand_sets[43]: 47
Assign rand_sets[44]: 823  LLC: 2048
rand_sets[44]: 823
Assign rand_sets[45]: 686  LLC: 2048
rand_sets[45]: 686
Assign rand_sets[46]: 1637  LLC: 2048
rand_sets[46]: 1637
Assign rand_sets[47]: 1115  LLC: 2048
rand_sets[47]: 1115
Assign rand_sets[48]: 986  LLC: 2048
rand_sets[48]: 986
Assign rand_sets[49]: 258  LLC: 2048
rand_sets[49]: 258
Assign rand_sets[50]: 633  LLC: 2048
rand_sets[50]: 633
Assign rand_sets[51]: 920  LLC: 2048
rand_sets[51]: 920
Assign rand_sets[52]: 204  LLC: 2048
rand_sets[52]: 204
Assign rand_sets[53]: 227  LLC: 2048
rand_sets[53]: 227
Assign rand_sets[54]: 1818  LLC: 2048
rand_sets[54]: 1818
Assign rand_sets[55]: 886  LLC: 2048
rand_sets[55]: 886
Assign rand_sets[56]: 1422  LLC: 2048
rand_sets[56]: 1422
Assign rand_sets[57]: 607  LLC: 2048
rand_sets[57]: 607
Assign rand_sets[58]: 217  LLC: 2048
rand_sets[58]: 217
Assign rand_sets[59]: 1945  LLC: 2048
rand_sets[59]: 1945
Assign rand_sets[60]: 143  LLC: 2048
rand_sets[60]: 143
Assign rand_sets[61]: 1311  LLC: 2048
rand_sets[61]: 1311
Assign rand_sets[62]: 319  LLC: 2048
rand_sets[62]: 319
Assign rand_sets[63]: 1846  LLC: 2048
rand_sets[63]: 1846
 CLEAN-RRIP-POLICY-1: 2-1-1-3-0-2-2-0- CLEAN-RRIP-POLICY-2: 2-1-1-3-0-2-2-0-
 DIRTY-RRIP-POLICY-1: 2-1-2-3-1-2-2-0- DIRTY-RRIP-POLICY-2: 2-1-2-3-1-2-2-0-
 PSEL width: 10
Heartbeat CPU 0 instructions: 10000002 cycles: 6559556 heartbeat IPC: 1.52449 cumulative IPC: 1.52449 (Simulation time: 0 hr 0 min 22 sec) 
Heartbeat CPU 0 instructions: 20000000 cycles: 12222141 heartbeat IPC: 1.76598 cumulative IPC: 1.63637 (Simulation time: 0 hr 0 min 42 sec) 
Heartbeat CPU 0 instructions: 30000003 cycles: 18203947 heartbeat IPC: 1.67174 cumulative IPC: 1.64799 (Simulation time: 0 hr 1 min 3 sec) 
Heartbeat CPU 0 instructions: 40000000 cycles: 24059270 heartbeat IPC: 1.70785 cumulative IPC: 1.66256 (Simulation time: 0 hr 1 min 24 sec) 
Heartbeat CPU 0 instructions: 50000000 cycles: 29527892 heartbeat IPC: 1.82861 cumulative IPC: 1.69331 (Simulation time: 0 hr 1 min 44 sec) 
Heartbeat CPU 0 instructions: 60000000 cycles: 35640731 heartbeat IPC: 1.6359 cumulative IPC: 1.68347 (Simulation time: 0 hr 2 min 6 sec) 
Heartbeat CPU 0 instructions: 70000000 cycles: 41360402 heartbeat IPC: 1.74835 cumulative IPC: 1.69244 (Simulation time: 0 hr 2 min 26 sec) 
Heartbeat CPU 0 instructions: 80000000 cycles: 47231383 heartbeat IPC: 1.70329 cumulative IPC: 1.69379 (Simulation time: 0 hr 2 min 47 sec) 
Heartbeat CPU 0 instructions: 90000000 cycles: 52984930 heartbeat IPC: 1.73806 cumulative IPC: 1.6986 (Simulation time: 0 hr 3 min 8 sec) 
Heartbeat CPU 0 instructions: 100000000 cycles: 58537735 heartbeat IPC: 1.80089 cumulative IPC: 1.7083 (Simulation time: 0 hr 3 min 28 sec) 

Warmup complete CPU 0 instructions: 100000004 cycles: 58537737 (Simulation time: 0 hr 3 min 28 sec) 

Heartbeat CPU 0 instructions: 110000001 cycles: 72665428 heartbeat IPC: 0.70783 cumulative IPC: 0.70783 (Simulation time: 0 hr 3 min 54 sec) 
Heartbeat CPU 0 instructions: 120000000 cycles: 83933015 heartbeat IPC: 0.887501 cumulative IPC: 0.787548 (Simulation time: 0 hr 4 min 18 sec) 
Heartbeat CPU 0 instructions: 130000000 cycles: 94014237 heartbeat IPC: 0.991943 cumulative IPC: 0.84563 (Simulation time: 0 hr 4 min 41 sec) 
Heartbeat CPU 0 instructions: 140000000 cycles: 105212902 heartbeat IPC: 0.892964 cumulative IPC: 0.856987 (Simulation time: 0 hr 5 min 5 sec) 
Heartbeat CPU 0 instructions: 150000002 cycles: 116764875 heartbeat IPC: 0.865653 cumulative IPC: 0.858706 (Simulation time: 0 hr 5 min 29 sec) 
Heartbeat CPU 0 instructions: 160000000 cycles: 125883461 heartbeat IPC: 1.09666 cumulative IPC: 0.890925 (Simulation time: 0 hr 5 min 52 sec) 
Heartbeat CPU 0 instructions: 170000003 cycles: 136996415 heartbeat IPC: 0.899851 cumulative IPC: 0.892189 (Simulation time: 0 hr 6 min 15 sec) 
Heartbeat CPU 0 instructions: 180000000 cycles: 149943670 heartbeat IPC: 0.772364 cumulative IPC: 0.875217 (Simulation time: 0 hr 6 min 40 sec) 
Heartbeat CPU 0 instructions: 190000000 cycles: 165027102 heartbeat IPC: 0.662979 cumulative IPC: 0.845155 (Simulation time: 0 hr 7 min 4 sec) 
Heartbeat CPU 0 instructions: 200000000 cycles: 180098512 heartbeat IPC: 0.663508 cumulative IPC: 0.822634 (Simulation time: 0 hr 7 min 29 sec) 
Heartbeat CPU 0 instructions: 210000000 cycles: 195129995 heartbeat IPC: 0.66527 cumulative IPC: 0.805316 (Simulation time: 0 hr 7 min 53 sec) 
Heartbeat CPU 0 instructions: 220000000 cycles: 210991912 heartbeat IPC: 0.630441 cumulative IPC: 0.787122 (Simulation time: 0 hr 8 min 19 sec) 
Heartbeat CPU 0 instructions: 230000003 cycles: 230268117 heartbeat IPC: 0.518774 cumulative IPC: 0.757001 (Simulation time: 0 hr 8 min 48 sec) 
Heartbeat CPU 0 instructions: 240000000 cycles: 240060767 heartbeat IPC: 1.02117 cumulative IPC: 0.771252 (Simulation time: 0 hr 9 min 11 sec) 
Heartbeat CPU 0 instructions: 250000000 cycles: 249345063 heartbeat IPC: 1.07709 cumulative IPC: 0.786133 (Simulation time: 0 hr 9 min 33 sec) 
Heartbeat CPU 0 instructions: 260000000 cycles: 259107029 heartbeat IPC: 1.02438 cumulative IPC: 0.797729 (Simulation time: 0 hr 9 min 55 sec) 
Heartbeat CPU 0 instructions: 270000000 cycles: 269026493 heartbeat IPC: 1.00812 cumulative IPC: 0.807644 (Simulation time: 0 hr 10 min 18 sec) 
Heartbeat CPU 0 instructions: 280000000 cycles: 278693993 heartbeat IPC: 1.03439 cumulative IPC: 0.817601 (Simulation time: 0 hr 10 min 42 sec) 
Heartbeat CPU 0 instructions: 290000000 cycles: 288791469 heartbeat IPC: 0.990346 cumulative IPC: 0.825177 (Simulation time: 0 hr 11 min 7 sec) 
Heartbeat CPU 0 instructions: 300000000 cycles: 297523174 heartbeat IPC: 1.14525 cumulative IPC: 0.836871 (Simulation time: 0 hr 11 min 29 sec) 
Heartbeat CPU 0 instructions: 310000002 cycles: 311295451 heartbeat IPC: 0.726097 cumulative IPC: 0.830835 (Simulation time: 0 hr 11 min 56 sec) 
Heartbeat CPU 0 instructions: 320000000 cycles: 327567194 heartbeat IPC: 0.614562 cumulative IPC: 0.817754 (Simulation time: 0 hr 12 min 25 sec) 
Heartbeat CPU 0 instructions: 330000002 cycles: 338220365 heartbeat IPC: 0.938688 cumulative IPC: 0.822361 (Simulation time: 0 hr 12 min 48 sec) 
Heartbeat CPU 0 instructions: 340000000 cycles: 348629536 heartbeat IPC: 0.960691 cumulative IPC: 0.827324 (Simulation time: 0 hr 13 min 12 sec) 
Heartbeat CPU 0 instructions: 350000002 cycles: 361178958 heartbeat IPC: 0.79685 cumulative IPC: 0.826061 (Simulation time: 0 hr 13 min 38 sec) 
Heartbeat CPU 0 instructions: 360000000 cycles: 372596882 heartbeat IPC: 0.875816 cumulative IPC: 0.82787 (Simulation time: 0 hr 14 min 2 sec) 
Heartbeat CPU 0 instructions: 370000002 cycles: 383323990 heartbeat IPC: 0.932218 cumulative IPC: 0.831316 (Simulation time: 0 hr 14 min 26 sec) 
Heartbeat CPU 0 instructions: 380000000 cycles: 393727866 heartbeat IPC: 0.96118 cumulative IPC: 0.835347 (Simulation time: 0 hr 14 min 50 sec) 
Heartbeat CPU 0 instructions: 390000003 cycles: 410801353 heartbeat IPC: 0.585704 cumulative IPC: 0.823247 (Simulation time: 0 hr 15 min 19 sec) 
Heartbeat CPU 0 instructions: 400000000 cycles: 422057140 heartbeat IPC: 0.888432 cumulative IPC: 0.825265 (Simulation time: 0 hr 15 min 42 sec) 
Heartbeat CPU 0 instructions: 410000002 cycles: 432477601 heartbeat IPC: 0.959651 cumulative IPC: 0.82901 (Simulation time: 0 hr 16 min 5 sec) 
Heartbeat CPU 0 instructions: 420000000 cycles: 443036383 heartbeat IPC: 0.947079 cumulative IPC: 0.832253 (Simulation time: 0 hr 16 min 27 sec) 
Heartbeat CPU 0 instructions: 430000003 cycles: 453632328 heartbeat IPC: 0.943758 cumulative IPC: 0.835243 (Simulation time: 0 hr 16 min 49 sec) 
Heartbeat CPU 0 instructions: 440000000 cycles: 465921870 heartbeat IPC: 0.8137 cumulative IPC: 0.834593 (Simulation time: 0 hr 17 min 13 sec) 
Heartbeat CPU 0 instructions: 450000002 cycles: 481022226 heartbeat IPC: 0.662236 cumulative IPC: 0.828433 (Simulation time: 0 hr 17 min 37 sec) 
Heartbeat CPU 0 instructions: 460000000 cycles: 496100052 heartbeat IPC: 0.663225 cumulative IPC: 0.82274 (Simulation time: 0 hr 18 min 1 sec) 
Heartbeat CPU 0 instructions: 470000003 cycles: 511123801 heartbeat IPC: 0.665613 cumulative IPC: 0.817524 (Simulation time: 0 hr 18 min 25 sec) 
Heartbeat CPU 0 instructions: 480000000 cycles: 527023631 heartbeat IPC: 0.628937 cumulative IPC: 0.811124 (Simulation time: 0 hr 18 min 51 sec) 
Heartbeat CPU 0 instructions: 490000002 cycles: 546382828 heartbeat IPC: 0.51655 cumulative IPC: 0.799434 (Simulation time: 0 hr 19 min 20 sec) 
Heartbeat CPU 0 instructions: 500000000 cycles: 556117032 heartbeat IPC: 1.02731 cumulative IPC: 0.803892 (Simulation time: 0 hr 19 min 42 sec) 
Heartbeat CPU 0 instructions: 510000002 cycles: 565448404 heartbeat IPC: 1.07165 cumulative IPC: 0.808821 (Simulation time: 0 hr 20 min 4 sec) 
Heartbeat CPU 0 instructions: 520000000 cycles: 575202647 heartbeat IPC: 1.02519 cumulative IPC: 0.812906 (Simulation time: 0 hr 20 min 26 sec) 
Heartbeat CPU 0 instructions: 530000002 cycles: 585132625 heartbeat IPC: 1.00705 cumulative IPC: 0.816567 (Simulation time: 0 hr 20 min 49 sec) 
Heartbeat CPU 0 instructions: 540000000 cycles: 594742300 heartbeat IPC: 1.04062 cumulative IPC: 0.820582 (Simulation time: 0 hr 21 min 13 sec) 
Heartbeat CPU 0 instructions: 550000002 cycles: 604875845 heartbeat IPC: 0.986822 cumulative IPC: 0.823666 (Simulation time: 0 hr 21 min 37 sec) 
Heartbeat CPU 0 instructions: 560000000 cycles: 613615248 heartbeat IPC: 1.14424 cumulative IPC: 0.828713 (Simulation time: 0 hr 21 min 59 sec) 
Heartbeat CPU 0 instructions: 570000001 cycles: 627207909 heartbeat IPC: 0.735691 cumulative IPC: 0.82649 (Simulation time: 0 hr 22 min 25 sec) 
Heartbeat CPU 0 instructions: 580000000 cycles: 643627572 heartbeat IPC: 0.609026 cumulative IPC: 0.820387 (Simulation time: 0 hr 22 min 54 sec) 
Heartbeat CPU 0 instructions: 590000002 cycles: 653869737 heartbeat IPC: 0.976356 cumulative IPC: 0.82307 (Simulation time: 0 hr 23 min 17 sec) 
Heartbeat CPU 0 instructions: 600000000 cycles: 664691458 heartbeat IPC: 0.924067 cumulative IPC: 0.824873 (Simulation time: 0 hr 23 min 41 sec) 
Finished CPU 0 instructions: 500000000 cycles: 606153740 cumulative IPC: 0.824873 (Simulation time: 0 hr 23 min 41 sec) 

CPU 0 Branch Prediction Accuracy: 99.5219% MPKI: 0.251582
Number of Branches: 26312578 Number of Mispredictions: 125791
Number of LOAD Instructions: 235643083
Number of LOAD Instructions (ROI): 235643083
Number of STORE Instructions: 37593550
Number of STORE Instructions (ROI): 37593550
Total Destination Memory Operands: 40480968
Total Destination Memory Operands (ROI): 40480968
Total Source Memory Operands: 235643083
Total Source Memory Operands (ROI): 235643083
Number of DEPENDED LOADS: 6702938
Number of DEPENDED LOADS (ROI): 6702938
Number of SQ_ADDED: 40480950
Number of SQ_ADDED (ROI): 40480950
Number of LQ_ADDED: 389333069
Number of LQ_ADDED (ROI): 389333069
Number of Instructions read from trace: 600000259

ChampSim completed all CPUs

Region of Interest Statistics

CPU 0 cumulative IPC: 0.824873 instructions: 500000000 cycles: 606153740
ITLB TOTAL     ACCESS:  109381050  HIT:  109380537  MISS:        513
ITLB LOAD      ACCESS:  109381050  HIT:  109380537  MISS:        513
ITLB RFO       ACCESS:          0  HIT:          0  MISS:          0
ITLB PREFETCH  ACCESS:          0  HIT:          0  MISS:          0
ITLB WRITEBACK ACCESS:          0  HIT:          0  MISS:          0
ITLB PREFETCH  REQUESTED:          0  ISSUED:          0  USEFUL:          0  USELESS:          0
ITLB TOTAL MSHR MERGED:        973
ITLB LOAD MSHR MERGED:        973
ITLB RFO MSHR MERGED:          0
ITLB PREFETCH MSHR MERGED:          0
ITLB WRITEBACK MSHR MERGED:          0
ITLB TOTAL ACCESSES:  109382023 HITS:  109380537 MISSES:       1486
ITLB LOAD ACCESSES:  109382023 HITS:  109380537 MISSES:       1486
ITLB RFO ACCESSES:          0 HITS:          0 MISSES:          0
ITLB PREFETCH ACCESSES:          0 HITS:          0 MISSES:          0
ITLB WRITEBACK ACCESSES:          0 HITS:          0 MISSES:          0
ITLB RQ ACCESS:  500000003
ITLB RQ TO_CACHE:  109382023
ITLB RQ MERGED:  390617980
ITLB RQ FORWARD:          0
ITLB WQ ACCESS:          0
ITLB WQ TO_CACHE:          0
ITLB WQ MERGED:          0
ITLB WQ FORWARD:          0
DTLB TOTAL     ACCESS:  130402469  HIT:  130144739  MISS:     257730
DTLB LOAD      ACCESS:  109029740  HIT:  108808880  MISS:     220860
DTLB RFO       ACCESS:   21372729  HIT:   21335859  MISS:      36870
DTLB PREFETCH  ACCESS:          0  HIT:          0  MISS:          0
DTLB WRITEBACK ACCESS:          0  HIT:          0  MISS:          0
DTLB PREFETCH  REQUESTED:          0  ISSUED:          0  USEFUL:          0  USELESS:          0
DTLB TOTAL MSHR MERGED:     121896
DTLB LOAD MSHR MERGED:      84098
DTLB RFO MSHR MERGED:      37798
DTLB PREFETCH MSHR MERGED:          0
DTLB WRITEBACK MSHR MERGED:          0
DTLB TOTAL ACCESSES:  130524365 HITS:  130144739 MISSES:     379626
DTLB LOAD ACCESSES:  109113838 HITS:  108808880 MISSES:     304958
DTLB RFO ACCESSES:   21410527 HITS:   21335859 MISSES:      74668
DTLB PREFETCH ACCESSES:          0 HITS:          0 MISSES:          0
DTLB WRITEBACK ACCESSES:          0 HITS:          0 MISSES:          0
DTLB RQ ACCESS:  218631486
DTLB RQ TO_CACHE:  130524366
DTLB RQ MERGED:   88107120
DTLB RQ FORWARD:          0
DTLB WQ ACCESS:          0
DTLB WQ TO_CACHE:          0
DTLB WQ MERGED:          0
DTLB WQ FORWARD:          0
L1D TOTAL     ACCESS:  204632715  HIT:  193557637  MISS:   11075078
L1D LOAD      ACCESS:  106256635  HIT:  103080187  MISS:    3176448
L1D RFO       ACCESS:   26973900  HIT:   25222577  MISS:    1751323
L1D PREFETCH  ACCESS:   71402180  HIT:   65254873  MISS:    6147307
L1D WRITEBACK ACCESS:          0  HIT:          0  MISS:          0
L1D PREFETCH  REQUESTED:  108936419  ISSUED:  107268105  USEFUL:    5691133  USELESS:     456168
L1D TOTAL MSHR MERGED:   18370635
L1D LOAD MSHR MERGED:    4693100
L1D RFO MSHR MERGED:    6455518
L1D PREFETCH MSHR MERGED:    7222017
L1D WRITEBACK MSHR MERGED:          0
L1D TOTAL ACCESSES:  223067582 HITS:  193621869 MISSES:   29445713
L1D LOAD ACCESSES:  108964508 HITS:  103108276 MISSES:    5856232
L1D RFO ACCESSES:   33426736 HITS:   25222577 MISSES:    8204159
L1D PREFETCH ACCESSES:   80676338 HITS:   65291016 MISSES:   15385322
L1D WRITEBACK ACCESSES:          0 HITS:          0 MISSES:          0
L1D RQ ACCESS:  184988048
L1D RQ TO_CACHE:  108936419
L1D RQ MERGED:   76023540
L1D RQ FORWARD:          0
L1D WQ ACCESS:   33643426
L1D WQ TO_CACHE:   33426735
L1D WQ MERGED:     216691
L1D WQ FORWARD:      64232
L1I TOTAL     ACCESS:  134064373  HIT:  134039796  MISS:      24577
L1I LOAD      ACCESS:  134064373  HIT:  134039796  MISS:      24577
L1I RFO       ACCESS:          0  HIT:          0  MISS:          0
L1I PREFETCH  ACCESS:          0  HIT:          0  MISS:          0
L1I WRITEBACK ACCESS:          0  HIT:          0  MISS:          0
L1I PREFETCH  REQUESTED:          0  ISSUED:          0  USEFUL:          0  USELESS:          0
L1I TOTAL MSHR MERGED:      30479
L1I LOAD MSHR MERGED:      30479
L1I RFO MSHR MERGED:          0
L1I PREFETCH MSHR MERGED:          0
L1I WRITEBACK MSHR MERGED:          0
L1I TOTAL ACCESSES:  134094852 HITS:  134039796 MISSES:      55056
L1I LOAD ACCESSES:  134094852 HITS:  134039796 MISSES:      55056
L1I RFO ACCESSES:          0 HITS:          0 MISSES:          0
L1I PREFETCH ACCESSES:          0 HITS:          0 MISSES:          0
L1I WRITEBACK ACCESSES:          0 HITS:          0 MISSES:          0
L1I RQ ACCESS:  500000005
L1I RQ TO_CACHE:  134094852
L1I RQ MERGED:  365905153
L1I RQ FORWARD:          0
L1I WQ ACCESS:          0
L1I WQ TO_CACHE:          0
L1I WQ MERGED:          0
L1I WQ FORWARD:          0
L2C TOTAL     ACCESS:   14942680  HIT:    6944429  MISS:    7998251
L2C LOAD      ACCESS:    1187510  HIT:     298171  MISS:     889339
L2C RFO       ACCESS:    1748431  HIT:     369290  MISS:    1379141
L2C PREFETCH  ACCESS:    8324758  HIT:    2603685  MISS:    5721073
L2C WRITEBACK ACCESS:    3681981  HIT:    3673283  MISS:       8698
L2C PREFETCH  REQUESTED:     389542  ISSUED:     389539  USEFUL:     114261  USELESS:    5607645
L2C TOTAL MSHR MERGED:      40297
L2C LOAD MSHR MERGED:       1869
L2C RFO MSHR MERGED:       1216
L2C PREFETCH MSHR MERGED:      37212
L2C WRITEBACK MSHR MERGED:          0
L2C TOTAL ACCESSES:   15108326 HITS:    6945099 MISSES:    8163227
L2C LOAD ACCESSES:    1187709 HITS:     298370 MISSES:     889339
L2C RFO ACCESSES:    1748641 HITS:     369500 MISSES:    1379141
L2C PREFETCH ACCESSES:    8489995 HITS:    2603946 MISSES:    5886049
L2C WRITEBACK ACCESSES:    3681981 HITS:    3673283 MISSES:       8698
L2C RQ ACCESS:    2936350
L2C RQ TO_CACHE:    2935941
L2C RQ MERGED:          0
L2C RQ FORWARD:          0
L2C WQ ACCESS:    3681981
L2C WQ TO_CACHE:    3681981
L2C WQ MERGED:          0
L2C WQ FORWARD:        670
LLC TOTAL     ACCESS:   11187517  HIT:    2732207  MISS:    8455310
LLC LOAD      ACCESS:     887465  HIT:     240597  MISS:     646868
LLC RFO       ACCESS:    1377924  HIT:     205830  MISS:    1172094
LLC PREFETCH  ACCESS:    5816741  HIT:    1015466  MISS:    4801275
LLC WRITEBACK ACCESS:    3105387  HIT:    1270314  MISS:    1835073
LLC PREFETCH  REQUESTED:          0  ISSUED:          0  USEFUL:      24940  USELESS:    4775721
LLC TOTAL MSHR MERGED:      24942
LLC LOAD MSHR MERGED:       7813
LLC RFO MSHR MERGED:        569
LLC PREFETCH MSHR MERGED:      16560
LLC WRITEBACK MSHR MERGED:          0
LLC TOTAL ACCESSES:   11212478 HITS:    2732226 MISSES:    8480252
LLC LOAD ACCESSES:     887470 HITS:     240602 MISSES:     646868
LLC RFO ACCESSES:    1377925 HITS:     205831 MISSES:    1172094
LLC PREFETCH ACCESSES:    5841696 HITS:    1015479 MISSES:    4826217
LLC WRITEBACK ACCESSES:    3105387 HITS:    1270314 MISSES:    1835073
LLC 0 RQ ACCESS:    2265395
LLC 0 RQ TO_CACHE:    2265389
LLC 0 RQ MERGED:          0
LLC 0 RQ FORWARD:          0
LLC WQ ACCESS:    3105387
LLC WQ TO_CACHE:    3105387
LLC WQ MERGED:          0
LLC WQ FORWARD:         19
Major fault: 0 Minor fault: 11519
CPU 0 L1D next line prefetcher final stats
CPU 0 L2C PC-based stride prefetcher final stats
All Misses: 10562327
All Hits: 3236453
SD Algo Stats - Switches: 0 SRR-Repls: 731557 BRR-Repls: 0

DRAM Statistics
 CHANNEL 0
 RQ ROW_BUFFER_HIT:    4049588  ROW_BUFFER_MISS:    2569391
 DBUS_CONGESTED:    4567080
 WQ ROW_BUFFER_HIT:     404267  ROW_BUFFER_MISS:    1858120  FULL:       1247

 AVG_CONGESTED_CYCLE: 13
LOADS RETIRED: 190375692
INSTR RETIRED: 500000000
