
*** ChampSim Multicore Out-of-Order Simulator ***

Warmup Instructions: 100000000
Simulation Instructions: 500000000
Number of CPUs: 1
LLC sets: 2048
LLC ways: 16
Clean RRIP Policies: 1012232110122321 Dirty RRIP Policies: 22132100221321 PSEL Width: 10 Track Set: 4294967295 PSEL Mask: 1 Demote Mask: 4013204340132043DS Algo: 0Window size: 0
Off-chip DRAM Size: 4096 MB Channels: 1 Width: 64-bit Data Rate: 1600 MT/s

CPU 0 runs /mnt/beegfs/iconst01/spec2017/Parest.trace.gz
NOT SORTED
TRACE STRING: /mnt/beegfs/iconst01/spec2017/Parest.trace.gz
SORTED
TRACE STRING: /mnt/beegfs/iconst01/spec2017/Parest.trace.gz
INITIAL
TRACE STRING: /mnt/beegfs/iconst01/spec2017/Parest.trace.gz

champsim_seed used: 623

CPU 0 L1D next line prefetcher
CPU 0 L2C IP-based stride prefetcher
Initialize DRRIP state
Assign rand_sets[0]: 454  LLC: 2048
rand_sets[0]: 454
Assign rand_sets[1]: 1662  LLC: 2048
rand_sets[1]: 1662
Assign rand_sets[2]: 1921  LLC: 2048
rand_sets[2]: 1921
Assign rand_sets[3]: 1131  LLC: 2048
rand_sets[3]: 1131
Assign rand_sets[4]: 331  LLC: 2048
rand_sets[4]: 331
Assign rand_sets[5]: 1531  LLC: 2048
rand_sets[5]: 1531
Assign rand_sets[6]: 482  LLC: 2048
rand_sets[6]: 482
Assign rand_sets[7]: 1275  LLC: 2048
rand_sets[7]: 1275
Assign rand_sets[8]: 1876  LLC: 2048
rand_sets[8]: 1876
Assign rand_sets[9]: 2038  LLC: 2048
rand_sets[9]: 2038
Assign rand_sets[10]: 701  LLC: 2048
rand_sets[10]: 701
Assign rand_sets[11]: 479  LLC: 2048
rand_sets[11]: 479
Assign rand_sets[12]: 892  LLC: 2048
rand_sets[12]: 892
Assign rand_sets[13]: 1820  LLC: 2048
rand_sets[13]: 1820
Assign rand_sets[14]: 1505  LLC: 2048
rand_sets[14]: 1505
Assign rand_sets[15]: 1159  LLC: 2048
rand_sets[15]: 1159
Assign rand_sets[16]: 513  LLC: 2048
rand_sets[16]: 513
Assign rand_sets[17]: 703  LLC: 2048
rand_sets[17]: 703
Assign rand_sets[18]: 561  LLC: 2048
rand_sets[18]: 561
Assign rand_sets[19]: 990  LLC: 2048
rand_sets[19]: 990
Assign rand_sets[20]: 342  LLC: 2048
rand_sets[20]: 342
Assign rand_sets[21]: 882  LLC: 2048
rand_sets[21]: 882
Assign rand_sets[22]: 15  LLC: 2048
rand_sets[22]: 15
Assign rand_sets[23]: 71  LLC: 2048
rand_sets[23]: 71
Assign rand_sets[24]: 1127  LLC: 2048
rand_sets[24]: 1127
Assign rand_sets[25]: 1382  LLC: 2048
rand_sets[25]: 1382
Assign rand_sets[26]: 647  LLC: 2048
rand_sets[26]: 647
Assign rand_sets[27]: 857  LLC: 2048
rand_sets[27]: 857
Assign rand_sets[28]: 1450  LLC: 2048
rand_sets[28]: 1450
Assign rand_sets[29]: 1160  LLC: 2048
rand_sets[29]: 1160
Assign rand_sets[30]: 1852  LLC: 2048
rand_sets[30]: 1852
Assign rand_sets[31]: 1881  LLC: 2048
rand_sets[31]: 1881
Assign rand_sets[32]: 1770  LLC: 2048
rand_sets[32]: 1770
Assign rand_sets[33]: 1622  LLC: 2048
rand_sets[33]: 1622
Assign rand_sets[34]: 275  LLC: 2048
rand_sets[34]: 275
Assign rand_sets[35]: 635  LLC: 2048
rand_sets[35]: 635
Assign rand_sets[36]: 466  LLC: 2048
rand_sets[36]: 466
Assign rand_sets[37]: 1413  LLC: 2048
rand_sets[37]: 1413
Assign rand_sets[38]: 417  LLC: 2048
rand_sets[38]: 417
Assign rand_sets[39]: 472  LLC: 2048
rand_sets[39]: 472
Assign rand_sets[40]: 1340  LLC: 2048
rand_sets[40]: 1340
Assign rand_sets[41]: 852  LLC: 2048
rand_sets[41]: 852
Assign rand_sets[42]: 1365  LLC: 2048
rand_sets[42]: 1365
Assign rand_sets[43]: 47  LLC: 2048
rand_sets[43]: 47
Assign rand_sets[44]: 823  LLC: 2048
rand_sets[44]: 823
Assign rand_sets[45]: 686  LLC: 2048
rand_sets[45]: 686
Assign rand_sets[46]: 1637  LLC: 2048
rand_sets[46]: 1637
Assign rand_sets[47]: 1115  LLC: 2048
rand_sets[47]: 1115
Assign rand_sets[48]: 986  LLC: 2048
rand_sets[48]: 986
Assign rand_sets[49]: 258  LLC: 2048
rand_sets[49]: 258
Assign rand_sets[50]: 633  LLC: 2048
rand_sets[50]: 633
Assign rand_sets[51]: 920  LLC: 2048
rand_sets[51]: 920
Assign rand_sets[52]: 204  LLC: 2048
rand_sets[52]: 204
Assign rand_sets[53]: 227  LLC: 2048
rand_sets[53]: 227
Assign rand_sets[54]: 1818  LLC: 2048
rand_sets[54]: 1818
Assign rand_sets[55]: 886  LLC: 2048
rand_sets[55]: 886
Assign rand_sets[56]: 1422  LLC: 2048
rand_sets[56]: 1422
Assign rand_sets[57]: 607  LLC: 2048
rand_sets[57]: 607
Assign rand_sets[58]: 217  LLC: 2048
rand_sets[58]: 217
Assign rand_sets[59]: 1945  LLC: 2048
rand_sets[59]: 1945
Assign rand_sets[60]: 143  LLC: 2048
rand_sets[60]: 143
Assign rand_sets[61]: 1311  LLC: 2048
rand_sets[61]: 1311
Assign rand_sets[62]: 319  LLC: 2048
rand_sets[62]: 319
Assign rand_sets[63]: 1846  LLC: 2048
rand_sets[63]: 1846
 CLEAN-RRIP-POLICY-1: 1-0-1-2-2-3-2-1- CLEAN-RRIP-POLICY-2: 1-0-1-2-2-3-2-1-
 DIRTY-RRIP-POLICY-1: 0-0-2-2-1-3-2-1- DIRTY-RRIP-POLICY-2: 0-0-2-2-1-3-2-1-
 PSEL width: 10
Heartbeat CPU 0 instructions: 10000001 cycles: 4386614 heartbeat IPC: 2.27966 cumulative IPC: 2.27966 (Simulation time: 0 hr 0 min 14 sec) 
Heartbeat CPU 0 instructions: 20000000 cycles: 8779625 heartbeat IPC: 2.27634 cumulative IPC: 2.278 (Simulation time: 0 hr 0 min 28 sec) 
Heartbeat CPU 0 instructions: 30000003 cycles: 13211210 heartbeat IPC: 2.25653 cumulative IPC: 2.2708 (Simulation time: 0 hr 0 min 42 sec) 
Heartbeat CPU 0 instructions: 40000000 cycles: 17641186 heartbeat IPC: 2.25735 cumulative IPC: 2.26742 (Simulation time: 0 hr 0 min 56 sec) 
Heartbeat CPU 0 instructions: 50000000 cycles: 22048717 heartbeat IPC: 2.26884 cumulative IPC: 2.26771 (Simulation time: 0 hr 1 min 10 sec) 
Heartbeat CPU 0 instructions: 60000000 cycles: 26453843 heartbeat IPC: 2.27008 cumulative IPC: 2.2681 (Simulation time: 0 hr 1 min 23 sec) 
Heartbeat CPU 0 instructions: 70000000 cycles: 30854334 heartbeat IPC: 2.27247 cumulative IPC: 2.26872 (Simulation time: 0 hr 1 min 37 sec) 
Heartbeat CPU 0 instructions: 80000000 cycles: 35249540 heartbeat IPC: 2.27521 cumulative IPC: 2.26953 (Simulation time: 0 hr 1 min 51 sec) 
Heartbeat CPU 0 instructions: 90000000 cycles: 39642869 heartbeat IPC: 2.27618 cumulative IPC: 2.27027 (Simulation time: 0 hr 2 min 5 sec) 
Heartbeat CPU 0 instructions: 100000000 cycles: 44039786 heartbeat IPC: 2.27432 cumulative IPC: 2.27067 (Simulation time: 0 hr 2 min 19 sec) 

Warmup complete CPU 0 instructions: 100000002 cycles: 44039796 (Simulation time: 0 hr 2 min 19 sec) 

Heartbeat CPU 0 instructions: 110000000 cycles: 54631817 heartbeat IPC: 0.944106 cumulative IPC: 0.944107 (Simulation time: 0 hr 2 min 37 sec) 
Heartbeat CPU 0 instructions: 120000000 cycles: 64597692 heartbeat IPC: 1.00342 cumulative IPC: 0.972862 (Simulation time: 0 hr 2 min 55 sec) 
Heartbeat CPU 0 instructions: 130000000 cycles: 74473872 heartbeat IPC: 1.01254 cumulative IPC: 0.985737 (Simulation time: 0 hr 3 min 13 sec) 
Heartbeat CPU 0 instructions: 140000000 cycles: 84395603 heartbeat IPC: 1.00789 cumulative IPC: 0.991183 (Simulation time: 0 hr 3 min 31 sec) 
Heartbeat CPU 0 instructions: 150000000 cycles: 96292188 heartbeat IPC: 0.840577 cumulative IPC: 0.956894 (Simulation time: 0 hr 3 min 49 sec) 
Heartbeat CPU 0 instructions: 160000000 cycles: 107419519 heartbeat IPC: 0.898688 cumulative IPC: 0.946675 (Simulation time: 0 hr 4 min 8 sec) 
Heartbeat CPU 0 instructions: 170000000 cycles: 118387259 heartbeat IPC: 0.911765 cumulative IPC: 0.941525 (Simulation time: 0 hr 4 min 26 sec) 
Heartbeat CPU 0 instructions: 180000000 cycles: 129281461 heartbeat IPC: 0.917919 cumulative IPC: 0.938508 (Simulation time: 0 hr 4 min 44 sec) 
Heartbeat CPU 0 instructions: 190000002 cycles: 140158225 heartbeat IPC: 0.919391 cumulative IPC: 0.936345 (Simulation time: 0 hr 5 min 2 sec) 
Heartbeat CPU 0 instructions: 200000000 cycles: 150391381 heartbeat IPC: 0.977215 cumulative IPC: 0.940277 (Simulation time: 0 hr 5 min 20 sec) 
Heartbeat CPU 0 instructions: 210000000 cycles: 161086914 heartbeat IPC: 0.93497 cumulative IPC: 0.939792 (Simulation time: 0 hr 5 min 38 sec) 
Heartbeat CPU 0 instructions: 220000000 cycles: 170960867 heartbeat IPC: 1.01277 cumulative IPC: 0.945469 (Simulation time: 0 hr 5 min 56 sec) 
Heartbeat CPU 0 instructions: 230000001 cycles: 182828928 heartbeat IPC: 0.842598 cumulative IPC: 0.936673 (Simulation time: 0 hr 6 min 15 sec) 
Heartbeat CPU 0 instructions: 240000000 cycles: 194107112 heartbeat IPC: 0.886667 cumulative IPC: 0.932915 (Simulation time: 0 hr 6 min 33 sec) 
Heartbeat CPU 0 instructions: 250000002 cycles: 205077653 heartbeat IPC: 0.911532 cumulative IPC: 0.931458 (Simulation time: 0 hr 6 min 52 sec) 
Heartbeat CPU 0 instructions: 260000000 cycles: 215833147 heartbeat IPC: 0.929757 cumulative IPC: 0.931352 (Simulation time: 0 hr 7 min 10 sec) 
Heartbeat CPU 0 instructions: 270000001 cycles: 226392900 heartbeat IPC: 0.946992 cumulative IPC: 0.932257 (Simulation time: 0 hr 7 min 28 sec) 
Heartbeat CPU 0 instructions: 280000000 cycles: 237189941 heartbeat IPC: 0.92618 cumulative IPC: 0.931917 (Simulation time: 0 hr 7 min 46 sec) 
Heartbeat CPU 0 instructions: 290000002 cycles: 247198552 heartbeat IPC: 0.99914 cumulative IPC: 0.935229 (Simulation time: 0 hr 8 min 4 sec) 
Heartbeat CPU 0 instructions: 300000000 cycles: 257740497 heartbeat IPC: 0.948591 cumulative IPC: 0.935888 (Simulation time: 0 hr 8 min 22 sec) 
Heartbeat CPU 0 instructions: 310000000 cycles: 267640546 heartbeat IPC: 1.0101 cumulative IPC: 0.939174 (Simulation time: 0 hr 8 min 40 sec) 
Heartbeat CPU 0 instructions: 320000000 cycles: 277487435 heartbeat IPC: 1.01555 cumulative IPC: 0.942395 (Simulation time: 0 hr 8 min 58 sec) 
Heartbeat CPU 0 instructions: 330000003 cycles: 287503826 heartbeat IPC: 0.998364 cumulative IPC: 0.944698 (Simulation time: 0 hr 9 min 16 sec) 
Heartbeat CPU 0 instructions: 340000000 cycles: 298129154 heartbeat IPC: 0.941147 cumulative IPC: 0.94455 (Simulation time: 0 hr 9 min 34 sec) 
Heartbeat CPU 0 instructions: 350000000 cycles: 309486997 heartbeat IPC: 0.880449 cumulative IPC: 0.941807 (Simulation time: 0 hr 9 min 52 sec) 
Heartbeat CPU 0 instructions: 360000000 cycles: 320467888 heartbeat IPC: 0.910673 cumulative IPC: 0.94057 (Simulation time: 0 hr 10 min 10 sec) 
Heartbeat CPU 0 instructions: 370000000 cycles: 331195829 heartbeat IPC: 0.932145 cumulative IPC: 0.940255 (Simulation time: 0 hr 10 min 28 sec) 
Heartbeat CPU 0 instructions: 380000000 cycles: 341702124 heartbeat IPC: 0.95181 cumulative IPC: 0.940663 (Simulation time: 0 hr 10 min 46 sec) 
Heartbeat CPU 0 instructions: 390000002 cycles: 351861785 heartbeat IPC: 0.984285 cumulative IPC: 0.942103 (Simulation time: 0 hr 11 min 4 sec) 
Heartbeat CPU 0 instructions: 400000000 cycles: 362475760 heartbeat IPC: 0.942154 cumulative IPC: 0.942105 (Simulation time: 0 hr 11 min 22 sec) 
Heartbeat CPU 0 instructions: 410000000 cycles: 372336546 heartbeat IPC: 1.01412 cumulative IPC: 0.944268 (Simulation time: 0 hr 11 min 40 sec) 
Heartbeat CPU 0 instructions: 420000000 cycles: 383332255 heartbeat IPC: 0.909446 cumulative IPC: 0.943139 (Simulation time: 0 hr 11 min 59 sec) 
Heartbeat CPU 0 instructions: 430000000 cycles: 394985059 heartbeat IPC: 0.858163 cumulative IPC: 0.940318 (Simulation time: 0 hr 12 min 17 sec) 
Heartbeat CPU 0 instructions: 440000000 cycles: 405965282 heartbeat IPC: 0.910728 cumulative IPC: 0.93942 (Simulation time: 0 hr 12 min 35 sec) 
Heartbeat CPU 0 instructions: 450000000 cycles: 416861113 heartbeat IPC: 0.917782 cumulative IPC: 0.938788 (Simulation time: 0 hr 12 min 53 sec) 
Heartbeat CPU 0 instructions: 460000000 cycles: 427707253 heartbeat IPC: 0.921987 cumulative IPC: 0.938313 (Simulation time: 0 hr 13 min 11 sec) 
Heartbeat CPU 0 instructions: 470000001 cycles: 438511107 heartbeat IPC: 0.925596 cumulative IPC: 0.937964 (Simulation time: 0 hr 13 min 30 sec) 
Heartbeat CPU 0 instructions: 480000000 cycles: 448628172 heartbeat IPC: 0.988429 cumulative IPC: 0.939226 (Simulation time: 0 hr 13 min 48 sec) 
Heartbeat CPU 0 instructions: 490000002 cycles: 459300330 heartbeat IPC: 0.937018 cumulative IPC: 0.939169 (Simulation time: 0 hr 14 min 6 sec) 
Heartbeat CPU 0 instructions: 500000000 cycles: 469500414 heartbeat IPC: 0.980384 cumulative IPC: 0.940158 (Simulation time: 0 hr 14 min 24 sec) 
Heartbeat CPU 0 instructions: 510000000 cycles: 479294254 heartbeat IPC: 1.02105 cumulative IPC: 0.941978 (Simulation time: 0 hr 14 min 41 sec) 
Heartbeat CPU 0 instructions: 520000000 cycles: 489397039 heartbeat IPC: 0.989826 cumulative IPC: 0.943063 (Simulation time: 0 hr 14 min 59 sec) 
Heartbeat CPU 0 instructions: 530000001 cycles: 500255491 heartbeat IPC: 0.920942 cumulative IPC: 0.942537 (Simulation time: 0 hr 15 min 18 sec) 
Heartbeat CPU 0 instructions: 540000000 cycles: 511599457 heartbeat IPC: 0.881526 cumulative IPC: 0.941056 (Simulation time: 0 hr 15 min 36 sec) 
Heartbeat CPU 0 instructions: 550000003 cycles: 522864029 heartbeat IPC: 0.887739 cumulative IPC: 0.939802 (Simulation time: 0 hr 15 min 54 sec) 
Heartbeat CPU 0 instructions: 560000000 cycles: 533735822 heartbeat IPC: 0.919811 cumulative IPC: 0.939358 (Simulation time: 0 hr 16 min 12 sec) 
Heartbeat CPU 0 instructions: 570000002 cycles: 544260583 heartbeat IPC: 0.950141 cumulative IPC: 0.939585 (Simulation time: 0 hr 16 min 30 sec) 
Heartbeat CPU 0 instructions: 580000000 cycles: 554710270 heartbeat IPC: 0.956966 cumulative IPC: 0.939941 (Simulation time: 0 hr 16 min 48 sec) 
Heartbeat CPU 0 instructions: 590000002 cycles: 565423434 heartbeat IPC: 0.933431 cumulative IPC: 0.939807 (Simulation time: 0 hr 17 min 7 sec) 
Heartbeat CPU 0 instructions: 600000000 cycles: 575567131 heartbeat IPC: 0.985834 cumulative IPC: 0.940685 (Simulation time: 0 hr 17 min 24 sec) 
Finished CPU 0 instructions: 500000000 cycles: 531527349 cumulative IPC: 0.940685 (Simulation time: 0 hr 17 min 24 sec) 

CPU 0 Branch Prediction Accuracy: 97.8526% MPKI: 2.66709
Number of Branches: 62099103 Number of Mispredictions: 1333545
Number of LOAD Instructions: 210576465
Number of LOAD Instructions (ROI): 210576465
Number of STORE Instructions: 16915507
Number of STORE Instructions (ROI): 16915507
Total Destination Memory Operands: 16918869
Total Destination Memory Operands (ROI): 16918869
Total Source Memory Operands: 210576465
Total Source Memory Operands (ROI): 210576465
Number of DEPENDED LOADS: 353911
Number of DEPENDED LOADS (ROI): 353911
Number of SQ_ADDED: 16918826
Number of SQ_ADDED (ROI): 16918826
Number of LQ_ADDED: 210629020
Number of LQ_ADDED (ROI): 210629020
Number of Instructions read from trace: 600000257

ChampSim completed all CPUs

Region of Interest Statistics

CPU 0 cumulative IPC: 0.940685 instructions: 500000000 cycles: 531527349
ITLB TOTAL     ACCESS:   76788236  HIT:   76788198  MISS:         38
ITLB LOAD      ACCESS:   76788236  HIT:   76788198  MISS:         38
ITLB RFO       ACCESS:          0  HIT:          0  MISS:          0
ITLB PREFETCH  ACCESS:          0  HIT:          0  MISS:          0
ITLB WRITEBACK ACCESS:          0  HIT:          0  MISS:          0
ITLB PREFETCH  REQUESTED:          0  ISSUED:          0  USEFUL:          0  USELESS:          0
ITLB TOTAL MSHR MERGED:         37
ITLB LOAD MSHR MERGED:         37
ITLB RFO MSHR MERGED:          0
ITLB PREFETCH MSHR MERGED:          0
ITLB WRITEBACK MSHR MERGED:          0
ITLB TOTAL ACCESSES:   76788273 HITS:   76788198 MISSES:         75
ITLB LOAD ACCESSES:   76788273 HITS:   76788198 MISSES:         75
ITLB RFO ACCESSES:          0 HITS:          0 MISSES:          0
ITLB PREFETCH ACCESSES:          0 HITS:          0 MISSES:          0
ITLB WRITEBACK ACCESSES:          0 HITS:          0 MISSES:          0
ITLB RQ ACCESS:  500000188
ITLB RQ TO_CACHE:   76788274
ITLB RQ MERGED:  423211914
ITLB RQ FORWARD:          0
ITLB WQ ACCESS:          0
ITLB WQ TO_CACHE:          0
ITLB WQ MERGED:          0
ITLB WQ FORWARD:          0
DTLB TOTAL     ACCESS:  136613613  HIT:  136410824  MISS:     202789
DTLB LOAD      ACCESS:  128552577  HIT:  128352509  MISS:     200068
DTLB RFO       ACCESS:    8061036  HIT:    8058315  MISS:       2721
DTLB PREFETCH  ACCESS:          0  HIT:          0  MISS:          0
DTLB WRITEBACK ACCESS:          0  HIT:          0  MISS:          0
DTLB PREFETCH  REQUESTED:          0  ISSUED:          0  USEFUL:          0  USELESS:          0
DTLB TOTAL MSHR MERGED:     436911
DTLB LOAD MSHR MERGED:     433168
DTLB RFO MSHR MERGED:       3743
DTLB PREFETCH MSHR MERGED:          0
DTLB WRITEBACK MSHR MERGED:          0
DTLB TOTAL ACCESSES:  137050524 HITS:  136410824 MISSES:     639700
DTLB LOAD ACCESSES:  128985745 HITS:  128352509 MISSES:     633236
DTLB RFO ACCESSES:    8064779 HITS:    8058315 MISSES:       6464
DTLB PREFETCH ACCESSES:          0 HITS:          0 MISSES:          0
DTLB WRITEBACK ACCESSES:          0 HITS:          0 MISSES:          0
DTLB RQ ACCESS:  189410295
DTLB RQ TO_CACHE:  137050524
DTLB RQ MERGED:   52359771
DTLB RQ FORWARD:          0
DTLB WQ ACCESS:          0
DTLB WQ TO_CACHE:          0
DTLB WQ MERGED:          0
DTLB WQ FORWARD:          0
L1D TOTAL     ACCESS:  124345088  HIT:  106788365  MISS:   17556723
L1D LOAD      ACCESS:   71948489  HIT:   61350096  MISS:   10598393
L1D RFO       ACCESS:   14021799  HIT:   13868968  MISS:     152831
L1D PREFETCH  ACCESS:   38374800  HIT:   31569301  MISS:    6805499
L1D WRITEBACK ACCESS:          0  HIT:          0  MISS:          0
L1D PREFETCH  REQUESTED:   85905343  ISSUED:   84578230  USEFUL:    5546287  USELESS:    1259223
L1D TOTAL MSHR MERGED:   34087723
L1D LOAD MSHR MERGED:   19549933
L1D RFO MSHR MERGED:     266105
L1D PREFETCH MSHR MERGED:   14271685
L1D WRITEBACK MSHR MERGED:          0
L1D TOTAL ACCESSES:  158433408 HITS:  106788963 MISSES:   51644445
L1D LOAD ACCESSES:   85905350 HITS:   61350103 MISSES:   24555247
L1D RFO ACCESSES:   14287881 HITS:   13868968 MISSES:     418913
L1D PREFETCH ACCESSES:   58240177 HITS:   31569892 MISSES:   26670285
L1D WRITEBACK ACCESSES:          0 HITS:          0 MISSES:          0
L1D RQ ACCESS:  175121273
L1D RQ TO_CACHE:   85905343
L1D RQ MERGED:   89215923
L1D RQ FORWARD:          0
L1D WQ ACCESS:   14289037
L1D WQ TO_CACHE:   14287881
L1D WQ MERGED:       1156
L1D WQ FORWARD:        598
L1I TOTAL     ACCESS:   93834759  HIT:   93832963  MISS:       1796
L1I LOAD      ACCESS:   93834759  HIT:   93832963  MISS:       1796
L1I RFO       ACCESS:          0  HIT:          0  MISS:          0
L1I PREFETCH  ACCESS:          0  HIT:          0  MISS:          0
L1I WRITEBACK ACCESS:          0  HIT:          0  MISS:          0
L1I PREFETCH  REQUESTED:          0  ISSUED:          0  USEFUL:          0  USELESS:          0
L1I TOTAL MSHR MERGED:       2344
L1I LOAD MSHR MERGED:       2344
L1I RFO MSHR MERGED:          0
L1I PREFETCH MSHR MERGED:          0
L1I WRITEBACK MSHR MERGED:          0
L1I TOTAL ACCESSES:   93837103 HITS:   93832963 MISSES:       4140
L1I LOAD ACCESSES:   93837103 HITS:   93832963 MISSES:       4140
L1I RFO ACCESSES:          0 HITS:          0 MISSES:          0
L1I PREFETCH ACCESSES:          0 HITS:          0 MISSES:          0
L1I WRITEBACK ACCESSES:          0 HITS:          0 MISSES:          0
L1I RQ ACCESS:  500000187
L1I RQ TO_CACHE:   93837103
L1I RQ MERGED:  406163084
L1I RQ FORWARD:          0
L1I WQ ACCESS:          0
L1I WQ TO_CACHE:          0
L1I WQ MERGED:          0
L1I WQ FORWARD:          0
L2C TOTAL     ACCESS:   20896232  HIT:    8669776  MISS:   12226456
L2C LOAD      ACCESS:    5007081  HIT:    2129709  MISS:    2877372
L2C RFO       ACCESS:     152808  HIT:       6500  MISS:     146308
L2C PREFETCH  ACCESS:   13963588  HIT:    4760921  MISS:    9202667
L2C WRITEBACK ACCESS:    1772755  HIT:    1772646  MISS:        109
L2C PREFETCH  REQUESTED:    1776425  ISSUED:    1776425  USEFUL:    1072460  USELESS:    8131870
L2C TOTAL MSHR MERGED:      75646
L2C LOAD MSHR MERGED:      15833
L2C RFO MSHR MERGED:          0
L2C PREFETCH MSHR MERGED:      59813
L2C WRITEBACK MSHR MERGED:          0
L2C TOTAL ACCESSES:   20997238 HITS:    8669820 MISSES:   12327418
L2C LOAD ACCESSES:    5007110 HITS:    2129738 MISSES:    2877372
L2C RFO ACCESSES:     152808 HITS:       6500 MISSES:     146308
L2C PREFETCH ACCESSES:   14064565 HITS:    4760936 MISSES:    9303629
L2C WRITEBACK ACCESSES:    1772755 HITS:    1772646 MISSES:        109
L2C RQ ACCESS:    5159918
L2C RQ TO_CACHE:    5159889
L2C RQ MERGED:          0
L2C RQ FORWARD:          0
L2C WQ ACCESS:    1772755
L2C WQ TO_CACHE:    1772755
L2C WQ MERGED:          0
L2C WQ FORWARD:         44
LLC TOTAL     ACCESS:   12531650  HIT:    4072722  MISS:    8458928
LLC LOAD      ACCESS:    2861525  HIT:    1616873  MISS:    1244652
LLC RFO       ACCESS:     146308  HIT:      40297  MISS:     106011
LLC PREFETCH  ACCESS:    9237860  HIT:    2253491  MISS:    6984369
LLC WRITEBACK ACCESS:     285957  HIT:     162061  MISS:     123896
LLC PREFETCH  REQUESTED:          0  ISSUED:          0  USEFUL:     905246  USELESS:    6089171
LLC TOTAL MSHR MERGED:       2383
LLC LOAD MSHR MERGED:        423
LLC RFO MSHR MERGED:          0
LLC PREFETCH MSHR MERGED:       1960
LLC WRITEBACK MSHR MERGED:          0
LLC TOTAL ACCESSES:   12534067 HITS:    4072756 MISSES:    8461311
LLC LOAD ACCESSES:    2861539 HITS:    1616887 MISSES:    1244652
LLC RFO ACCESSES:     146308 HITS:      40297 MISSES:     106011
LLC PREFETCH ACCESSES:    9240263 HITS:    2253511 MISSES:    6986752
LLC WRITEBACK ACCESSES:     285957 HITS:     162061 MISSES:     123896
LLC 0 RQ ACCESS:    3007847
LLC 0 RQ TO_CACHE:    3007833
LLC 0 RQ MERGED:          0
LLC 0 RQ FORWARD:          0
LLC WQ ACCESS:     285957
LLC WQ TO_CACHE:     285957
LLC WQ MERGED:          0
LLC WQ FORWARD:         34
Major fault: 0 Minor fault: 6524
CPU 0 L1D next line prefetcher final stats
CPU 0 L2C PC-based stride prefetcher final stats
All Misses: 10152231
All Hits: 4904447
SD Algo Stats - Switches: 0 SRR-Repls: 1304528 BRR-Repls: 0

DRAM Statistics
 CHANNEL 0
 RQ ROW_BUFFER_HIT:    7514258  ROW_BUFFER_MISS:     816370
 DBUS_CONGESTED:    3705963
 WQ ROW_BUFFER_HIT:      31610  ROW_BUFFER_MISS:     110273  FULL:          0

 AVG_CONGESTED_CYCLE: 12
LOADS RETIRED: 175418235
INSTR RETIRED: 500000000
