
*** ChampSim Multicore Out-of-Order Simulator ***

Warmup Instructions: 100000000
Simulation Instructions: 500000000
Number of CPUs: 1
LLC sets: 2048
LLC ways: 16
Clean RRIP Policies: 313031203130312 Dirty RRIP Policies: 323132203231322 PSEL Width: 10 Track Set: 4294967295 PSEL Mask: 1 Demote Mask: 1000140010001400DS Algo: 0Window size: 0
Off-chip DRAM Size: 4096 MB Channels: 1 Width: 64-bit Data Rate: 1600 MT/s

CPU 0 runs /mnt/beegfs/iconst01/spec2017/Gcc.trace.gz
NOT SORTED
TRACE STRING: /mnt/beegfs/iconst01/spec2017/Gcc.trace.gz
SORTED
TRACE STRING: /mnt/beegfs/iconst01/spec2017/Gcc.trace.gz
INITIAL
TRACE STRING: /mnt/beegfs/iconst01/spec2017/Gcc.trace.gz

champsim_seed used: 269

CPU 0 L1D next line prefetcher
CPU 0 L2C IP-based stride prefetcher
Initialize DRRIP state
Assign rand_sets[0]: 454  LLC: 2048
rand_sets[0]: 454
Assign rand_sets[1]: 1662  LLC: 2048
rand_sets[1]: 1662
Assign rand_sets[2]: 1921  LLC: 2048
rand_sets[2]: 1921
Assign rand_sets[3]: 1131  LLC: 2048
rand_sets[3]: 1131
Assign rand_sets[4]: 331  LLC: 2048
rand_sets[4]: 331
Assign rand_sets[5]: 1531  LLC: 2048
rand_sets[5]: 1531
Assign rand_sets[6]: 482  LLC: 2048
rand_sets[6]: 482
Assign rand_sets[7]: 1275  LLC: 2048
rand_sets[7]: 1275
Assign rand_sets[8]: 1876  LLC: 2048
rand_sets[8]: 1876
Assign rand_sets[9]: 2038  LLC: 2048
rand_sets[9]: 2038
Assign rand_sets[10]: 701  LLC: 2048
rand_sets[10]: 701
Assign rand_sets[11]: 479  LLC: 2048
rand_sets[11]: 479
Assign rand_sets[12]: 892  LLC: 2048
rand_sets[12]: 892
Assign rand_sets[13]: 1820  LLC: 2048
rand_sets[13]: 1820
Assign rand_sets[14]: 1505  LLC: 2048
rand_sets[14]: 1505
Assign rand_sets[15]: 1159  LLC: 2048
rand_sets[15]: 1159
Assign rand_sets[16]: 513  LLC: 2048
rand_sets[16]: 513
Assign rand_sets[17]: 703  LLC: 2048
rand_sets[17]: 703
Assign rand_sets[18]: 561  LLC: 2048
rand_sets[18]: 561
Assign rand_sets[19]: 990  LLC: 2048
rand_sets[19]: 990
Assign rand_sets[20]: 342  LLC: 2048
rand_sets[20]: 342
Assign rand_sets[21]: 882  LLC: 2048
rand_sets[21]: 882
Assign rand_sets[22]: 15  LLC: 2048
rand_sets[22]: 15
Assign rand_sets[23]: 71  LLC: 2048
rand_sets[23]: 71
Assign rand_sets[24]: 1127  LLC: 2048
rand_sets[24]: 1127
Assign rand_sets[25]: 1382  LLC: 2048
rand_sets[25]: 1382
Assign rand_sets[26]: 647  LLC: 2048
rand_sets[26]: 647
Assign rand_sets[27]: 857  LLC: 2048
rand_sets[27]: 857
Assign rand_sets[28]: 1450  LLC: 2048
rand_sets[28]: 1450
Assign rand_sets[29]: 1160  LLC: 2048
rand_sets[29]: 1160
Assign rand_sets[30]: 1852  LLC: 2048
rand_sets[30]: 1852
Assign rand_sets[31]: 1881  LLC: 2048
rand_sets[31]: 1881
Assign rand_sets[32]: 1770  LLC: 2048
rand_sets[32]: 1770
Assign rand_sets[33]: 1622  LLC: 2048
rand_sets[33]: 1622
Assign rand_sets[34]: 275  LLC: 2048
rand_sets[34]: 275
Assign rand_sets[35]: 635  LLC: 2048
rand_sets[35]: 635
Assign rand_sets[36]: 466  LLC: 2048
rand_sets[36]: 466
Assign rand_sets[37]: 1413  LLC: 2048
rand_sets[37]: 1413
Assign rand_sets[38]: 417  LLC: 2048
rand_sets[38]: 417
Assign rand_sets[39]: 472  LLC: 2048
rand_sets[39]: 472
Assign rand_sets[40]: 1340  LLC: 2048
rand_sets[40]: 1340
Assign rand_sets[41]: 852  LLC: 2048
rand_sets[41]: 852
Assign rand_sets[42]: 1365  LLC: 2048
rand_sets[42]: 1365
Assign rand_sets[43]: 47  LLC: 2048
rand_sets[43]: 47
Assign rand_sets[44]: 823  LLC: 2048
rand_sets[44]: 823
Assign rand_sets[45]: 686  LLC: 2048
rand_sets[45]: 686
Assign rand_sets[46]: 1637  LLC: 2048
rand_sets[46]: 1637
Assign rand_sets[47]: 1115  LLC: 2048
rand_sets[47]: 1115
Assign rand_sets[48]: 986  LLC: 2048
rand_sets[48]: 986
Assign rand_sets[49]: 258  LLC: 2048
rand_sets[49]: 258
Assign rand_sets[50]: 633  LLC: 2048
rand_sets[50]: 633
Assign rand_sets[51]: 920  LLC: 2048
rand_sets[51]: 920
Assign rand_sets[52]: 204  LLC: 2048
rand_sets[52]: 204
Assign rand_sets[53]: 227  LLC: 2048
rand_sets[53]: 227
Assign rand_sets[54]: 1818  LLC: 2048
rand_sets[54]: 1818
Assign rand_sets[55]: 886  LLC: 2048
rand_sets[55]: 886
Assign rand_sets[56]: 1422  LLC: 2048
rand_sets[56]: 1422
Assign rand_sets[57]: 607  LLC: 2048
rand_sets[57]: 607
Assign rand_sets[58]: 217  LLC: 2048
rand_sets[58]: 217
Assign rand_sets[59]: 1945  LLC: 2048
rand_sets[59]: 1945
Assign rand_sets[60]: 143  LLC: 2048
rand_sets[60]: 143
Assign rand_sets[61]: 1311  LLC: 2048
rand_sets[61]: 1311
Assign rand_sets[62]: 319  LLC: 2048
rand_sets[62]: 319
Assign rand_sets[63]: 1846  LLC: 2048
rand_sets[63]: 1846
 CLEAN-RRIP-POLICY-1: 0-3-1-3-0-3-1-2- CLEAN-RRIP-POLICY-2: 0-3-1-3-0-3-1-2-
 DIRTY-RRIP-POLICY-1: 0-3-2-3-1-3-2-2- DIRTY-RRIP-POLICY-2: 0-3-2-3-1-3-2-2-
 PSEL width: 10
Heartbeat CPU 0 instructions: 10000001 cycles: 7316027 heartbeat IPC: 1.36686 cumulative IPC: 1.36686 (Simulation time: 0 hr 0 min 15 sec) 
Heartbeat CPU 0 instructions: 20000000 cycles: 14307702 heartbeat IPC: 1.43027 cumulative IPC: 1.39785 (Simulation time: 0 hr 0 min 29 sec) 
Heartbeat CPU 0 instructions: 30000001 cycles: 21020829 heartbeat IPC: 1.48962 cumulative IPC: 1.42716 (Simulation time: 0 hr 0 min 45 sec) 
Heartbeat CPU 0 instructions: 40000000 cycles: 27481744 heartbeat IPC: 1.54777 cumulative IPC: 1.45551 (Simulation time: 0 hr 1 min 1 sec) 
Heartbeat CPU 0 instructions: 50000001 cycles: 33583567 heartbeat IPC: 1.63885 cumulative IPC: 1.48882 (Simulation time: 0 hr 1 min 16 sec) 
Heartbeat CPU 0 instructions: 60000000 cycles: 40064838 heartbeat IPC: 1.54291 cumulative IPC: 1.49757 (Simulation time: 0 hr 1 min 32 sec) 
Heartbeat CPU 0 instructions: 70000000 cycles: 47104188 heartbeat IPC: 1.42059 cumulative IPC: 1.48607 (Simulation time: 0 hr 1 min 47 sec) 
Heartbeat CPU 0 instructions: 80000000 cycles: 54194484 heartbeat IPC: 1.41038 cumulative IPC: 1.47616 (Simulation time: 0 hr 2 min 2 sec) 
Heartbeat CPU 0 instructions: 90000003 cycles: 61199332 heartbeat IPC: 1.42758 cumulative IPC: 1.4706 (Simulation time: 0 hr 2 min 16 sec) 
Heartbeat CPU 0 instructions: 100000000 cycles: 68367157 heartbeat IPC: 1.39512 cumulative IPC: 1.46269 (Simulation time: 0 hr 2 min 31 sec) 

Warmup complete CPU 0 instructions: 100000004 cycles: 68367158 (Simulation time: 0 hr 2 min 31 sec) 

Heartbeat CPU 0 instructions: 110000003 cycles: 96074594 heartbeat IPC: 0.360914 cumulative IPC: 0.360914 (Simulation time: 0 hr 2 min 59 sec) 
Heartbeat CPU 0 instructions: 120000000 cycles: 123564647 heartbeat IPC: 0.363768 cumulative IPC: 0.362335 (Simulation time: 0 hr 3 min 27 sec) 
Heartbeat CPU 0 instructions: 130000000 cycles: 148581694 heartbeat IPC: 0.399727 cumulative IPC: 0.373997 (Simulation time: 0 hr 3 min 56 sec) 
Heartbeat CPU 0 instructions: 140000000 cycles: 178183789 heartbeat IPC: 0.337814 cumulative IPC: 0.364244 (Simulation time: 0 hr 4 min 23 sec) 
Heartbeat CPU 0 instructions: 150000000 cycles: 208119294 heartbeat IPC: 0.334051 cumulative IPC: 0.357776 (Simulation time: 0 hr 4 min 52 sec) 
Heartbeat CPU 0 instructions: 160000000 cycles: 235570895 heartbeat IPC: 0.364277 cumulative IPC: 0.358844 (Simulation time: 0 hr 5 min 19 sec) 
Heartbeat CPU 0 instructions: 170000001 cycles: 263624578 heartbeat IPC: 0.356459 cumulative IPC: 0.358501 (Simulation time: 0 hr 5 min 48 sec) 
Heartbeat CPU 0 instructions: 180000000 cycles: 292113296 heartbeat IPC: 0.351016 cumulative IPC: 0.357548 (Simulation time: 0 hr 6 min 17 sec) 
Heartbeat CPU 0 instructions: 190000002 cycles: 320177436 heartbeat IPC: 0.356327 cumulative IPC: 0.357412 (Simulation time: 0 hr 6 min 45 sec) 
Heartbeat CPU 0 instructions: 200000000 cycles: 348568121 heartbeat IPC: 0.352228 cumulative IPC: 0.356887 (Simulation time: 0 hr 7 min 14 sec) 
Heartbeat CPU 0 instructions: 210000002 cycles: 376466772 heartbeat IPC: 0.35844 cumulative IPC: 0.357027 (Simulation time: 0 hr 7 min 42 sec) 
Heartbeat CPU 0 instructions: 220000000 cycles: 405731759 heartbeat IPC: 0.341705 cumulative IPC: 0.355698 (Simulation time: 0 hr 8 min 10 sec) 
Heartbeat CPU 0 instructions: 230000000 cycles: 433329839 heartbeat IPC: 0.362344 cumulative IPC: 0.356201 (Simulation time: 0 hr 8 min 37 sec) 
Heartbeat CPU 0 instructions: 240000000 cycles: 459299316 heartbeat IPC: 0.385067 cumulative IPC: 0.358118 (Simulation time: 0 hr 9 min 4 sec) 
Heartbeat CPU 0 instructions: 250000000 cycles: 489461174 heartbeat IPC: 0.331545 cumulative IPC: 0.356215 (Simulation time: 0 hr 9 min 33 sec) 
Heartbeat CPU 0 instructions: 260000000 cycles: 516572658 heartbeat IPC: 0.368847 cumulative IPC: 0.356979 (Simulation time: 0 hr 10 min 1 sec) 
Heartbeat CPU 0 instructions: 270000003 cycles: 545033074 heartbeat IPC: 0.351365 cumulative IPC: 0.356644 (Simulation time: 0 hr 10 min 30 sec) 
Heartbeat CPU 0 instructions: 280000000 cycles: 573264597 heartbeat IPC: 0.354214 cumulative IPC: 0.356508 (Simulation time: 0 hr 10 min 59 sec) 
Heartbeat CPU 0 instructions: 290000000 cycles: 602202881 heartbeat IPC: 0.345563 cumulative IPC: 0.355915 (Simulation time: 0 hr 11 min 29 sec) 
Heartbeat CPU 0 instructions: 300000000 cycles: 632304462 heartbeat IPC: 0.332208 cumulative IPC: 0.354649 (Simulation time: 0 hr 11 min 57 sec) 
Heartbeat CPU 0 instructions: 310000001 cycles: 661783549 heartbeat IPC: 0.339224 cumulative IPC: 0.353883 (Simulation time: 0 hr 12 min 25 sec) 
Heartbeat CPU 0 instructions: 320000000 cycles: 690080308 heartbeat IPC: 0.353397 cumulative IPC: 0.353861 (Simulation time: 0 hr 12 min 52 sec) 
Heartbeat CPU 0 instructions: 330000000 cycles: 718769824 heartbeat IPC: 0.348559 cumulative IPC: 0.353627 (Simulation time: 0 hr 13 min 20 sec) 
Heartbeat CPU 0 instructions: 340000000 cycles: 748081151 heartbeat IPC: 0.341165 cumulative IPC: 0.35309 (Simulation time: 0 hr 13 min 49 sec) 
Heartbeat CPU 0 instructions: 350000003 cycles: 775160616 heartbeat IPC: 0.369284 cumulative IPC: 0.35371 (Simulation time: 0 hr 14 min 16 sec) 
Heartbeat CPU 0 instructions: 360000000 cycles: 803363433 heartbeat IPC: 0.354574 cumulative IPC: 0.353743 (Simulation time: 0 hr 14 min 43 sec) 
Heartbeat CPU 0 instructions: 370000000 cycles: 831599270 heartbeat IPC: 0.35416 cumulative IPC: 0.353759 (Simulation time: 0 hr 15 min 10 sec) 
Heartbeat CPU 0 instructions: 380000000 cycles: 860171336 heartbeat IPC: 0.349992 cumulative IPC: 0.353623 (Simulation time: 0 hr 15 min 37 sec) 
Heartbeat CPU 0 instructions: 390000001 cycles: 887818381 heartbeat IPC: 0.361702 cumulative IPC: 0.353895 (Simulation time: 0 hr 16 min 4 sec) 
Heartbeat CPU 0 instructions: 400000000 cycles: 916512126 heartbeat IPC: 0.348508 cumulative IPC: 0.353713 (Simulation time: 0 hr 16 min 31 sec) 
Heartbeat CPU 0 instructions: 410000001 cycles: 943830765 heartbeat IPC: 0.36605 cumulative IPC: 0.354098 (Simulation time: 0 hr 16 min 57 sec) 
Heartbeat CPU 0 instructions: 420000000 cycles: 971155361 heartbeat IPC: 0.365971 cumulative IPC: 0.354457 (Simulation time: 0 hr 17 min 24 sec) 
Heartbeat CPU 0 instructions: 430000002 cycles: 998887791 heartbeat IPC: 0.360589 cumulative IPC: 0.35464 (Simulation time: 0 hr 17 min 51 sec) 
Heartbeat CPU 0 instructions: 440000000 cycles: 1028551179 heartbeat IPC: 0.337116 cumulative IPC: 0.354099 (Simulation time: 0 hr 18 min 18 sec) 
Heartbeat CPU 0 instructions: 450000002 cycles: 1057855647 heartbeat IPC: 0.341245 cumulative IPC: 0.353718 (Simulation time: 0 hr 18 min 45 sec) 
Heartbeat CPU 0 instructions: 460000000 cycles: 1085595113 heartbeat IPC: 0.360497 cumulative IPC: 0.353903 (Simulation time: 0 hr 19 min 12 sec) 
Heartbeat CPU 0 instructions: 470000000 cycles: 1113246134 heartbeat IPC: 0.36165 cumulative IPC: 0.354108 (Simulation time: 0 hr 19 min 39 sec) 
Heartbeat CPU 0 instructions: 480000000 cycles: 1141139963 heartbeat IPC: 0.358502 cumulative IPC: 0.354222 (Simulation time: 0 hr 20 min 6 sec) 
Heartbeat CPU 0 instructions: 490000000 cycles: 1168736237 heartbeat IPC: 0.362368 cumulative IPC: 0.354427 (Simulation time: 0 hr 20 min 32 sec) 
Heartbeat CPU 0 instructions: 500000000 cycles: 1197071290 heartbeat IPC: 0.35292 cumulative IPC: 0.354389 (Simulation time: 0 hr 20 min 59 sec) 
Heartbeat CPU 0 instructions: 510000000 cycles: 1231833874 heartbeat IPC: 0.287666 cumulative IPC: 0.352395 (Simulation time: 0 hr 21 min 30 sec) 
Heartbeat CPU 0 instructions: 520000000 cycles: 1259823044 heartbeat IPC: 0.357281 cumulative IPC: 0.35251 (Simulation time: 0 hr 21 min 58 sec) 
Heartbeat CPU 0 instructions: 530000001 cycles: 1289263368 heartbeat IPC: 0.33967 cumulative IPC: 0.3522 (Simulation time: 0 hr 22 min 26 sec) 
Heartbeat CPU 0 instructions: 540000000 cycles: 1317358497 heartbeat IPC: 0.355934 cumulative IPC: 0.352284 (Simulation time: 0 hr 22 min 53 sec) 
Heartbeat CPU 0 instructions: 550000001 cycles: 1346571108 heartbeat IPC: 0.342318 cumulative IPC: 0.352057 (Simulation time: 0 hr 23 min 23 sec) 
Heartbeat CPU 0 instructions: 560000000 cycles: 1371974845 heartbeat IPC: 0.393643 cumulative IPC: 0.352867 (Simulation time: 0 hr 23 min 50 sec) 
Heartbeat CPU 0 instructions: 570000000 cycles: 1401559096 heartbeat IPC: 0.338018 cumulative IPC: 0.352537 (Simulation time: 0 hr 24 min 18 sec) 
Heartbeat CPU 0 instructions: 580000000 cycles: 1429582937 heartbeat IPC: 0.356839 cumulative IPC: 0.352626 (Simulation time: 0 hr 24 min 46 sec) 
Heartbeat CPU 0 instructions: 590000001 cycles: 1454409559 heartbeat IPC: 0.402793 cumulative IPC: 0.353525 (Simulation time: 0 hr 25 min 13 sec) 
Heartbeat CPU 0 instructions: 600000000 cycles: 1480554187 heartbeat IPC: 0.382488 cumulative IPC: 0.354061 (Simulation time: 0 hr 25 min 40 sec) 
Finished CPU 0 instructions: 500000000 cycles: 1412187051 cumulative IPC: 0.354061 (Simulation time: 0 hr 25 min 40 sec) 

CPU 0 Branch Prediction Accuracy: 86.4311% MPKI: 26.2662
Number of Branches: 96788573 Number of Mispredictions: 13133102
Number of LOAD Instructions: 164682285
Number of LOAD Instructions (ROI): 164682285
Number of STORE Instructions: 78194750
Number of STORE Instructions (ROI): 78194750
Total Destination Memory Operands: 83268534
Total Destination Memory Operands (ROI): 83268534
Total Source Memory Operands: 164712438
Total Source Memory Operands (ROI): 164712438
Number of DEPENDED LOADS: 7058120
Number of DEPENDED LOADS (ROI): 7058120
Number of SQ_ADDED: 83268522
Number of SQ_ADDED (ROI): 83268522
Number of LQ_ADDED: 236777816
Number of LQ_ADDED (ROI): 236777816
Number of Instructions read from trace: 600000066

ChampSim completed all CPUs

Region of Interest Statistics

CPU 0 cumulative IPC: 0.354061 instructions: 500000000 cycles: 1412187051
ITLB TOTAL     ACCESS:  100519308  HIT:  100314862  MISS:     204446
ITLB LOAD      ACCESS:  100519308  HIT:  100314862  MISS:     204446
ITLB RFO       ACCESS:          0  HIT:          0  MISS:          0
ITLB PREFETCH  ACCESS:          0  HIT:          0  MISS:          0
ITLB WRITEBACK ACCESS:          0  HIT:          0  MISS:          0
ITLB PREFETCH  REQUESTED:          0  ISSUED:          0  USEFUL:          0  USELESS:          0
ITLB TOTAL MSHR MERGED:     172424
ITLB LOAD MSHR MERGED:     172424
ITLB RFO MSHR MERGED:          0
ITLB PREFETCH MSHR MERGED:          0
ITLB WRITEBACK MSHR MERGED:          0
ITLB TOTAL ACCESSES:  100691732 HITS:  100314862 MISSES:     376870
ITLB LOAD ACCESSES:  100691732 HITS:  100314862 MISSES:     376870
ITLB RFO ACCESSES:          0 HITS:          0 MISSES:          0
ITLB PREFETCH ACCESSES:          0 HITS:          0 MISSES:          0
ITLB WRITEBACK ACCESSES:          0 HITS:          0 MISSES:          0
ITLB RQ ACCESS:  500000057
ITLB RQ TO_CACHE:  100691732
ITLB RQ MERGED:  399308325
ITLB RQ FORWARD:          0
ITLB WQ ACCESS:          0
ITLB WQ TO_CACHE:          0
ITLB WQ MERGED:          0
ITLB WQ FORWARD:          0
DTLB TOTAL     ACCESS:  165338612  HIT:  164704259  MISS:     634353
DTLB LOAD      ACCESS:  106293672  HIT:  105723709  MISS:     569963
DTLB RFO       ACCESS:   59044940  HIT:   58980550  MISS:      64390
DTLB PREFETCH  ACCESS:          0  HIT:          0  MISS:          0
DTLB WRITEBACK ACCESS:          0  HIT:          0  MISS:          0
DTLB PREFETCH  REQUESTED:          0  ISSUED:          0  USEFUL:          0  USELESS:          0
DTLB TOTAL MSHR MERGED:      99959
DTLB LOAD MSHR MERGED:      59431
DTLB RFO MSHR MERGED:      40528
DTLB PREFETCH MSHR MERGED:          0
DTLB WRITEBACK MSHR MERGED:          0
DTLB TOTAL ACCESSES:  165438571 HITS:  164704259 MISSES:     734312
DTLB LOAD ACCESSES:  106353103 HITS:  105723709 MISSES:     629394
DTLB RFO ACCESSES:   59085468 HITS:   58980550 MISSES:     104918
DTLB PREFETCH ACCESSES:          0 HITS:          0 MISSES:          0
DTLB WRITEBACK ACCESSES:          0 HITS:          0 MISSES:          0
DTLB RQ ACCESS:  200312796
DTLB RQ TO_CACHE:  165438571
DTLB RQ MERGED:   34874225
DTLB RQ FORWARD:          0
DTLB WQ ACCESS:          0
DTLB WQ TO_CACHE:          0
DTLB WQ MERGED:          0
DTLB WQ FORWARD:          0
L1D TOTAL     ACCESS:  281843216  HIT:  273933860  MISS:    7909356
L1D LOAD      ACCESS:  110420304  HIT:  107141786  MISS:    3278518
L1D RFO       ACCESS:   67124059  HIT:   66233714  MISS:     890345
L1D PREFETCH  ACCESS:  104298853  HIT:  100558360  MISS:    3740493
L1D WRITEBACK ACCESS:          0  HIT:          0  MISS:          0
L1D PREFETCH  REQUESTED:  110819263  ISSUED:  109119952  USEFUL:    1661167  USELESS:    2079290
L1D TOTAL MSHR MERGED:    2865708
L1D LOAD MSHR MERGED:     496965
L1D RFO MSHR MERGED:    1861629
L1D PREFETCH MSHR MERGED:     507114
L1D WRITEBACK MSHR MERGED:          0
L1D TOTAL ACCESSES:  284736371 HITS:  273961307 MISSES:   10775064
L1D LOAD ACCESSES:  110820698 HITS:  107143221 MISSES:    3677477
L1D RFO ACCESSES:   68974130 HITS:   66233714 MISSES:    2740416
L1D PREFETCH ACCESSES:  104941543 HITS:  100584372 MISSES:    4357171
L1D WRITEBACK ACCESSES:          0 HITS:          0 MISSES:          0
L1D RQ ACCESS:  130760193
L1D RQ TO_CACHE:  110819266
L1D RQ MERGED:   19939492
L1D RQ FORWARD:          0
L1D WQ ACCESS:   69552603
L1D WQ TO_CACHE:   68974131
L1D WQ MERGED:     578472
L1D WQ FORWARD:      27447
L1I TOTAL     ACCESS:  126566157  HIT:  122327605  MISS:    4238552
L1I LOAD      ACCESS:  126566157  HIT:  122327605  MISS:    4238552
L1I RFO       ACCESS:          0  HIT:          0  MISS:          0
L1I PREFETCH  ACCESS:          0  HIT:          0  MISS:          0
L1I WRITEBACK ACCESS:          0  HIT:          0  MISS:          0
L1I PREFETCH  REQUESTED:          0  ISSUED:          0  USEFUL:          0  USELESS:          0
L1I TOTAL MSHR MERGED:    1834797
L1I LOAD MSHR MERGED:    1834797
L1I RFO MSHR MERGED:          0
L1I PREFETCH MSHR MERGED:          0
L1I WRITEBACK MSHR MERGED:          0
L1I TOTAL ACCESSES:  128400957 HITS:  122327605 MISSES:    6073352
L1I LOAD ACCESSES:  128400957 HITS:  122327605 MISSES:    6073352
L1I RFO ACCESSES:          0 HITS:          0 MISSES:          0
L1I PREFETCH ACCESSES:          0 HITS:          0 MISSES:          0
L1I WRITEBACK ACCESSES:          0 HITS:          0 MISSES:          0
L1I RQ ACCESS:  500000057
L1I RQ TO_CACHE:  128400957
L1I RQ MERGED:  371599100
L1I RQ FORWARD:          0
L1I WQ ACCESS:          0
L1I WQ TO_CACHE:          0
L1I WQ MERGED:          0
L1I WQ FORWARD:          0
L2C TOTAL     ACCESS:   14904991  HIT:   11158477  MISS:    3746514
L2C LOAD      ACCESS:    7418859  HIT:    5098748  MISS:    2320111
L2C RFO       ACCESS:     878689  HIT:     409897  MISS:     468792
L2C PREFETCH  ACCESS:    4568191  HIT:    3627836  MISS:     940355
L2C WRITEBACK ACCESS:    2039252  HIT:    2021996  MISS:      17256
L2C PREFETCH  REQUESTED:     842663  ISSUED:     842663  USEFUL:     203281  USELESS:     736780
L2C TOTAL MSHR MERGED:       7261
L2C LOAD MSHR MERGED:        871
L2C RFO MSHR MERGED:          0
L2C PREFETCH MSHR MERGED:       6390
L2C WRITEBACK MSHR MERGED:          0
L2C TOTAL ACCESSES:   14913147 HITS:   11158924 MISSES:    3754223
L2C LOAD ACCESSES:    7419064 HITS:    5098953 MISSES:    2320111
L2C RFO ACCESSES:     878787 HITS:     409995 MISSES:     468792
L2C PREFETCH ACCESSES:    4576044 HITS:    3627980 MISSES:     948064
L2C WRITEBACK ACCESSES:    2039252 HITS:    2021996 MISSES:      17256
L2C RQ ACCESS:    8297854
L2C RQ TO_CACHE:    8297551
L2C RQ MERGED:          0
L2C RQ FORWARD:          0
L2C WQ ACCESS:    2039252
L2C WQ TO_CACHE:    2039252
L2C WQ MERGED:          0
L2C WQ FORWARD:        447
LLC TOTAL     ACCESS:    4609875  HIT:    3934512  MISS:     675363
LLC LOAD      ACCESS:    2319226  HIT:    2052462  MISS:     266764
LLC RFO       ACCESS:     468781  HIT:     410158  MISS:      58623
LLC PREFETCH  ACCESS:     941576  HIT:     656113  MISS:     285463
LLC WRITEBACK ACCESS:     880292  HIT:     815779  MISS:      64513
LLC PREFETCH  REQUESTED:          0  ISSUED:          0  USEFUL:      16091  USELESS:     269371
LLC TOTAL MSHR MERGED:         81
LLC LOAD MSHR MERGED:         29
LLC RFO MSHR MERGED:          0
LLC PREFETCH MSHR MERGED:         52
LLC WRITEBACK MSHR MERGED:          0
LLC TOTAL ACCESSES:    4609991 HITS:    3934547 MISSES:     675444
LLC LOAD ACCESSES:    2319240 HITS:    2052476 MISSES:     266764
LLC RFO ACCESSES:     468792 HITS:     410169 MISSES:      58623
LLC PREFETCH ACCESSES:     941667 HITS:     656123 MISSES:     285544
LLC WRITEBACK ACCESSES:     880292 HITS:     815779 MISSES:      64513
LLC 0 RQ ACCESS:    2788032
LLC 0 RQ TO_CACHE:    2788007
LLC 0 RQ MERGED:          0
LLC 0 RQ FORWARD:          0
LLC WQ ACCESS:     880292
LLC WQ TO_CACHE:     880292
LLC WQ MERGED:          0
LLC WQ FORWARD:         35
Major fault: 0 Minor fault: 12862
CPU 0 L1D next line prefetcher final stats
CPU 0 L2C PC-based stride prefetcher final stats
All Misses: 819169
All Hits: 4607712
SD Algo Stats - Switches: 0 SRR-Repls: 314594 BRR-Repls: 0

DRAM Statistics
 CHANNEL 0
 RQ ROW_BUFFER_HIT:     125273  ROW_BUFFER_MISS:     483523
 DBUS_CONGESTED:     342836
 WQ ROW_BUFFER_HIT:      13700  ROW_BUFFER_MISS:     168420  FULL:          0

 AVG_CONGESTED_CYCLE: 13
LOADS RETIRED: 136549171
INSTR RETIRED: 500000000
