
*** ChampSim Multicore Out-of-Order Simulator ***

Warmup Instructions: 100000000
Simulation Instructions: 500000000
Number of CPUs: 1
LLC sets: 2048
LLC ways: 16
Clean RRIP Policies: 323130203231302 Dirty RRIP Policies: 2303132223031322 PSEL Width: 10 Track Set: 4294967295 PSEL Mask: 1 Demote Mask: 2313140023131400DS Algo: 0Window size: 0
Off-chip DRAM Size: 4096 MB Channels: 1 Width: 64-bit Data Rate: 1600 MT/s

CPU 0 runs /mnt/beegfs/iconst01/spec2017/Gcc.trace.gz
NOT SORTED
TRACE STRING: /mnt/beegfs/iconst01/spec2017/Gcc.trace.gz
SORTED
TRACE STRING: /mnt/beegfs/iconst01/spec2017/Gcc.trace.gz
INITIAL
TRACE STRING: /mnt/beegfs/iconst01/spec2017/Gcc.trace.gz

champsim_seed used: 269

CPU 0 L1D next line prefetcher
CPU 0 L2C IP-based stride prefetcher
Initialize DRRIP state
Assign rand_sets[0]: 454  LLC: 2048
rand_sets[0]: 454
Assign rand_sets[1]: 1662  LLC: 2048
rand_sets[1]: 1662
Assign rand_sets[2]: 1921  LLC: 2048
rand_sets[2]: 1921
Assign rand_sets[3]: 1131  LLC: 2048
rand_sets[3]: 1131
Assign rand_sets[4]: 331  LLC: 2048
rand_sets[4]: 331
Assign rand_sets[5]: 1531  LLC: 2048
rand_sets[5]: 1531
Assign rand_sets[6]: 482  LLC: 2048
rand_sets[6]: 482
Assign rand_sets[7]: 1275  LLC: 2048
rand_sets[7]: 1275
Assign rand_sets[8]: 1876  LLC: 2048
rand_sets[8]: 1876
Assign rand_sets[9]: 2038  LLC: 2048
rand_sets[9]: 2038
Assign rand_sets[10]: 701  LLC: 2048
rand_sets[10]: 701
Assign rand_sets[11]: 479  LLC: 2048
rand_sets[11]: 479
Assign rand_sets[12]: 892  LLC: 2048
rand_sets[12]: 892
Assign rand_sets[13]: 1820  LLC: 2048
rand_sets[13]: 1820
Assign rand_sets[14]: 1505  LLC: 2048
rand_sets[14]: 1505
Assign rand_sets[15]: 1159  LLC: 2048
rand_sets[15]: 1159
Assign rand_sets[16]: 513  LLC: 2048
rand_sets[16]: 513
Assign rand_sets[17]: 703  LLC: 2048
rand_sets[17]: 703
Assign rand_sets[18]: 561  LLC: 2048
rand_sets[18]: 561
Assign rand_sets[19]: 990  LLC: 2048
rand_sets[19]: 990
Assign rand_sets[20]: 342  LLC: 2048
rand_sets[20]: 342
Assign rand_sets[21]: 882  LLC: 2048
rand_sets[21]: 882
Assign rand_sets[22]: 15  LLC: 2048
rand_sets[22]: 15
Assign rand_sets[23]: 71  LLC: 2048
rand_sets[23]: 71
Assign rand_sets[24]: 1127  LLC: 2048
rand_sets[24]: 1127
Assign rand_sets[25]: 1382  LLC: 2048
rand_sets[25]: 1382
Assign rand_sets[26]: 647  LLC: 2048
rand_sets[26]: 647
Assign rand_sets[27]: 857  LLC: 2048
rand_sets[27]: 857
Assign rand_sets[28]: 1450  LLC: 2048
rand_sets[28]: 1450
Assign rand_sets[29]: 1160  LLC: 2048
rand_sets[29]: 1160
Assign rand_sets[30]: 1852  LLC: 2048
rand_sets[30]: 1852
Assign rand_sets[31]: 1881  LLC: 2048
rand_sets[31]: 1881
Assign rand_sets[32]: 1770  LLC: 2048
rand_sets[32]: 1770
Assign rand_sets[33]: 1622  LLC: 2048
rand_sets[33]: 1622
Assign rand_sets[34]: 275  LLC: 2048
rand_sets[34]: 275
Assign rand_sets[35]: 635  LLC: 2048
rand_sets[35]: 635
Assign rand_sets[36]: 466  LLC: 2048
rand_sets[36]: 466
Assign rand_sets[37]: 1413  LLC: 2048
rand_sets[37]: 1413
Assign rand_sets[38]: 417  LLC: 2048
rand_sets[38]: 417
Assign rand_sets[39]: 472  LLC: 2048
rand_sets[39]: 472
Assign rand_sets[40]: 1340  LLC: 2048
rand_sets[40]: 1340
Assign rand_sets[41]: 852  LLC: 2048
rand_sets[41]: 852
Assign rand_sets[42]: 1365  LLC: 2048
rand_sets[42]: 1365
Assign rand_sets[43]: 47  LLC: 2048
rand_sets[43]: 47
Assign rand_sets[44]: 823  LLC: 2048
rand_sets[44]: 823
Assign rand_sets[45]: 686  LLC: 2048
rand_sets[45]: 686
Assign rand_sets[46]: 1637  LLC: 2048
rand_sets[46]: 1637
Assign rand_sets[47]: 1115  LLC: 2048
rand_sets[47]: 1115
Assign rand_sets[48]: 986  LLC: 2048
rand_sets[48]: 986
Assign rand_sets[49]: 258  LLC: 2048
rand_sets[49]: 258
Assign rand_sets[50]: 633  LLC: 2048
rand_sets[50]: 633
Assign rand_sets[51]: 920  LLC: 2048
rand_sets[51]: 920
Assign rand_sets[52]: 204  LLC: 2048
rand_sets[52]: 204
Assign rand_sets[53]: 227  LLC: 2048
rand_sets[53]: 227
Assign rand_sets[54]: 1818  LLC: 2048
rand_sets[54]: 1818
Assign rand_sets[55]: 886  LLC: 2048
rand_sets[55]: 886
Assign rand_sets[56]: 1422  LLC: 2048
rand_sets[56]: 1422
Assign rand_sets[57]: 607  LLC: 2048
rand_sets[57]: 607
Assign rand_sets[58]: 217  LLC: 2048
rand_sets[58]: 217
Assign rand_sets[59]: 1945  LLC: 2048
rand_sets[59]: 1945
Assign rand_sets[60]: 143  LLC: 2048
rand_sets[60]: 143
Assign rand_sets[61]: 1311  LLC: 2048
rand_sets[61]: 1311
Assign rand_sets[62]: 319  LLC: 2048
rand_sets[62]: 319
Assign rand_sets[63]: 1846  LLC: 2048
rand_sets[63]: 1846
 CLEAN-RRIP-POLICY-1: 0-3-2-3-1-3-0-2- CLEAN-RRIP-POLICY-2: 0-3-2-3-1-3-0-2-
 DIRTY-RRIP-POLICY-1: 2-3-0-3-1-3-2-2- DIRTY-RRIP-POLICY-2: 2-3-0-3-1-3-2-2-
 PSEL width: 10
Heartbeat CPU 0 instructions: 10000001 cycles: 7316028 heartbeat IPC: 1.36686 cumulative IPC: 1.36686 (Simulation time: 0 hr 0 min 14 sec) 
Heartbeat CPU 0 instructions: 20000000 cycles: 14307726 heartbeat IPC: 1.43027 cumulative IPC: 1.39785 (Simulation time: 0 hr 0 min 29 sec) 
Heartbeat CPU 0 instructions: 30000001 cycles: 21020827 heartbeat IPC: 1.48962 cumulative IPC: 1.42716 (Simulation time: 0 hr 0 min 45 sec) 
Heartbeat CPU 0 instructions: 40000000 cycles: 27481759 heartbeat IPC: 1.54776 cumulative IPC: 1.45551 (Simulation time: 0 hr 1 min 1 sec) 
Heartbeat CPU 0 instructions: 50000001 cycles: 33583558 heartbeat IPC: 1.63886 cumulative IPC: 1.48882 (Simulation time: 0 hr 1 min 16 sec) 
Heartbeat CPU 0 instructions: 60000000 cycles: 40064895 heartbeat IPC: 1.54289 cumulative IPC: 1.49757 (Simulation time: 0 hr 1 min 32 sec) 
Heartbeat CPU 0 instructions: 70000000 cycles: 47104439 heartbeat IPC: 1.42055 cumulative IPC: 1.48606 (Simulation time: 0 hr 1 min 47 sec) 
Heartbeat CPU 0 instructions: 80000000 cycles: 54196074 heartbeat IPC: 1.41011 cumulative IPC: 1.47612 (Simulation time: 0 hr 2 min 1 sec) 
Heartbeat CPU 0 instructions: 90000003 cycles: 61202919 heartbeat IPC: 1.42718 cumulative IPC: 1.47052 (Simulation time: 0 hr 2 min 16 sec) 
Heartbeat CPU 0 instructions: 100000000 cycles: 68372743 heartbeat IPC: 1.39473 cumulative IPC: 1.46257 (Simulation time: 0 hr 2 min 30 sec) 

Warmup complete CPU 0 instructions: 100000004 cycles: 68372744 (Simulation time: 0 hr 2 min 30 sec) 

Heartbeat CPU 0 instructions: 110000003 cycles: 96461096 heartbeat IPC: 0.35602 cumulative IPC: 0.356019 (Simulation time: 0 hr 2 min 59 sec) 
Heartbeat CPU 0 instructions: 120000000 cycles: 124092215 heartbeat IPC: 0.361911 cumulative IPC: 0.358941 (Simulation time: 0 hr 3 min 28 sec) 
Heartbeat CPU 0 instructions: 130000000 cycles: 149209681 heartbeat IPC: 0.398129 cumulative IPC: 0.371117 (Simulation time: 0 hr 3 min 56 sec) 
Heartbeat CPU 0 instructions: 140000000 cycles: 179642423 heartbeat IPC: 0.328593 cumulative IPC: 0.359487 (Simulation time: 0 hr 4 min 24 sec) 
Heartbeat CPU 0 instructions: 150000000 cycles: 210135759 heartbeat IPC: 0.32794 cumulative IPC: 0.352701 (Simulation time: 0 hr 4 min 53 sec) 
Heartbeat CPU 0 instructions: 160000000 cycles: 237761423 heartbeat IPC: 0.361982 cumulative IPC: 0.354215 (Simulation time: 0 hr 5 min 20 sec) 
Heartbeat CPU 0 instructions: 170000001 cycles: 266069092 heartbeat IPC: 0.353261 cumulative IPC: 0.354078 (Simulation time: 0 hr 5 min 50 sec) 
Heartbeat CPU 0 instructions: 180000000 cycles: 294857671 heartbeat IPC: 0.34736 cumulative IPC: 0.353224 (Simulation time: 0 hr 6 min 19 sec) 
Heartbeat CPU 0 instructions: 190000002 cycles: 323283925 heartbeat IPC: 0.351788 cumulative IPC: 0.353064 (Simulation time: 0 hr 6 min 47 sec) 
Heartbeat CPU 0 instructions: 200000000 cycles: 352015969 heartbeat IPC: 0.348043 cumulative IPC: 0.352556 (Simulation time: 0 hr 7 min 16 sec) 
Heartbeat CPU 0 instructions: 210000002 cycles: 380278092 heartbeat IPC: 0.353831 cumulative IPC: 0.352671 (Simulation time: 0 hr 7 min 45 sec) 
Heartbeat CPU 0 instructions: 220000000 cycles: 410521138 heartbeat IPC: 0.330654 cumulative IPC: 0.350725 (Simulation time: 0 hr 8 min 12 sec) 
Heartbeat CPU 0 instructions: 230000000 cycles: 438616209 heartbeat IPC: 0.355934 cumulative IPC: 0.35112 (Simulation time: 0 hr 8 min 40 sec) 
Heartbeat CPU 0 instructions: 240000000 cycles: 464888094 heartbeat IPC: 0.380635 cumulative IPC: 0.353076 (Simulation time: 0 hr 9 min 7 sec) 
Heartbeat CPU 0 instructions: 250000000 cycles: 495354220 heartbeat IPC: 0.328233 cumulative IPC: 0.351303 (Simulation time: 0 hr 9 min 37 sec) 
Heartbeat CPU 0 instructions: 260000000 cycles: 522635725 heartbeat IPC: 0.366549 cumulative IPC: 0.352219 (Simulation time: 0 hr 10 min 5 sec) 
Heartbeat CPU 0 instructions: 270000003 cycles: 551397734 heartbeat IPC: 0.347681 cumulative IPC: 0.351949 (Simulation time: 0 hr 10 min 34 sec) 
Heartbeat CPU 0 instructions: 280000000 cycles: 580050114 heartbeat IPC: 0.349011 cumulative IPC: 0.351784 (Simulation time: 0 hr 11 min 4 sec) 
Heartbeat CPU 0 instructions: 290000000 cycles: 609318803 heartbeat IPC: 0.341662 cumulative IPC: 0.351236 (Simulation time: 0 hr 11 min 33 sec) 
Heartbeat CPU 0 instructions: 300000000 cycles: 640485892 heartbeat IPC: 0.320851 cumulative IPC: 0.349581 (Simulation time: 0 hr 12 min 2 sec) 
Heartbeat CPU 0 instructions: 310000001 cycles: 670744425 heartbeat IPC: 0.330485 cumulative IPC: 0.348622 (Simulation time: 0 hr 12 min 30 sec) 
Heartbeat CPU 0 instructions: 320000000 cycles: 699964911 heartbeat IPC: 0.342226 cumulative IPC: 0.348326 (Simulation time: 0 hr 12 min 58 sec) 
Heartbeat CPU 0 instructions: 330000000 cycles: 729364240 heartbeat IPC: 0.340144 cumulative IPC: 0.347962 (Simulation time: 0 hr 13 min 27 sec) 
Heartbeat CPU 0 instructions: 340000000 cycles: 759471698 heartbeat IPC: 0.332144 cumulative IPC: 0.347273 (Simulation time: 0 hr 13 min 55 sec) 
Heartbeat CPU 0 instructions: 350000003 cycles: 787007964 heartbeat IPC: 0.363158 cumulative IPC: 0.347882 (Simulation time: 0 hr 14 min 23 sec) 
Heartbeat CPU 0 instructions: 360000000 cycles: 817428436 heartbeat IPC: 0.328726 cumulative IPC: 0.347104 (Simulation time: 0 hr 14 min 51 sec) 
Heartbeat CPU 0 instructions: 370000000 cycles: 847836751 heartbeat IPC: 0.328857 cumulative IPC: 0.346392 (Simulation time: 0 hr 15 min 19 sec) 
Heartbeat CPU 0 instructions: 380000000 cycles: 878596953 heartbeat IPC: 0.325095 cumulative IPC: 0.345583 (Simulation time: 0 hr 15 min 47 sec) 
Heartbeat CPU 0 instructions: 390000001 cycles: 908300483 heartbeat IPC: 0.33666 cumulative IPC: 0.345268 (Simulation time: 0 hr 16 min 14 sec) 
Heartbeat CPU 0 instructions: 400000000 cycles: 939096991 heartbeat IPC: 0.324712 cumulative IPC: 0.344541 (Simulation time: 0 hr 16 min 42 sec) 
Heartbeat CPU 0 instructions: 410000001 cycles: 968426603 heartbeat IPC: 0.340952 cumulative IPC: 0.344424 (Simulation time: 0 hr 17 min 10 sec) 
Heartbeat CPU 0 instructions: 420000000 cycles: 997724400 heartbeat IPC: 0.341323 cumulative IPC: 0.344326 (Simulation time: 0 hr 17 min 37 sec) 
Heartbeat CPU 0 instructions: 430000002 cycles: 1027502178 heartbeat IPC: 0.335821 cumulative IPC: 0.344062 (Simulation time: 0 hr 18 min 5 sec) 
Heartbeat CPU 0 instructions: 440000000 cycles: 1058915012 heartbeat IPC: 0.318341 cumulative IPC: 0.343246 (Simulation time: 0 hr 18 min 33 sec) 
Heartbeat CPU 0 instructions: 450000002 cycles: 1090107222 heartbeat IPC: 0.320593 cumulative IPC: 0.342555 (Simulation time: 0 hr 19 min 1 sec) 
Heartbeat CPU 0 instructions: 460000000 cycles: 1119792347 heartbeat IPC: 0.336869 cumulative IPC: 0.342394 (Simulation time: 0 hr 19 min 29 sec) 
Heartbeat CPU 0 instructions: 470000000 cycles: 1149124583 heartbeat IPC: 0.340922 cumulative IPC: 0.342354 (Simulation time: 0 hr 19 min 56 sec) 
Heartbeat CPU 0 instructions: 480000000 cycles: 1178675744 heartbeat IPC: 0.338396 cumulative IPC: 0.342249 (Simulation time: 0 hr 20 min 24 sec) 
Heartbeat CPU 0 instructions: 490000000 cycles: 1207906110 heartbeat IPC: 0.34211 cumulative IPC: 0.342245 (Simulation time: 0 hr 20 min 52 sec) 
Heartbeat CPU 0 instructions: 500000000 cycles: 1237729615 heartbeat IPC: 0.335306 cumulative IPC: 0.342068 (Simulation time: 0 hr 21 min 19 sec) 
Heartbeat CPU 0 instructions: 510000000 cycles: 1273033036 heartbeat IPC: 0.283259 cumulative IPC: 0.340345 (Simulation time: 0 hr 21 min 50 sec) 
Heartbeat CPU 0 instructions: 520000000 cycles: 1301480041 heartbeat IPC: 0.351531 cumulative IPC: 0.340603 (Simulation time: 0 hr 22 min 18 sec) 
Heartbeat CPU 0 instructions: 530000001 cycles: 1332470122 heartbeat IPC: 0.322684 cumulative IPC: 0.340164 (Simulation time: 0 hr 22 min 47 sec) 
Heartbeat CPU 0 instructions: 540000000 cycles: 1361711382 heartbeat IPC: 0.341982 cumulative IPC: 0.340205 (Simulation time: 0 hr 23 min 15 sec) 
Heartbeat CPU 0 instructions: 550000001 cycles: 1391449150 heartbeat IPC: 0.336273 cumulative IPC: 0.340116 (Simulation time: 0 hr 23 min 45 sec) 
Heartbeat CPU 0 instructions: 560000000 cycles: 1417236001 heartbeat IPC: 0.387794 cumulative IPC: 0.341028 (Simulation time: 0 hr 24 min 13 sec) 
Heartbeat CPU 0 instructions: 570000000 cycles: 1448028987 heartbeat IPC: 0.324749 cumulative IPC: 0.340665 (Simulation time: 0 hr 24 min 42 sec) 
Heartbeat CPU 0 instructions: 580000000 cycles: 1477008031 heartbeat IPC: 0.345077 cumulative IPC: 0.340755 (Simulation time: 0 hr 25 min 10 sec) 
Heartbeat CPU 0 instructions: 590000001 cycles: 1502286553 heartbeat IPC: 0.395593 cumulative IPC: 0.341722 (Simulation time: 0 hr 25 min 37 sec) 
Heartbeat CPU 0 instructions: 600000000 cycles: 1529384792 heartbeat IPC: 0.369028 cumulative IPC: 0.342229 (Simulation time: 0 hr 26 min 5 sec) 
Finished CPU 0 instructions: 500000000 cycles: 1461012070 cumulative IPC: 0.342229 (Simulation time: 0 hr 26 min 5 sec) 

CPU 0 Branch Prediction Accuracy: 86.4311% MPKI: 26.2662
Number of Branches: 96788573 Number of Mispredictions: 13133102
Number of LOAD Instructions: 164682285
Number of LOAD Instructions (ROI): 164682285
Number of STORE Instructions: 78194750
Number of STORE Instructions (ROI): 78194750
Total Destination Memory Operands: 83268534
Total Destination Memory Operands (ROI): 83268534
Total Source Memory Operands: 164712438
Total Source Memory Operands (ROI): 164712438
Number of DEPENDED LOADS: 7052335
Number of DEPENDED LOADS (ROI): 7052335
Number of SQ_ADDED: 83268522
Number of SQ_ADDED (ROI): 83268522
Number of LQ_ADDED: 236855707
Number of LQ_ADDED (ROI): 236855707
Number of Instructions read from trace: 600000066

ChampSim completed all CPUs

Region of Interest Statistics

CPU 0 cumulative IPC: 0.342229 instructions: 500000000 cycles: 1461012070
ITLB TOTAL     ACCESS:  100538736  HIT:  100334290  MISS:     204446
ITLB LOAD      ACCESS:  100538736  HIT:  100334290  MISS:     204446
ITLB RFO       ACCESS:          0  HIT:          0  MISS:          0
ITLB PREFETCH  ACCESS:          0  HIT:          0  MISS:          0
ITLB WRITEBACK ACCESS:          0  HIT:          0  MISS:          0
ITLB PREFETCH  REQUESTED:          0  ISSUED:          0  USEFUL:          0  USELESS:          0
ITLB TOTAL MSHR MERGED:     172423
ITLB LOAD MSHR MERGED:     172423
ITLB RFO MSHR MERGED:          0
ITLB PREFETCH MSHR MERGED:          0
ITLB WRITEBACK MSHR MERGED:          0
ITLB TOTAL ACCESSES:  100711159 HITS:  100334290 MISSES:     376869
ITLB LOAD ACCESSES:  100711159 HITS:  100334290 MISSES:     376869
ITLB RFO ACCESSES:          0 HITS:          0 MISSES:          0
ITLB PREFETCH ACCESSES:          0 HITS:          0 MISSES:          0
ITLB WRITEBACK ACCESSES:          0 HITS:          0 MISSES:          0
ITLB RQ ACCESS:  500000057
ITLB RQ TO_CACHE:  100711159
ITLB RQ MERGED:  399288898
ITLB RQ FORWARD:          0
ITLB WQ ACCESS:          0
ITLB WQ TO_CACHE:          0
ITLB WQ MERGED:          0
ITLB WQ FORWARD:          0
DTLB TOTAL     ACCESS:  165356201  HIT:  164721842  MISS:     634359
DTLB LOAD      ACCESS:  106305979  HIT:  105736015  MISS:     569964
DTLB RFO       ACCESS:   59050222  HIT:   58985827  MISS:      64395
DTLB PREFETCH  ACCESS:          0  HIT:          0  MISS:          0
DTLB WRITEBACK ACCESS:          0  HIT:          0  MISS:          0
DTLB PREFETCH  REQUESTED:          0  ISSUED:          0  USEFUL:          0  USELESS:          0
DTLB TOTAL MSHR MERGED:      99503
DTLB LOAD MSHR MERGED:      59164
DTLB RFO MSHR MERGED:      40339
DTLB PREFETCH MSHR MERGED:          0
DTLB WRITEBACK MSHR MERGED:          0
DTLB TOTAL ACCESSES:  165455704 HITS:  164721842 MISSES:     733862
DTLB LOAD ACCESSES:  106365143 HITS:  105736015 MISSES:     629128
DTLB RFO ACCESSES:   59090561 HITS:   58985827 MISSES:     104734
DTLB PREFETCH ACCESSES:          0 HITS:          0 MISSES:          0
DTLB WRITEBACK ACCESSES:          0 HITS:          0 MISSES:          0
DTLB RQ ACCESS:  200318572
DTLB RQ TO_CACHE:  165455704
DTLB RQ MERGED:   34862868
DTLB RQ FORWARD:          0
DTLB WQ ACCESS:          0
DTLB WQ TO_CACHE:          0
DTLB WQ MERGED:          0
DTLB WQ FORWARD:          0
L1D TOTAL     ACCESS:  281854711  HIT:  273945274  MISS:    7909437
L1D LOAD      ACCESS:  110432954  HIT:  107150208  MISS:    3282746
L1D RFO       ACCESS:   67135092  HIT:   66245218  MISS:     889874
L1D PREFETCH  ACCESS:  104286665  HIT:  100549848  MISS:    3736817
L1D WRITEBACK ACCESS:          0  HIT:          0  MISS:          0
L1D PREFETCH  REQUESTED:  110835583  ISSUED:  109136223  USEFUL:    1657382  USELESS:    2079399
L1D TOTAL MSHR MERGED:    2891710
L1D LOAD MSHR MERGED:     505157
L1D RFO MSHR MERGED:    1849661
L1D PREFETCH MSHR MERGED:     536892
L1D WRITEBACK MSHR MERGED:          0
L1D TOTAL ACCESSES:  284773822 HITS:  273972675 MISSES:   10801147
L1D LOAD ACCESSES:  110837022 HITS:  107151647 MISSES:    3685375
L1D RFO ACCESSES:   68973613 HITS:   66245218 MISSES:    2728395
L1D PREFETCH ACCESSES:  104963187 HITS:  100575810 MISSES:    4387377
L1D WRITEBACK ACCESSES:          0 HITS:          0 MISSES:          0
L1D RQ ACCESS:  130765969
L1D RQ TO_CACHE:  110835586
L1D RQ MERGED:   19928944
L1D RQ FORWARD:          0
L1D WQ ACCESS:   69552603
L1D WQ TO_CACHE:   68973614
L1D WQ MERGED:     578989
L1D WQ FORWARD:      27401
L1I TOTAL     ACCESS:  126583931  HIT:  122345390  MISS:    4238541
L1I LOAD      ACCESS:  126583931  HIT:  122345390  MISS:    4238541
L1I RFO       ACCESS:          0  HIT:          0  MISS:          0
L1I PREFETCH  ACCESS:          0  HIT:          0  MISS:          0
L1I WRITEBACK ACCESS:          0  HIT:          0  MISS:          0
L1I PREFETCH  REQUESTED:          0  ISSUED:          0  USEFUL:          0  USELESS:          0
L1I TOTAL MSHR MERGED:    1836722
L1I LOAD MSHR MERGED:    1836722
L1I RFO MSHR MERGED:          0
L1I PREFETCH MSHR MERGED:          0
L1I WRITEBACK MSHR MERGED:          0
L1I TOTAL ACCESSES:  128420656 HITS:  122345390 MISSES:    6075266
L1I LOAD ACCESSES:  128420656 HITS:  122345390 MISSES:    6075266
L1I RFO ACCESSES:          0 HITS:          0 MISSES:          0
L1I PREFETCH ACCESSES:          0 HITS:          0 MISSES:          0
L1I WRITEBACK ACCESSES:          0 HITS:          0 MISSES:          0
L1I RQ ACCESS:  500000057
L1I RQ TO_CACHE:  128420656
L1I RQ MERGED:  371579401
L1I RQ FORWARD:          0
L1I WQ ACCESS:          0
L1I WQ TO_CACHE:          0
L1I WQ MERGED:          0
L1I WQ FORWARD:          0
L2C TOTAL     ACCESS:   14905512  HIT:   11159028  MISS:    3746484
L2C LOAD      ACCESS:    7418552  HIT:    5098763  MISS:    2319789
L2C RFO       ACCESS:     878638  HIT:     409956  MISS:     468682
L2C PREFETCH  ACCESS:    4569077  HIT:    3628326  MISS:     940751
L2C WRITEBACK ACCESS:    2039245  HIT:    2021983  MISS:      17262
L2C PREFETCH  REQUESTED:     842765  ISSUED:     842765  USEFUL:     203521  USELESS:     736936
L2C TOTAL MSHR MERGED:       6824
L2C LOAD MSHR MERGED:        703
L2C RFO MSHR MERGED:          0
L2C PREFETCH MSHR MERGED:       6121
L2C WRITEBACK MSHR MERGED:          0
L2C TOTAL ACCESSES:   14913255 HITS:   11159470 MISSES:    3753785
L2C LOAD ACCESSES:    7418759 HITS:    5098970 MISSES:    2319789
L2C RFO ACCESSES:     878734 HITS:     410052 MISSES:     468682
L2C PREFETCH ACCESSES:    4576517 HITS:    3628465 MISSES:     948052
L2C WRITEBACK ACCESSES:    2039245 HITS:    2021983 MISSES:      17262
L2C RQ ACCESS:    8297496
L2C RQ TO_CACHE:    8297193
L2C RQ MERGED:          0
L2C RQ FORWARD:          0
L2C WQ ACCESS:    2039245
L2C WQ TO_CACHE:    2039245
L2C WQ MERGED:          0
L2C WQ FORWARD:        442
LLC TOTAL     ACCESS:    4609850  HIT:    3318506  MISS:    1291344
LLC LOAD      ACCESS:    2319071  HIT:    1583051  MISS:     736020
LLC RFO       ACCESS:     468673  HIT:     421071  MISS:      47602
LLC PREFETCH  ACCESS:     941816  HIT:     517862  MISS:     423954
LLC WRITEBACK ACCESS:     880290  HIT:     796522  MISS:      83768
LLC PREFETCH  REQUESTED:          0  ISSUED:          0  USEFUL:      10979  USELESS:     412085
LLC TOTAL MSHR MERGED:         91
LLC LOAD MSHR MERGED:         33
LLC RFO MSHR MERGED:          0
LLC PREFETCH MSHR MERGED:         58
LLC WRITEBACK MSHR MERGED:          0
LLC TOTAL ACCESSES:    4609979 HITS:    3318544 MISSES:    1291435
LLC LOAD ACCESSES:    2319086 HITS:    1583066 MISSES:     736020
LLC RFO ACCESSES:     468682 HITS:     421080 MISSES:      47602
LLC PREFETCH ACCESSES:     941921 HITS:     517876 MISSES:     424045
LLC WRITEBACK ACCESSES:     880290 HITS:     796522 MISSES:      83768
LLC 0 RQ ACCESS:    2787768
LLC 0 RQ TO_CACHE:    2787744
LLC 0 RQ MERGED:          0
LLC 0 RQ FORWARD:          0
LLC WQ ACCESS:     880290
LLC WQ TO_CACHE:     880290
LLC WQ MERGED:          0
LLC WQ FORWARD:         38
Major fault: 0 Minor fault: 12862
CPU 0 L1D next line prefetcher final stats
CPU 0 L2C PC-based stride prefetcher final stats
All Misses: 1455046
All Hits: 3971810
SD Algo Stats - Switches: 44 SRR-Repls: 545205 BRR-Repls: 235440

DRAM Statistics
 CHANNEL 0
 RQ ROW_BUFFER_HIT:     320654  ROW_BUFFER_MISS:     883073
 DBUS_CONGESTED:     418726
 WQ ROW_BUFFER_HIT:       8044  ROW_BUFFER_MISS:     142166  FULL:          0

 AVG_CONGESTED_CYCLE: 13
LOADS RETIRED: 136549171
INSTR RETIRED: 500000000
