
*** ChampSim Multicore Out-of-Order Simulator ***

Warmup Instructions: 100000000
Simulation Instructions: 500000000
Number of CPUs: 1
LLC sets: 2048
LLC ways: 16
Clean RRIP Policies: 2213232222132322 Dirty RRIP Policies: 2203130222031302 PSEL Width: 10 Track Set: 4294967295 PSEL Mask: 1 Demote Mask: 3040100030401000DS Algo: 0Window size: 0
Off-chip DRAM Size: 4096 MB Channels: 1 Width: 64-bit Data Rate: 1600 MT/s

CPU 0 runs /mnt/beegfs/iconst01/spec2017/Wrf.trace.gz
NOT SORTED
TRACE STRING: /mnt/beegfs/iconst01/spec2017/Wrf.trace.gz
SORTED
TRACE STRING: /mnt/beegfs/iconst01/spec2017/Wrf.trace.gz
INITIAL
TRACE STRING: /mnt/beegfs/iconst01/spec2017/Wrf.trace.gz

champsim_seed used: 303

CPU 0 L1D next line prefetcher
CPU 0 L2C IP-based stride prefetcher
Initialize DRRIP state
Assign rand_sets[0]: 454  LLC: 2048
rand_sets[0]: 454
Assign rand_sets[1]: 1662  LLC: 2048
rand_sets[1]: 1662
Assign rand_sets[2]: 1921  LLC: 2048
rand_sets[2]: 1921
Assign rand_sets[3]: 1131  LLC: 2048
rand_sets[3]: 1131
Assign rand_sets[4]: 331  LLC: 2048
rand_sets[4]: 331
Assign rand_sets[5]: 1531  LLC: 2048
rand_sets[5]: 1531
Assign rand_sets[6]: 482  LLC: 2048
rand_sets[6]: 482
Assign rand_sets[7]: 1275  LLC: 2048
rand_sets[7]: 1275
Assign rand_sets[8]: 1876  LLC: 2048
rand_sets[8]: 1876
Assign rand_sets[9]: 2038  LLC: 2048
rand_sets[9]: 2038
Assign rand_sets[10]: 701  LLC: 2048
rand_sets[10]: 701
Assign rand_sets[11]: 479  LLC: 2048
rand_sets[11]: 479
Assign rand_sets[12]: 892  LLC: 2048
rand_sets[12]: 892
Assign rand_sets[13]: 1820  LLC: 2048
rand_sets[13]: 1820
Assign rand_sets[14]: 1505  LLC: 2048
rand_sets[14]: 1505
Assign rand_sets[15]: 1159  LLC: 2048
rand_sets[15]: 1159
Assign rand_sets[16]: 513  LLC: 2048
rand_sets[16]: 513
Assign rand_sets[17]: 703  LLC: 2048
rand_sets[17]: 703
Assign rand_sets[18]: 561  LLC: 2048
rand_sets[18]: 561
Assign rand_sets[19]: 990  LLC: 2048
rand_sets[19]: 990
Assign rand_sets[20]: 342  LLC: 2048
rand_sets[20]: 342
Assign rand_sets[21]: 882  LLC: 2048
rand_sets[21]: 882
Assign rand_sets[22]: 15  LLC: 2048
rand_sets[22]: 15
Assign rand_sets[23]: 71  LLC: 2048
rand_sets[23]: 71
Assign rand_sets[24]: 1127  LLC: 2048
rand_sets[24]: 1127
Assign rand_sets[25]: 1382  LLC: 2048
rand_sets[25]: 1382
Assign rand_sets[26]: 647  LLC: 2048
rand_sets[26]: 647
Assign rand_sets[27]: 857  LLC: 2048
rand_sets[27]: 857
Assign rand_sets[28]: 1450  LLC: 2048
rand_sets[28]: 1450
Assign rand_sets[29]: 1160  LLC: 2048
rand_sets[29]: 1160
Assign rand_sets[30]: 1852  LLC: 2048
rand_sets[30]: 1852
Assign rand_sets[31]: 1881  LLC: 2048
rand_sets[31]: 1881
Assign rand_sets[32]: 1770  LLC: 2048
rand_sets[32]: 1770
Assign rand_sets[33]: 1622  LLC: 2048
rand_sets[33]: 1622
Assign rand_sets[34]: 275  LLC: 2048
rand_sets[34]: 275
Assign rand_sets[35]: 635  LLC: 2048
rand_sets[35]: 635
Assign rand_sets[36]: 466  LLC: 2048
rand_sets[36]: 466
Assign rand_sets[37]: 1413  LLC: 2048
rand_sets[37]: 1413
Assign rand_sets[38]: 417  LLC: 2048
rand_sets[38]: 417
Assign rand_sets[39]: 472  LLC: 2048
rand_sets[39]: 472
Assign rand_sets[40]: 1340  LLC: 2048
rand_sets[40]: 1340
Assign rand_sets[41]: 852  LLC: 2048
rand_sets[41]: 852
Assign rand_sets[42]: 1365  LLC: 2048
rand_sets[42]: 1365
Assign rand_sets[43]: 47  LLC: 2048
rand_sets[43]: 47
Assign rand_sets[44]: 823  LLC: 2048
rand_sets[44]: 823
Assign rand_sets[45]: 686  LLC: 2048
rand_sets[45]: 686
Assign rand_sets[46]: 1637  LLC: 2048
rand_sets[46]: 1637
Assign rand_sets[47]: 1115  LLC: 2048
rand_sets[47]: 1115
Assign rand_sets[48]: 986  LLC: 2048
rand_sets[48]: 986
Assign rand_sets[49]: 258  LLC: 2048
rand_sets[49]: 258
Assign rand_sets[50]: 633  LLC: 2048
rand_sets[50]: 633
Assign rand_sets[51]: 920  LLC: 2048
rand_sets[51]: 920
Assign rand_sets[52]: 204  LLC: 2048
rand_sets[52]: 204
Assign rand_sets[53]: 227  LLC: 2048
rand_sets[53]: 227
Assign rand_sets[54]: 1818  LLC: 2048
rand_sets[54]: 1818
Assign rand_sets[55]: 886  LLC: 2048
rand_sets[55]: 886
Assign rand_sets[56]: 1422  LLC: 2048
rand_sets[56]: 1422
Assign rand_sets[57]: 607  LLC: 2048
rand_sets[57]: 607
Assign rand_sets[58]: 217  LLC: 2048
rand_sets[58]: 217
Assign rand_sets[59]: 1945  LLC: 2048
rand_sets[59]: 1945
Assign rand_sets[60]: 143  LLC: 2048
rand_sets[60]: 143
Assign rand_sets[61]: 1311  LLC: 2048
rand_sets[61]: 1311
Assign rand_sets[62]: 319  LLC: 2048
rand_sets[62]: 319
Assign rand_sets[63]: 1846  LLC: 2048
rand_sets[63]: 1846
 CLEAN-RRIP-POLICY-1: 2-2-1-3-2-3-2-2- CLEAN-RRIP-POLICY-2: 2-2-1-3-2-3-2-2-
 DIRTY-RRIP-POLICY-1: 2-2-0-3-1-3-0-2- DIRTY-RRIP-POLICY-2: 2-2-0-3-1-3-0-2-
 PSEL width: 10
Heartbeat CPU 0 instructions: 10000002 cycles: 6559549 heartbeat IPC: 1.5245 cumulative IPC: 1.5245 (Simulation time: 0 hr 0 min 22 sec) 
Heartbeat CPU 0 instructions: 20000000 cycles: 12222181 heartbeat IPC: 1.76596 cumulative IPC: 1.63637 (Simulation time: 0 hr 0 min 43 sec) 
Heartbeat CPU 0 instructions: 30000003 cycles: 18204001 heartbeat IPC: 1.67173 cumulative IPC: 1.64799 (Simulation time: 0 hr 1 min 3 sec) 
Heartbeat CPU 0 instructions: 40000000 cycles: 24059338 heartbeat IPC: 1.70784 cumulative IPC: 1.66256 (Simulation time: 0 hr 1 min 24 sec) 
Heartbeat CPU 0 instructions: 50000000 cycles: 29527714 heartbeat IPC: 1.8287 cumulative IPC: 1.69332 (Simulation time: 0 hr 1 min 45 sec) 
Heartbeat CPU 0 instructions: 60000000 cycles: 35640513 heartbeat IPC: 1.63591 cumulative IPC: 1.68348 (Simulation time: 0 hr 2 min 6 sec) 
Heartbeat CPU 0 instructions: 70000000 cycles: 41360229 heartbeat IPC: 1.74834 cumulative IPC: 1.69245 (Simulation time: 0 hr 2 min 27 sec) 
Heartbeat CPU 0 instructions: 80000000 cycles: 47231166 heartbeat IPC: 1.70331 cumulative IPC: 1.6938 (Simulation time: 0 hr 2 min 47 sec) 
Heartbeat CPU 0 instructions: 90000000 cycles: 52984683 heartbeat IPC: 1.73807 cumulative IPC: 1.6986 (Simulation time: 0 hr 3 min 8 sec) 
Heartbeat CPU 0 instructions: 100000000 cycles: 58537786 heartbeat IPC: 1.80079 cumulative IPC: 1.7083 (Simulation time: 0 hr 3 min 29 sec) 

Warmup complete CPU 0 instructions: 100000004 cycles: 58537788 (Simulation time: 0 hr 3 min 29 sec) 

Heartbeat CPU 0 instructions: 110000001 cycles: 72363499 heartbeat IPC: 0.72329 cumulative IPC: 0.72329 (Simulation time: 0 hr 3 min 54 sec) 
Heartbeat CPU 0 instructions: 120000000 cycles: 82920374 heartbeat IPC: 0.94725 cumulative IPC: 0.820257 (Simulation time: 0 hr 4 min 18 sec) 
Heartbeat CPU 0 instructions: 130000000 cycles: 92604191 heartbeat IPC: 1.03265 cumulative IPC: 0.880633 (Simulation time: 0 hr 4 min 41 sec) 
Heartbeat CPU 0 instructions: 140000000 cycles: 103047722 heartbeat IPC: 0.957531 cumulative IPC: 0.898676 (Simulation time: 0 hr 5 min 4 sec) 
Heartbeat CPU 0 instructions: 150000002 cycles: 113803023 heartbeat IPC: 0.929774 cumulative IPC: 0.904728 (Simulation time: 0 hr 5 min 28 sec) 
Heartbeat CPU 0 instructions: 160000000 cycles: 122671482 heartbeat IPC: 1.12759 cumulative IPC: 0.935546 (Simulation time: 0 hr 5 min 50 sec) 
Heartbeat CPU 0 instructions: 170000003 cycles: 132875242 heartbeat IPC: 0.980031 cumulative IPC: 0.941652 (Simulation time: 0 hr 6 min 13 sec) 
Heartbeat CPU 0 instructions: 180000000 cycles: 145357138 heartbeat IPC: 0.80116 cumulative IPC: 0.921454 (Simulation time: 0 hr 6 min 37 sec) 
Heartbeat CPU 0 instructions: 190000000 cycles: 160434271 heartbeat IPC: 0.663256 cumulative IPC: 0.883249 (Simulation time: 0 hr 7 min 2 sec) 
Heartbeat CPU 0 instructions: 200000000 cycles: 175475990 heartbeat IPC: 0.664818 cumulative IPC: 0.855152 (Simulation time: 0 hr 7 min 26 sec) 
Heartbeat CPU 0 instructions: 210000000 cycles: 190500876 heartbeat IPC: 0.665562 cumulative IPC: 0.833566 (Simulation time: 0 hr 7 min 50 sec) 
Heartbeat CPU 0 instructions: 220000000 cycles: 206425638 heartbeat IPC: 0.627953 cumulative IPC: 0.811426 (Simulation time: 0 hr 8 min 17 sec) 
Heartbeat CPU 0 instructions: 230000003 cycles: 224984924 heartbeat IPC: 0.538814 cumulative IPC: 0.781029 (Simulation time: 0 hr 8 min 45 sec) 
Heartbeat CPU 0 instructions: 240000000 cycles: 234107001 heartbeat IPC: 1.09624 cumulative IPC: 0.797406 (Simulation time: 0 hr 9 min 7 sec) 
Heartbeat CPU 0 instructions: 250000000 cycles: 242769974 heartbeat IPC: 1.15434 cumulative IPC: 0.81419 (Simulation time: 0 hr 9 min 29 sec) 
Heartbeat CPU 0 instructions: 260000000 cycles: 251813468 heartbeat IPC: 1.10577 cumulative IPC: 0.827833 (Simulation time: 0 hr 9 min 51 sec) 
Heartbeat CPU 0 instructions: 270000000 cycles: 261395790 heartbeat IPC: 1.04359 cumulative IPC: 0.838025 (Simulation time: 0 hr 10 min 14 sec) 
Heartbeat CPU 0 instructions: 280000000 cycles: 271159988 heartbeat IPC: 1.02415 cumulative IPC: 0.846572 (Simulation time: 0 hr 10 min 38 sec) 
Heartbeat CPU 0 instructions: 290000000 cycles: 281295335 heartbeat IPC: 0.986646 cumulative IPC: 0.852945 (Simulation time: 0 hr 11 min 3 sec) 
Heartbeat CPU 0 instructions: 300000000 cycles: 290176685 heartbeat IPC: 1.12595 cumulative IPC: 0.863413 (Simulation time: 0 hr 11 min 25 sec) 
Heartbeat CPU 0 instructions: 310000002 cycles: 304729455 heartbeat IPC: 0.687155 cumulative IPC: 0.852994 (Simulation time: 0 hr 11 min 52 sec) 
Heartbeat CPU 0 instructions: 320000000 cycles: 320867195 heartbeat IPC: 0.619665 cumulative IPC: 0.83864 (Simulation time: 0 hr 12 min 21 sec) 
Heartbeat CPU 0 instructions: 330000002 cycles: 331508980 heartbeat IPC: 0.939692 cumulative IPC: 0.84258 (Simulation time: 0 hr 12 min 45 sec) 
Heartbeat CPU 0 instructions: 340000000 cycles: 341977292 heartbeat IPC: 0.955264 cumulative IPC: 0.846741 (Simulation time: 0 hr 13 min 9 sec) 
Heartbeat CPU 0 instructions: 350000002 cycles: 355000927 heartbeat IPC: 0.767835 cumulative IPC: 0.843275 (Simulation time: 0 hr 13 min 35 sec) 
Heartbeat CPU 0 instructions: 360000000 cycles: 366133195 heartbeat IPC: 0.898289 cumulative IPC: 0.845266 (Simulation time: 0 hr 13 min 59 sec) 
Heartbeat CPU 0 instructions: 370000002 cycles: 376846192 heartbeat IPC: 0.933446 cumulative IPC: 0.848234 (Simulation time: 0 hr 14 min 23 sec) 
Heartbeat CPU 0 instructions: 380000000 cycles: 387379555 heartbeat IPC: 0.949364 cumulative IPC: 0.851473 (Simulation time: 0 hr 14 min 48 sec) 
Heartbeat CPU 0 instructions: 390000003 cycles: 404730194 heartbeat IPC: 0.576348 cumulative IPC: 0.837684 (Simulation time: 0 hr 15 min 17 sec) 
Heartbeat CPU 0 instructions: 400000000 cycles: 415311179 heartbeat IPC: 0.945091 cumulative IPC: 0.84087 (Simulation time: 0 hr 15 min 39 sec) 
Heartbeat CPU 0 instructions: 410000002 cycles: 425207157 heartbeat IPC: 1.01051 cumulative IPC: 0.845448 (Simulation time: 0 hr 16 min 2 sec) 
Heartbeat CPU 0 instructions: 420000000 cycles: 434890659 heartbeat IPC: 1.03268 cumulative IPC: 0.850266 (Simulation time: 0 hr 16 min 24 sec) 
Heartbeat CPU 0 instructions: 430000001 cycles: 444673721 heartbeat IPC: 1.02217 cumulative IPC: 0.854621 (Simulation time: 0 hr 16 min 46 sec) 
Heartbeat CPU 0 instructions: 440000000 cycles: 456136874 heartbeat IPC: 0.87236 cumulative IPC: 0.855133 (Simulation time: 0 hr 17 min 9 sec) 
Heartbeat CPU 0 instructions: 450000002 cycles: 471213969 heartbeat IPC: 0.663258 cumulative IPC: 0.848123 (Simulation time: 0 hr 17 min 33 sec) 
Heartbeat CPU 0 instructions: 460000000 cycles: 486271938 heartbeat IPC: 0.6641 cumulative IPC: 0.841644 (Simulation time: 0 hr 17 min 57 sec) 
Heartbeat CPU 0 instructions: 470000003 cycles: 501316845 heartbeat IPC: 0.664677 cumulative IPC: 0.835631 (Simulation time: 0 hr 18 min 21 sec) 
Heartbeat CPU 0 instructions: 480000000 cycles: 517304512 heartbeat IPC: 0.625482 cumulative IPC: 0.828308 (Simulation time: 0 hr 18 min 47 sec) 
Heartbeat CPU 0 instructions: 490000002 cycles: 535987269 heartbeat IPC: 0.535253 cumulative IPC: 0.81684 (Simulation time: 0 hr 19 min 16 sec) 
Heartbeat CPU 0 instructions: 500000000 cycles: 545063519 heartbeat IPC: 1.10178 cumulative IPC: 0.822156 (Simulation time: 0 hr 19 min 38 sec) 
Heartbeat CPU 0 instructions: 510000002 cycles: 553793534 heartbeat IPC: 1.14547 cumulative IPC: 0.827855 (Simulation time: 0 hr 19 min 59 sec) 
Heartbeat CPU 0 instructions: 520000000 cycles: 562814336 heartbeat IPC: 1.10855 cumulative IPC: 0.832876 (Simulation time: 0 hr 20 min 21 sec) 
Heartbeat CPU 0 instructions: 530000002 cycles: 572388269 heartbeat IPC: 1.0445 cumulative IPC: 0.836819 (Simulation time: 0 hr 20 min 44 sec) 
Heartbeat CPU 0 instructions: 540000000 cycles: 582095278 heartbeat IPC: 1.03018 cumulative IPC: 0.840404 (Simulation time: 0 hr 21 min 8 sec) 
Heartbeat CPU 0 instructions: 550000002 cycles: 592262787 heartbeat IPC: 0.983525 cumulative IPC: 0.843131 (Simulation time: 0 hr 21 min 32 sec) 
Heartbeat CPU 0 instructions: 560000000 cycles: 601134923 heartbeat IPC: 1.12712 cumulative IPC: 0.847774 (Simulation time: 0 hr 21 min 55 sec) 
Heartbeat CPU 0 instructions: 570000003 cycles: 615524820 heartbeat IPC: 0.694932 cumulative IPC: 0.843826 (Simulation time: 0 hr 22 min 21 sec) 
Heartbeat CPU 0 instructions: 580000000 cycles: 631779735 heartbeat IPC: 0.615198 cumulative IPC: 0.837343 (Simulation time: 0 hr 22 min 50 sec) 
Heartbeat CPU 0 instructions: 590000002 cycles: 642022330 heartbeat IPC: 0.976315 cumulative IPC: 0.839782 (Simulation time: 0 hr 23 min 13 sec) 
Heartbeat CPU 0 instructions: 600000000 cycles: 652891046 heartbeat IPC: 0.920072 cumulative IPC: 0.841251 (Simulation time: 0 hr 23 min 38 sec) 
Finished CPU 0 instructions: 500000000 cycles: 594353277 cumulative IPC: 0.841251 (Simulation time: 0 hr 23 min 38 sec) 

CPU 0 Branch Prediction Accuracy: 99.5219% MPKI: 0.251582
Number of Branches: 26312578 Number of Mispredictions: 125791
Number of LOAD Instructions: 235643083
Number of LOAD Instructions (ROI): 235643083
Number of STORE Instructions: 37593550
Number of STORE Instructions (ROI): 37593550
Total Destination Memory Operands: 40480968
Total Destination Memory Operands (ROI): 40480968
Total Source Memory Operands: 235643083
Total Source Memory Operands (ROI): 235643083
Number of DEPENDED LOADS: 6698806
Number of DEPENDED LOADS (ROI): 6698806
Number of SQ_ADDED: 40480950
Number of SQ_ADDED (ROI): 40480950
Number of LQ_ADDED: 389183828
Number of LQ_ADDED (ROI): 389183828
Number of Instructions read from trace: 600000259

ChampSim completed all CPUs

Region of Interest Statistics

CPU 0 cumulative IPC: 0.841251 instructions: 500000000 cycles: 594353277
ITLB TOTAL     ACCESS:  109321005  HIT:  109320492  MISS:        513
ITLB LOAD      ACCESS:  109321005  HIT:  109320492  MISS:        513
ITLB RFO       ACCESS:          0  HIT:          0  MISS:          0
ITLB PREFETCH  ACCESS:          0  HIT:          0  MISS:          0
ITLB WRITEBACK ACCESS:          0  HIT:          0  MISS:          0
ITLB PREFETCH  REQUESTED:          0  ISSUED:          0  USEFUL:          0  USELESS:          0
ITLB TOTAL MSHR MERGED:        977
ITLB LOAD MSHR MERGED:        977
ITLB RFO MSHR MERGED:          0
ITLB PREFETCH MSHR MERGED:          0
ITLB WRITEBACK MSHR MERGED:          0
ITLB TOTAL ACCESSES:  109321982 HITS:  109320492 MISSES:       1490
ITLB LOAD ACCESSES:  109321982 HITS:  109320492 MISSES:       1490
ITLB RFO ACCESSES:          0 HITS:          0 MISSES:          0
ITLB PREFETCH ACCESSES:          0 HITS:          0 MISSES:          0
ITLB WRITEBACK ACCESSES:          0 HITS:          0 MISSES:          0
ITLB RQ ACCESS:  500000003
ITLB RQ TO_CACHE:  109321982
ITLB RQ MERGED:  390678021
ITLB RQ FORWARD:          0
ITLB WQ ACCESS:          0
ITLB WQ TO_CACHE:          0
ITLB WQ MERGED:          0
ITLB WQ FORWARD:          0
DTLB TOTAL     ACCESS:  130435671  HIT:  130177957  MISS:     257714
DTLB LOAD      ACCESS:  109031871  HIT:  108811033  MISS:     220838
DTLB RFO       ACCESS:   21403800  HIT:   21366924  MISS:      36876
DTLB PREFETCH  ACCESS:          0  HIT:          0  MISS:          0
DTLB WRITEBACK ACCESS:          0  HIT:          0  MISS:          0
DTLB PREFETCH  REQUESTED:          0  ISSUED:          0  USEFUL:          0  USELESS:          0
DTLB TOTAL MSHR MERGED:     122255
DTLB LOAD MSHR MERGED:      84289
DTLB RFO MSHR MERGED:      37966
DTLB PREFETCH MSHR MERGED:          0
DTLB WRITEBACK MSHR MERGED:          0
DTLB TOTAL ACCESSES:  130557926 HITS:  130177957 MISSES:     379969
DTLB LOAD ACCESSES:  109116160 HITS:  108811033 MISSES:     305127
DTLB RFO ACCESSES:   21441766 HITS:   21366924 MISSES:      74842
DTLB PREFETCH ACCESSES:          0 HITS:          0 MISSES:          0
DTLB WRITEBACK ACCESSES:          0 HITS:          0 MISSES:          0
DTLB RQ ACCESS:  218635650
DTLB RQ TO_CACHE:  130557927
DTLB RQ MERGED:   88077723
DTLB RQ FORWARD:          0
DTLB WQ ACCESS:          0
DTLB WQ TO_CACHE:          0
DTLB WQ MERGED:          0
DTLB WQ FORWARD:          0
L1D TOTAL     ACCESS:  204688962  HIT:  193616408  MISS:   11072554
L1D LOAD      ACCESS:  106322479  HIT:  103164720  MISS:    3157759
L1D RFO       ACCESS:   26961292  HIT:   25210948  MISS:    1750344
L1D PREFETCH  ACCESS:   71405191  HIT:   65240740  MISS:    6164451
L1D WRITEBACK ACCESS:          0  HIT:          0  MISS:          0
L1D PREFETCH  REQUESTED:  108924242  ISSUED:  107262853  USEFUL:    5709338  USELESS:     455107
L1D TOTAL MSHR MERGED:   18258609
L1D LOAD MSHR MERGED:    4595857
L1D RFO MSHR MERGED:    6481344
L1D PREFETCH MSHR MERGED:    7181408
L1D WRITEBACK MSHR MERGED:          0
L1D TOTAL ACCESSES:  223006490 HITS:  193675327 MISSES:   29331163
L1D LOAD ACCESSES:  108947563 HITS:  103188041 MISSES:    5759522
L1D RFO ACCESSES:   33440414 HITS:   25210948 MISSES:    8229466
L1D PREFETCH ACCESSES:   80618513 HITS:   65276338 MISSES:   15342175
L1D WRITEBACK ACCESSES:          0 HITS:          0 MISSES:          0
L1D RQ ACCESS:  184992212
L1D RQ TO_CACHE:  108924242
L1D RQ MERGED:   76044649
L1D RQ FORWARD:          0
L1D WQ ACCESS:   33643426
L1D WQ TO_CACHE:   33440413
L1D WQ MERGED:     203013
L1D WQ FORWARD:      58919
L1I TOTAL     ACCESS:  134007027  HIT:  133982449  MISS:      24578
L1I LOAD      ACCESS:  134007027  HIT:  133982449  MISS:      24578
L1I RFO       ACCESS:          0  HIT:          0  MISS:          0
L1I PREFETCH  ACCESS:          0  HIT:          0  MISS:          0
L1I WRITEBACK ACCESS:          0  HIT:          0  MISS:          0
L1I PREFETCH  REQUESTED:          0  ISSUED:          0  USEFUL:          0  USELESS:          0
L1I TOTAL MSHR MERGED:      30618
L1I LOAD MSHR MERGED:      30618
L1I RFO MSHR MERGED:          0
L1I PREFETCH MSHR MERGED:          0
L1I WRITEBACK MSHR MERGED:          0
L1I TOTAL ACCESSES:  134037645 HITS:  133982449 MISSES:      55196
L1I LOAD ACCESSES:  134037645 HITS:  133982449 MISSES:      55196
L1I RFO ACCESSES:          0 HITS:          0 MISSES:          0
L1I PREFETCH ACCESSES:          0 HITS:          0 MISSES:          0
L1I WRITEBACK ACCESSES:          0 HITS:          0 MISSES:          0
L1I RQ ACCESS:  500000005
L1I RQ TO_CACHE:  134037645
L1I RQ MERGED:  365962360
L1I RQ FORWARD:          0
L1I WQ ACCESS:          0
L1I WQ TO_CACHE:          0
L1I WQ MERGED:          0
L1I WQ FORWARD:          0
L2C TOTAL     ACCESS:   14943431  HIT:    6945835  MISS:    7997596
L2C LOAD      ACCESS:    1188050  HIT:     299638  MISS:     888412
L2C RFO       ACCESS:    1747911  HIT:     369441  MISS:    1378470
L2C PREFETCH  ACCESS:    8325604  HIT:    2603571  MISS:    5722033
L2C WRITEBACK ACCESS:    3681866  HIT:    3673185  MISS:       8681
L2C PREFETCH  REQUESTED:     390064  ISSUED:     390060  USEFUL:     114920  USELESS:    5607948
L2C TOTAL MSHR MERGED:      41930
L2C LOAD MSHR MERGED:       2330
L2C RFO MSHR MERGED:       1462
L2C PREFETCH MSHR MERGED:      38138
L2C WRITEBACK MSHR MERGED:          0
L2C TOTAL ACCESSES:   15104658 HITS:    6946530 MISSES:    8158128
L2C LOAD ACCESSES:    1188243 HITS:     299831 MISSES:     888412
L2C RFO ACCESSES:    1748122 HITS:     369652 MISSES:    1378470
L2C PREFETCH ACCESSES:    8486427 HITS:    2603862 MISSES:    5882565
L2C WRITEBACK ACCESSES:    3681866 HITS:    3673185 MISSES:       8681
L2C RQ ACCESS:    2936365
L2C RQ TO_CACHE:    2935961
L2C RQ MERGED:          0
L2C RQ FORWARD:          0
L2C WQ ACCESS:    3681866
L2C WQ TO_CACHE:    3681866
L2C WQ MERGED:          0
L2C WQ FORWARD:        695
LLC TOTAL     ACCESS:   11182898  HIT:    3045778  MISS:    8137120
LLC LOAD      ACCESS:     886079  HIT:     311676  MISS:     574403
LLC RFO       ACCESS:    1377007  HIT:     246801  MISS:    1130206
LLC PREFETCH  ACCESS:    5815339  HIT:    1173000  MISS:    4642339
LLC WRITEBACK ACCESS:    3104473  HIT:    1314301  MISS:    1790172
LLC PREFETCH  REQUESTED:          0  ISSUED:          0  USEFUL:      31334  USELESS:    4610477
LLC TOTAL MSHR MERGED:      21982
LLC LOAD MSHR MERGED:       6688
LLC RFO MSHR MERGED:        583
LLC PREFETCH MSHR MERGED:      14711
LLC WRITEBACK MSHR MERGED:          0
LLC TOTAL ACCESSES:   11204893 HITS:    3045791 MISSES:    8159102
LLC LOAD ACCESSES:     886082 HITS:     311679 MISSES:     574403
LLC RFO ACCESSES:    1377008 HITS:     246802 MISSES:    1130206
LLC PREFETCH ACCESSES:    5837330 HITS:    1173009 MISSES:    4664321
LLC WRITEBACK ACCESSES:    3104473 HITS:    1314301 MISSES:    1790172
LLC 0 RQ ACCESS:    2263090
LLC 0 RQ TO_CACHE:    2263086
LLC 0 RQ MERGED:          0
LLC 0 RQ FORWARD:          0
LLC WQ ACCESS:    3104473
LLC WQ TO_CACHE:    3104473
LLC WQ MERGED:          0
LLC WQ FORWARD:         13
Major fault: 0 Minor fault: 11519
CPU 0 L1D next line prefetcher final stats
CPU 0 L2C PC-based stride prefetcher final stats
All Misses: 10245498
All Hits: 3548445
SD Algo Stats - Switches: 0 SRR-Repls: 646425 BRR-Repls: 0

DRAM Statistics
 CHANNEL 0
 RQ ROW_BUFFER_HIT:    3872695  ROW_BUFFER_MISS:    2473384
 DBUS_CONGESTED:    4350893
 WQ ROW_BUFFER_HIT:     381311  ROW_BUFFER_MISS:    1753559  FULL:          0

 AVG_CONGESTED_CYCLE: 13
LOADS RETIRED: 190375692
INSTR RETIRED: 500000000
