
*** ChampSim Multicore Out-of-Order Simulator ***

Warmup Instructions: 100000000
Simulation Instructions: 500000000
Number of CPUs: 1
LLC sets: 2048
LLC ways: 16
Clean RRIP Policies: 1013230110132301 Dirty RRIP Policies: 2013031120130311 PSEL Width: 10 Track Set: 4294967295 PSEL Mask: 1 Demote Mask: 4340011043400110DS Algo: 0Window size: 0
Off-chip DRAM Size: 4096 MB Channels: 1 Width: 64-bit Data Rate: 1600 MT/s

CPU 0 runs /mnt/beegfs/iconst01/spec2017/Gcc.trace.gz
NOT SORTED
TRACE STRING: /mnt/beegfs/iconst01/spec2017/Gcc.trace.gz
SORTED
TRACE STRING: /mnt/beegfs/iconst01/spec2017/Gcc.trace.gz
INITIAL
TRACE STRING: /mnt/beegfs/iconst01/spec2017/Gcc.trace.gz

champsim_seed used: 269

CPU 0 L1D next line prefetcher
CPU 0 L2C IP-based stride prefetcher
Initialize DRRIP state
Assign rand_sets[0]: 454  LLC: 2048
rand_sets[0]: 454
Assign rand_sets[1]: 1662  LLC: 2048
rand_sets[1]: 1662
Assign rand_sets[2]: 1921  LLC: 2048
rand_sets[2]: 1921
Assign rand_sets[3]: 1131  LLC: 2048
rand_sets[3]: 1131
Assign rand_sets[4]: 331  LLC: 2048
rand_sets[4]: 331
Assign rand_sets[5]: 1531  LLC: 2048
rand_sets[5]: 1531
Assign rand_sets[6]: 482  LLC: 2048
rand_sets[6]: 482
Assign rand_sets[7]: 1275  LLC: 2048
rand_sets[7]: 1275
Assign rand_sets[8]: 1876  LLC: 2048
rand_sets[8]: 1876
Assign rand_sets[9]: 2038  LLC: 2048
rand_sets[9]: 2038
Assign rand_sets[10]: 701  LLC: 2048
rand_sets[10]: 701
Assign rand_sets[11]: 479  LLC: 2048
rand_sets[11]: 479
Assign rand_sets[12]: 892  LLC: 2048
rand_sets[12]: 892
Assign rand_sets[13]: 1820  LLC: 2048
rand_sets[13]: 1820
Assign rand_sets[14]: 1505  LLC: 2048
rand_sets[14]: 1505
Assign rand_sets[15]: 1159  LLC: 2048
rand_sets[15]: 1159
Assign rand_sets[16]: 513  LLC: 2048
rand_sets[16]: 513
Assign rand_sets[17]: 703  LLC: 2048
rand_sets[17]: 703
Assign rand_sets[18]: 561  LLC: 2048
rand_sets[18]: 561
Assign rand_sets[19]: 990  LLC: 2048
rand_sets[19]: 990
Assign rand_sets[20]: 342  LLC: 2048
rand_sets[20]: 342
Assign rand_sets[21]: 882  LLC: 2048
rand_sets[21]: 882
Assign rand_sets[22]: 15  LLC: 2048
rand_sets[22]: 15
Assign rand_sets[23]: 71  LLC: 2048
rand_sets[23]: 71
Assign rand_sets[24]: 1127  LLC: 2048
rand_sets[24]: 1127
Assign rand_sets[25]: 1382  LLC: 2048
rand_sets[25]: 1382
Assign rand_sets[26]: 647  LLC: 2048
rand_sets[26]: 647
Assign rand_sets[27]: 857  LLC: 2048
rand_sets[27]: 857
Assign rand_sets[28]: 1450  LLC: 2048
rand_sets[28]: 1450
Assign rand_sets[29]: 1160  LLC: 2048
rand_sets[29]: 1160
Assign rand_sets[30]: 1852  LLC: 2048
rand_sets[30]: 1852
Assign rand_sets[31]: 1881  LLC: 2048
rand_sets[31]: 1881
Assign rand_sets[32]: 1770  LLC: 2048
rand_sets[32]: 1770
Assign rand_sets[33]: 1622  LLC: 2048
rand_sets[33]: 1622
Assign rand_sets[34]: 275  LLC: 2048
rand_sets[34]: 275
Assign rand_sets[35]: 635  LLC: 2048
rand_sets[35]: 635
Assign rand_sets[36]: 466  LLC: 2048
rand_sets[36]: 466
Assign rand_sets[37]: 1413  LLC: 2048
rand_sets[37]: 1413
Assign rand_sets[38]: 417  LLC: 2048
rand_sets[38]: 417
Assign rand_sets[39]: 472  LLC: 2048
rand_sets[39]: 472
Assign rand_sets[40]: 1340  LLC: 2048
rand_sets[40]: 1340
Assign rand_sets[41]: 852  LLC: 2048
rand_sets[41]: 852
Assign rand_sets[42]: 1365  LLC: 2048
rand_sets[42]: 1365
Assign rand_sets[43]: 47  LLC: 2048
rand_sets[43]: 47
Assign rand_sets[44]: 823  LLC: 2048
rand_sets[44]: 823
Assign rand_sets[45]: 686  LLC: 2048
rand_sets[45]: 686
Assign rand_sets[46]: 1637  LLC: 2048
rand_sets[46]: 1637
Assign rand_sets[47]: 1115  LLC: 2048
rand_sets[47]: 1115
Assign rand_sets[48]: 986  LLC: 2048
rand_sets[48]: 986
Assign rand_sets[49]: 258  LLC: 2048
rand_sets[49]: 258
Assign rand_sets[50]: 633  LLC: 2048
rand_sets[50]: 633
Assign rand_sets[51]: 920  LLC: 2048
rand_sets[51]: 920
Assign rand_sets[52]: 204  LLC: 2048
rand_sets[52]: 204
Assign rand_sets[53]: 227  LLC: 2048
rand_sets[53]: 227
Assign rand_sets[54]: 1818  LLC: 2048
rand_sets[54]: 1818
Assign rand_sets[55]: 886  LLC: 2048
rand_sets[55]: 886
Assign rand_sets[56]: 1422  LLC: 2048
rand_sets[56]: 1422
Assign rand_sets[57]: 607  LLC: 2048
rand_sets[57]: 607
Assign rand_sets[58]: 217  LLC: 2048
rand_sets[58]: 217
Assign rand_sets[59]: 1945  LLC: 2048
rand_sets[59]: 1945
Assign rand_sets[60]: 143  LLC: 2048
rand_sets[60]: 143
Assign rand_sets[61]: 1311  LLC: 2048
rand_sets[61]: 1311
Assign rand_sets[62]: 319  LLC: 2048
rand_sets[62]: 319
Assign rand_sets[63]: 1846  LLC: 2048
rand_sets[63]: 1846
 CLEAN-RRIP-POLICY-1: 1-0-1-3-2-3-0-1- CLEAN-RRIP-POLICY-2: 1-0-1-3-2-3-0-1-
 DIRTY-RRIP-POLICY-1: 2-0-1-3-0-3-1-1- DIRTY-RRIP-POLICY-2: 2-0-1-3-0-3-1-1-
 PSEL width: 10
Heartbeat CPU 0 instructions: 10000001 cycles: 7315981 heartbeat IPC: 1.36687 cumulative IPC: 1.36687 (Simulation time: 0 hr 0 min 13 sec) 
Heartbeat CPU 0 instructions: 20000000 cycles: 14307525 heartbeat IPC: 1.4303 cumulative IPC: 1.39787 (Simulation time: 0 hr 0 min 27 sec) 
Heartbeat CPU 0 instructions: 30000001 cycles: 21020424 heartbeat IPC: 1.48967 cumulative IPC: 1.42718 (Simulation time: 0 hr 0 min 42 sec) 
Heartbeat CPU 0 instructions: 40000000 cycles: 27481254 heartbeat IPC: 1.54779 cumulative IPC: 1.45554 (Simulation time: 0 hr 0 min 57 sec) 
Heartbeat CPU 0 instructions: 50000001 cycles: 33583061 heartbeat IPC: 1.63886 cumulative IPC: 1.48885 (Simulation time: 0 hr 1 min 12 sec) 
Heartbeat CPU 0 instructions: 60000000 cycles: 40064263 heartbeat IPC: 1.54292 cumulative IPC: 1.49759 (Simulation time: 0 hr 1 min 27 sec) 
Heartbeat CPU 0 instructions: 70000000 cycles: 47102851 heartbeat IPC: 1.42074 cumulative IPC: 1.48611 (Simulation time: 0 hr 1 min 41 sec) 
Heartbeat CPU 0 instructions: 80000000 cycles: 54192473 heartbeat IPC: 1.41051 cumulative IPC: 1.47622 (Simulation time: 0 hr 1 min 55 sec) 
Heartbeat CPU 0 instructions: 90000003 cycles: 61196884 heartbeat IPC: 1.42767 cumulative IPC: 1.47066 (Simulation time: 0 hr 2 min 8 sec) 
Heartbeat CPU 0 instructions: 100000000 cycles: 68364139 heartbeat IPC: 1.39523 cumulative IPC: 1.46276 (Simulation time: 0 hr 2 min 22 sec) 

Warmup complete CPU 0 instructions: 100000004 cycles: 68364140 (Simulation time: 0 hr 2 min 22 sec) 

Heartbeat CPU 0 instructions: 110000003 cycles: 96014724 heartbeat IPC: 0.361656 cumulative IPC: 0.361656 (Simulation time: 0 hr 2 min 48 sec) 
Heartbeat CPU 0 instructions: 120000000 cycles: 123479142 heartbeat IPC: 0.364107 cumulative IPC: 0.362878 (Simulation time: 0 hr 3 min 15 sec) 
Heartbeat CPU 0 instructions: 130000000 cycles: 148466479 heartbeat IPC: 0.400203 cumulative IPC: 0.374521 (Simulation time: 0 hr 3 min 41 sec) 
Heartbeat CPU 0 instructions: 140000000 cycles: 177942770 heartbeat IPC: 0.339256 cumulative IPC: 0.365035 (Simulation time: 0 hr 4 min 6 sec) 
Heartbeat CPU 0 instructions: 150000000 cycles: 207789666 heartbeat IPC: 0.335043 cumulative IPC: 0.358614 (Simulation time: 0 hr 4 min 32 sec) 
Heartbeat CPU 0 instructions: 160000000 cycles: 235201109 heartbeat IPC: 0.364811 cumulative IPC: 0.359632 (Simulation time: 0 hr 4 min 57 sec) 
Heartbeat CPU 0 instructions: 170000001 cycles: 263234089 heartbeat IPC: 0.356723 cumulative IPC: 0.359214 (Simulation time: 0 hr 5 min 24 sec) 
Heartbeat CPU 0 instructions: 180000000 cycles: 291693495 heartbeat IPC: 0.351378 cumulative IPC: 0.358215 (Simulation time: 0 hr 5 min 51 sec) 
Heartbeat CPU 0 instructions: 190000002 cycles: 319722168 heartbeat IPC: 0.356778 cumulative IPC: 0.358055 (Simulation time: 0 hr 6 min 17 sec) 
Heartbeat CPU 0 instructions: 200000000 cycles: 348061802 heartbeat IPC: 0.352863 cumulative IPC: 0.357529 (Simulation time: 0 hr 6 min 43 sec) 
Heartbeat CPU 0 instructions: 210000002 cycles: 375910854 heartbeat IPC: 0.359079 cumulative IPC: 0.357669 (Simulation time: 0 hr 7 min 10 sec) 
Heartbeat CPU 0 instructions: 220000000 cycles: 405028517 heartbeat IPC: 0.343434 cumulative IPC: 0.356438 (Simulation time: 0 hr 7 min 35 sec) 
Heartbeat CPU 0 instructions: 230000000 cycles: 432569555 heartbeat IPC: 0.363095 cumulative IPC: 0.356941 (Simulation time: 0 hr 8 min 0 sec) 
Heartbeat CPU 0 instructions: 240000000 cycles: 458478103 heartbeat IPC: 0.385973 cumulative IPC: 0.358869 (Simulation time: 0 hr 8 min 24 sec) 
Heartbeat CPU 0 instructions: 250000000 cycles: 488615406 heartbeat IPC: 0.331815 cumulative IPC: 0.356929 (Simulation time: 0 hr 8 min 52 sec) 
Heartbeat CPU 0 instructions: 260000000 cycles: 515723338 heartbeat IPC: 0.368896 cumulative IPC: 0.357654 (Simulation time: 0 hr 9 min 17 sec) 
Heartbeat CPU 0 instructions: 270000003 cycles: 544191277 heartbeat IPC: 0.351272 cumulative IPC: 0.357273 (Simulation time: 0 hr 9 min 44 sec) 
Heartbeat CPU 0 instructions: 280000000 cycles: 572393978 heartbeat IPC: 0.354576 cumulative IPC: 0.357122 (Simulation time: 0 hr 10 min 11 sec) 
Heartbeat CPU 0 instructions: 290000000 cycles: 601300779 heartbeat IPC: 0.345939 cumulative IPC: 0.356515 (Simulation time: 0 hr 10 min 39 sec) 
Heartbeat CPU 0 instructions: 300000000 cycles: 631228900 heartbeat IPC: 0.334134 cumulative IPC: 0.355325 (Simulation time: 0 hr 11 min 4 sec) 
Heartbeat CPU 0 instructions: 310000001 cycles: 660612776 heartbeat IPC: 0.340323 cumulative IPC: 0.354581 (Simulation time: 0 hr 11 min 30 sec) 
Heartbeat CPU 0 instructions: 320000000 cycles: 688825336 heartbeat IPC: 0.354452 cumulative IPC: 0.354575 (Simulation time: 0 hr 11 min 55 sec) 
Heartbeat CPU 0 instructions: 330000000 cycles: 717451985 heartbeat IPC: 0.349325 cumulative IPC: 0.354343 (Simulation time: 0 hr 12 min 21 sec) 
Heartbeat CPU 0 instructions: 340000000 cycles: 746730661 heartbeat IPC: 0.341545 cumulative IPC: 0.353791 (Simulation time: 0 hr 12 min 46 sec) 
Heartbeat CPU 0 instructions: 350000003 cycles: 773759460 heartbeat IPC: 0.369976 cumulative IPC: 0.354411 (Simulation time: 0 hr 13 min 11 sec) 
Heartbeat CPU 0 instructions: 360000000 cycles: 801868909 heartbeat IPC: 0.355752 cumulative IPC: 0.354463 (Simulation time: 0 hr 13 min 35 sec) 
Heartbeat CPU 0 instructions: 370000000 cycles: 830045513 heartbeat IPC: 0.354904 cumulative IPC: 0.354479 (Simulation time: 0 hr 14 min 0 sec) 
Heartbeat CPU 0 instructions: 380000000 cycles: 858556532 heartbeat IPC: 0.350742 cumulative IPC: 0.354344 (Simulation time: 0 hr 14 min 24 sec) 
Heartbeat CPU 0 instructions: 390000001 cycles: 886164566 heartbeat IPC: 0.362213 cumulative IPC: 0.35461 (Simulation time: 0 hr 14 min 48 sec) 
Heartbeat CPU 0 instructions: 400000000 cycles: 914787799 heartbeat IPC: 0.349367 cumulative IPC: 0.354432 (Simulation time: 0 hr 15 min 12 sec) 
Heartbeat CPU 0 instructions: 410000001 cycles: 942082594 heartbeat IPC: 0.36637 cumulative IPC: 0.354805 (Simulation time: 0 hr 15 min 36 sec) 
Heartbeat CPU 0 instructions: 420000000 cycles: 969390845 heartbeat IPC: 0.36619 cumulative IPC: 0.35515 (Simulation time: 0 hr 16 min 0 sec) 
Heartbeat CPU 0 instructions: 430000002 cycles: 997073412 heartbeat IPC: 0.361238 cumulative IPC: 0.355332 (Simulation time: 0 hr 16 min 24 sec) 
Heartbeat CPU 0 instructions: 440000000 cycles: 1026592964 heartbeat IPC: 0.338758 cumulative IPC: 0.354821 (Simulation time: 0 hr 16 min 48 sec) 
Heartbeat CPU 0 instructions: 450000002 cycles: 1055819635 heartbeat IPC: 0.342153 cumulative IPC: 0.354446 (Simulation time: 0 hr 17 min 12 sec) 
Heartbeat CPU 0 instructions: 460000000 cycles: 1083514200 heartbeat IPC: 0.361082 cumulative IPC: 0.354627 (Simulation time: 0 hr 17 min 36 sec) 
Heartbeat CPU 0 instructions: 470000000 cycles: 1111153449 heartbeat IPC: 0.361804 cumulative IPC: 0.354818 (Simulation time: 0 hr 18 min 0 sec) 
Heartbeat CPU 0 instructions: 480000000 cycles: 1139032867 heartbeat IPC: 0.358688 cumulative IPC: 0.354918 (Simulation time: 0 hr 18 min 23 sec) 
Heartbeat CPU 0 instructions: 490000000 cycles: 1166626808 heartbeat IPC: 0.362398 cumulative IPC: 0.355106 (Simulation time: 0 hr 18 min 47 sec) 
Heartbeat CPU 0 instructions: 500000000 cycles: 1194921432 heartbeat IPC: 0.353424 cumulative IPC: 0.355064 (Simulation time: 0 hr 19 min 11 sec) 
Heartbeat CPU 0 instructions: 510000000 cycles: 1229345632 heartbeat IPC: 0.290493 cumulative IPC: 0.353149 (Simulation time: 0 hr 19 min 38 sec) 
Heartbeat CPU 0 instructions: 520000000 cycles: 1257317263 heartbeat IPC: 0.357505 cumulative IPC: 0.353252 (Simulation time: 0 hr 20 min 3 sec) 
Heartbeat CPU 0 instructions: 530000001 cycles: 1286592873 heartbeat IPC: 0.341581 cumulative IPC: 0.352971 (Simulation time: 0 hr 20 min 27 sec) 
Heartbeat CPU 0 instructions: 540000000 cycles: 1314614848 heartbeat IPC: 0.356863 cumulative IPC: 0.353059 (Simulation time: 0 hr 20 min 52 sec) 
Heartbeat CPU 0 instructions: 550000001 cycles: 1343797872 heartbeat IPC: 0.342665 cumulative IPC: 0.352821 (Simulation time: 0 hr 21 min 18 sec) 
Heartbeat CPU 0 instructions: 560000000 cycles: 1369175721 heartbeat IPC: 0.394044 cumulative IPC: 0.353625 (Simulation time: 0 hr 21 min 42 sec) 
Heartbeat CPU 0 instructions: 570000000 cycles: 1398671857 heartbeat IPC: 0.339027 cumulative IPC: 0.353302 (Simulation time: 0 hr 22 min 8 sec) 
Heartbeat CPU 0 instructions: 580000000 cycles: 1426635795 heartbeat IPC: 0.357603 cumulative IPC: 0.35339 (Simulation time: 0 hr 22 min 32 sec) 
Heartbeat CPU 0 instructions: 590000001 cycles: 1451379440 heartbeat IPC: 0.404144 cumulative IPC: 0.354298 (Simulation time: 0 hr 22 min 56 sec) 
Heartbeat CPU 0 instructions: 600000000 cycles: 1477458574 heartbeat IPC: 0.383448 cumulative IPC: 0.354838 (Simulation time: 0 hr 23 min 20 sec) 
Finished CPU 0 instructions: 500000000 cycles: 1409094456 cumulative IPC: 0.354838 (Simulation time: 0 hr 23 min 20 sec) 

CPU 0 Branch Prediction Accuracy: 86.4311% MPKI: 26.2662
Number of Branches: 96788573 Number of Mispredictions: 13133102
Number of LOAD Instructions: 164682285
Number of LOAD Instructions (ROI): 164682285
Number of STORE Instructions: 78194750
Number of STORE Instructions (ROI): 78194750
Total Destination Memory Operands: 83268534
Total Destination Memory Operands (ROI): 83268534
Total Source Memory Operands: 164712438
Total Source Memory Operands (ROI): 164712438
Number of DEPENDED LOADS: 7058636
Number of DEPENDED LOADS (ROI): 7058636
Number of SQ_ADDED: 83268522
Number of SQ_ADDED (ROI): 83268522
Number of LQ_ADDED: 236762816
Number of LQ_ADDED (ROI): 236762816
Number of Instructions read from trace: 600000066

ChampSim completed all CPUs

Region of Interest Statistics

CPU 0 cumulative IPC: 0.354838 instructions: 500000000 cycles: 1409094456
ITLB TOTAL     ACCESS:  100516670  HIT:  100312224  MISS:     204446
ITLB LOAD      ACCESS:  100516670  HIT:  100312224  MISS:     204446
ITLB RFO       ACCESS:          0  HIT:          0  MISS:          0
ITLB PREFETCH  ACCESS:          0  HIT:          0  MISS:          0
ITLB WRITEBACK ACCESS:          0  HIT:          0  MISS:          0
ITLB PREFETCH  REQUESTED:          0  ISSUED:          0  USEFUL:          0  USELESS:          0
ITLB TOTAL MSHR MERGED:     172424
ITLB LOAD MSHR MERGED:     172424
ITLB RFO MSHR MERGED:          0
ITLB PREFETCH MSHR MERGED:          0
ITLB WRITEBACK MSHR MERGED:          0
ITLB TOTAL ACCESSES:  100689094 HITS:  100312224 MISSES:     376870
ITLB LOAD ACCESSES:  100689094 HITS:  100312224 MISSES:     376870
ITLB RFO ACCESSES:          0 HITS:          0 MISSES:          0
ITLB PREFETCH ACCESSES:          0 HITS:          0 MISSES:          0
ITLB WRITEBACK ACCESSES:          0 HITS:          0 MISSES:          0
ITLB RQ ACCESS:  500000057
ITLB RQ TO_CACHE:  100689094
ITLB RQ MERGED:  399310963
ITLB RQ FORWARD:          0
ITLB WQ ACCESS:          0
ITLB WQ TO_CACHE:          0
ITLB WQ MERGED:          0
ITLB WQ FORWARD:          0
DTLB TOTAL     ACCESS:  165337323  HIT:  164702971  MISS:     634352
DTLB LOAD      ACCESS:  106292938  HIT:  105723010  MISS:     569928
DTLB RFO       ACCESS:   59044385  HIT:   58979961  MISS:      64424
DTLB PREFETCH  ACCESS:          0  HIT:          0  MISS:          0
DTLB WRITEBACK ACCESS:          0  HIT:          0  MISS:          0
DTLB PREFETCH  REQUESTED:          0  ISSUED:          0  USEFUL:          0  USELESS:          0
DTLB TOTAL MSHR MERGED:      99936
DTLB LOAD MSHR MERGED:      59441
DTLB RFO MSHR MERGED:      40495
DTLB PREFETCH MSHR MERGED:          0
DTLB WRITEBACK MSHR MERGED:          0
DTLB TOTAL ACCESSES:  165437259 HITS:  164702971 MISSES:     734288
DTLB LOAD ACCESSES:  106352379 HITS:  105723010 MISSES:     629369
DTLB RFO ACCESSES:   59084880 HITS:   58979961 MISSES:     104919
DTLB PREFETCH ACCESSES:          0 HITS:          0 MISSES:          0
DTLB WRITEBACK ACCESSES:          0 HITS:          0 MISSES:          0
DTLB RQ ACCESS:  200312247
DTLB RQ TO_CACHE:  165437259
DTLB RQ MERGED:   34874988
DTLB RQ FORWARD:          0
DTLB WQ ACCESS:          0
DTLB WQ TO_CACHE:          0
DTLB WQ MERGED:          0
DTLB WQ FORWARD:          0
L1D TOTAL     ACCESS:  281824363  HIT:  273915043  MISS:    7909320
L1D LOAD      ACCESS:  110416895  HIT:  107138551  MISS:    3278344
L1D RFO       ACCESS:   67112874  HIT:   66222025  MISS:     890849
L1D PREFETCH  ACCESS:  104294594  HIT:  100554467  MISS:    3740127
L1D WRITEBACK ACCESS:          0  HIT:          0  MISS:          0
L1D PREFETCH  REQUESTED:  110818061  ISSUED:  109118768  USEFUL:    1660868  USELESS:    2079223
L1D TOTAL MSHR MERGED:    2881643
L1D LOAD MSHR MERGED:     499002
L1D RFO MSHR MERGED:    1873319
L1D PREFETCH MSHR MERGED:     509322
L1D WRITEBACK MSHR MERGED:          0
L1D TOTAL ACCESSES:  284733484 HITS:  273942521 MISSES:   10790963
L1D LOAD ACCESSES:  110819526 HITS:  107140016 MISSES:    3679510
L1D RFO ACCESSES:   68974137 HITS:   66222025 MISSES:    2752112
L1D PREFETCH ACCESSES:  104939821 HITS:  100580480 MISSES:    4359341
L1D WRITEBACK ACCESSES:          0 HITS:          0 MISSES:          0
L1D RQ ACCESS:  130759644
L1D RQ TO_CACHE:  110818064
L1D RQ MERGED:   19940115
L1D RQ FORWARD:          0
L1D WQ ACCESS:   69552603
L1D WQ TO_CACHE:   68974138
L1D WQ MERGED:     578465
L1D WQ FORWARD:      27478
L1I TOTAL     ACCESS:  126564076  HIT:  122325523  MISS:    4238553
L1I LOAD      ACCESS:  126564076  HIT:  122325523  MISS:    4238553
L1I RFO       ACCESS:          0  HIT:          0  MISS:          0
L1I PREFETCH  ACCESS:          0  HIT:          0  MISS:          0
L1I WRITEBACK ACCESS:          0  HIT:          0  MISS:          0
L1I PREFETCH  REQUESTED:          0  ISSUED:          0  USEFUL:          0  USELESS:          0
L1I TOTAL MSHR MERGED:    1834621
L1I LOAD MSHR MERGED:    1834621
L1I RFO MSHR MERGED:          0
L1I PREFETCH MSHR MERGED:          0
L1I WRITEBACK MSHR MERGED:          0
L1I TOTAL ACCESSES:  128398700 HITS:  122325523 MISSES:    6073177
L1I LOAD ACCESSES:  128398700 HITS:  122325523 MISSES:    6073177
L1I RFO ACCESSES:          0 HITS:          0 MISSES:          0
L1I PREFETCH ACCESSES:          0 HITS:          0 MISSES:          0
L1I WRITEBACK ACCESSES:          0 HITS:          0 MISSES:          0
L1I RQ ACCESS:  500000057
L1I RQ TO_CACHE:  128398700
L1I RQ MERGED:  371601357
L1I RQ FORWARD:          0
L1I WQ ACCESS:          0
L1I WQ TO_CACHE:          0
L1I WQ MERGED:          0
L1I WQ FORWARD:          0
L2C TOTAL     ACCESS:   14904878  HIT:   11158394  MISS:    3746484
L2C LOAD      ACCESS:    7418852  HIT:    5098771  MISS:    2320081
L2C RFO       ACCESS:     878697  HIT:     409902  MISS:     468795
L2C PREFETCH  ACCESS:    4568087  HIT:    3627731  MISS:     940356
L2C WRITEBACK ACCESS:    2039242  HIT:    2021990  MISS:      17252
L2C PREFETCH  REQUESTED:     842793  ISSUED:     842793  USEFUL:     203296  USELESS:     736766
L2C TOTAL MSHR MERGED:       7432
L2C LOAD MSHR MERGED:        890
L2C RFO MSHR MERGED:          0
L2C PREFETCH MSHR MERGED:       6542
L2C WRITEBACK MSHR MERGED:          0
L2C TOTAL ACCESSES:   14913175 HITS:   11158842 MISSES:    3754333
L2C LOAD ACCESSES:    7419061 HITS:    5098980 MISSES:    2320081
L2C RFO ACCESSES:     878793 HITS:     409998 MISSES:     468795
L2C PREFETCH ACCESSES:    4576079 HITS:    3627874 MISSES:     948205
L2C WRITEBACK ACCESSES:    2039242 HITS:    2021990 MISSES:      17252
L2C RQ ACCESS:    8297857
L2C RQ TO_CACHE:    8297552
L2C RQ MERGED:          0
L2C RQ FORWARD:          0
L2C WQ ACCESS:    2039242
L2C WQ TO_CACHE:    2039242
L2C WQ MERGED:          0
L2C WQ FORWARD:        448
LLC TOTAL     ACCESS:    4609812  HIT:    3946088  MISS:     663724
LLC LOAD      ACCESS:    2319176  HIT:    2080530  MISS:     238646
LLC RFO       ACCESS:     468785  HIT:     392939  MISS:      75846
LLC PREFETCH  ACCESS:     941564  HIT:     651726  MISS:     289838
LLC WRITEBACK ACCESS:     880287  HIT:     820893  MISS:      59394
LLC PREFETCH  REQUESTED:          0  ISSUED:          0  USEFUL:      15979  USELESS:     274280
LLC TOTAL MSHR MERGED:         83
LLC LOAD MSHR MERGED:         25
LLC RFO MSHR MERGED:          0
LLC PREFETCH MSHR MERGED:         58
LLC WRITEBACK MSHR MERGED:          0
LLC TOTAL ACCESSES:    4609930 HITS:    3946123 MISSES:     663807
LLC LOAD ACCESSES:    2319191 HITS:    2080545 MISSES:     238646
LLC RFO ACCESSES:     468795 HITS:     392949 MISSES:      75846
LLC PREFETCH ACCESSES:     941657 HITS:     651736 MISSES:     289921
LLC WRITEBACK ACCESSES:     880287 HITS:     820893 MISSES:      59394
LLC 0 RQ ACCESS:    2787986
LLC 0 RQ TO_CACHE:    2787961
LLC 0 RQ MERGED:          0
LLC 0 RQ FORWARD:          0
LLC WQ ACCESS:     880287
LLC WQ TO_CACHE:     880287
LLC WQ MERGED:          0
LLC WQ FORWARD:         35
Major fault: 0 Minor fault: 12862
CPU 0 L1D next line prefetcher final stats
CPU 0 L2C PC-based stride prefetcher final stats
All Misses: 790734
All Hits: 4636084
SD Algo Stats - Switches: 0 SRR-Repls: 280935 BRR-Repls: 0

DRAM Statistics
 CHANNEL 0
 RQ ROW_BUFFER_HIT:     123813  ROW_BUFFER_MISS:     479082
 DBUS_CONGESTED:     353691
 WQ ROW_BUFFER_HIT:      14316  ROW_BUFFER_MISS:     179332  FULL:          0

 AVG_CONGESTED_CYCLE: 13
LOADS RETIRED: 136549171
INSTR RETIRED: 500000000
