
*** ChampSim Multicore Out-of-Order Simulator ***

Warmup Instructions: 100000000
Simulation Instructions: 500000000
Number of CPUs: 1
LLC sets: 2048
LLC ways: 16
Clean RRIP Policies: 1013230110132301 Dirty RRIP Policies: 2013031120130311 PSEL Width: 10 Track Set: 4294967295 PSEL Mask: 1 Demote Mask: 4340011043400110DS Algo: 0Window size: 0
Off-chip DRAM Size: 4096 MB Channels: 1 Width: 64-bit Data Rate: 1600 MT/s

CPU 0 runs /mnt/beegfs/iconst01/spec2017/Xz.trace.gz
NOT SORTED
TRACE STRING: /mnt/beegfs/iconst01/spec2017/Xz.trace.gz
SORTED
TRACE STRING: /mnt/beegfs/iconst01/spec2017/Xz.trace.gz
INITIAL
TRACE STRING: /mnt/beegfs/iconst01/spec2017/Xz.trace.gz

champsim_seed used: 210

CPU 0 L1D next line prefetcher
CPU 0 L2C IP-based stride prefetcher
Initialize DRRIP state
Assign rand_sets[0]: 454  LLC: 2048
rand_sets[0]: 454
Assign rand_sets[1]: 1662  LLC: 2048
rand_sets[1]: 1662
Assign rand_sets[2]: 1921  LLC: 2048
rand_sets[2]: 1921
Assign rand_sets[3]: 1131  LLC: 2048
rand_sets[3]: 1131
Assign rand_sets[4]: 331  LLC: 2048
rand_sets[4]: 331
Assign rand_sets[5]: 1531  LLC: 2048
rand_sets[5]: 1531
Assign rand_sets[6]: 482  LLC: 2048
rand_sets[6]: 482
Assign rand_sets[7]: 1275  LLC: 2048
rand_sets[7]: 1275
Assign rand_sets[8]: 1876  LLC: 2048
rand_sets[8]: 1876
Assign rand_sets[9]: 2038  LLC: 2048
rand_sets[9]: 2038
Assign rand_sets[10]: 701  LLC: 2048
rand_sets[10]: 701
Assign rand_sets[11]: 479  LLC: 2048
rand_sets[11]: 479
Assign rand_sets[12]: 892  LLC: 2048
rand_sets[12]: 892
Assign rand_sets[13]: 1820  LLC: 2048
rand_sets[13]: 1820
Assign rand_sets[14]: 1505  LLC: 2048
rand_sets[14]: 1505
Assign rand_sets[15]: 1159  LLC: 2048
rand_sets[15]: 1159
Assign rand_sets[16]: 513  LLC: 2048
rand_sets[16]: 513
Assign rand_sets[17]: 703  LLC: 2048
rand_sets[17]: 703
Assign rand_sets[18]: 561  LLC: 2048
rand_sets[18]: 561
Assign rand_sets[19]: 990  LLC: 2048
rand_sets[19]: 990
Assign rand_sets[20]: 342  LLC: 2048
rand_sets[20]: 342
Assign rand_sets[21]: 882  LLC: 2048
rand_sets[21]: 882
Assign rand_sets[22]: 15  LLC: 2048
rand_sets[22]: 15
Assign rand_sets[23]: 71  LLC: 2048
rand_sets[23]: 71
Assign rand_sets[24]: 1127  LLC: 2048
rand_sets[24]: 1127
Assign rand_sets[25]: 1382  LLC: 2048
rand_sets[25]: 1382
Assign rand_sets[26]: 647  LLC: 2048
rand_sets[26]: 647
Assign rand_sets[27]: 857  LLC: 2048
rand_sets[27]: 857
Assign rand_sets[28]: 1450  LLC: 2048
rand_sets[28]: 1450
Assign rand_sets[29]: 1160  LLC: 2048
rand_sets[29]: 1160
Assign rand_sets[30]: 1852  LLC: 2048
rand_sets[30]: 1852
Assign rand_sets[31]: 1881  LLC: 2048
rand_sets[31]: 1881
Assign rand_sets[32]: 1770  LLC: 2048
rand_sets[32]: 1770
Assign rand_sets[33]: 1622  LLC: 2048
rand_sets[33]: 1622
Assign rand_sets[34]: 275  LLC: 2048
rand_sets[34]: 275
Assign rand_sets[35]: 635  LLC: 2048
rand_sets[35]: 635
Assign rand_sets[36]: 466  LLC: 2048
rand_sets[36]: 466
Assign rand_sets[37]: 1413  LLC: 2048
rand_sets[37]: 1413
Assign rand_sets[38]: 417  LLC: 2048
rand_sets[38]: 417
Assign rand_sets[39]: 472  LLC: 2048
rand_sets[39]: 472
Assign rand_sets[40]: 1340  LLC: 2048
rand_sets[40]: 1340
Assign rand_sets[41]: 852  LLC: 2048
rand_sets[41]: 852
Assign rand_sets[42]: 1365  LLC: 2048
rand_sets[42]: 1365
Assign rand_sets[43]: 47  LLC: 2048
rand_sets[43]: 47
Assign rand_sets[44]: 823  LLC: 2048
rand_sets[44]: 823
Assign rand_sets[45]: 686  LLC: 2048
rand_sets[45]: 686
Assign rand_sets[46]: 1637  LLC: 2048
rand_sets[46]: 1637
Assign rand_sets[47]: 1115  LLC: 2048
rand_sets[47]: 1115
Assign rand_sets[48]: 986  LLC: 2048
rand_sets[48]: 986
Assign rand_sets[49]: 258  LLC: 2048
rand_sets[49]: 258
Assign rand_sets[50]: 633  LLC: 2048
rand_sets[50]: 633
Assign rand_sets[51]: 920  LLC: 2048
rand_sets[51]: 920
Assign rand_sets[52]: 204  LLC: 2048
rand_sets[52]: 204
Assign rand_sets[53]: 227  LLC: 2048
rand_sets[53]: 227
Assign rand_sets[54]: 1818  LLC: 2048
rand_sets[54]: 1818
Assign rand_sets[55]: 886  LLC: 2048
rand_sets[55]: 886
Assign rand_sets[56]: 1422  LLC: 2048
rand_sets[56]: 1422
Assign rand_sets[57]: 607  LLC: 2048
rand_sets[57]: 607
Assign rand_sets[58]: 217  LLC: 2048
rand_sets[58]: 217
Assign rand_sets[59]: 1945  LLC: 2048
rand_sets[59]: 1945
Assign rand_sets[60]: 143  LLC: 2048
rand_sets[60]: 143
Assign rand_sets[61]: 1311  LLC: 2048
rand_sets[61]: 1311
Assign rand_sets[62]: 319  LLC: 2048
rand_sets[62]: 319
Assign rand_sets[63]: 1846  LLC: 2048
rand_sets[63]: 1846
 CLEAN-RRIP-POLICY-1: 1-0-1-3-2-3-0-1- CLEAN-RRIP-POLICY-2: 1-0-1-3-2-3-0-1-
 DIRTY-RRIP-POLICY-1: 2-0-1-3-0-3-1-1- DIRTY-RRIP-POLICY-2: 2-0-1-3-0-3-1-1-
 PSEL width: 10
Heartbeat CPU 0 instructions: 10000000 cycles: 4305270 heartbeat IPC: 2.32273 cumulative IPC: 2.32273 (Simulation time: 0 hr 0 min 12 sec) 
Heartbeat CPU 0 instructions: 20000000 cycles: 8617102 heartbeat IPC: 2.3192 cumulative IPC: 2.32097 (Simulation time: 0 hr 0 min 24 sec) 
Heartbeat CPU 0 instructions: 30000003 cycles: 13160983 heartbeat IPC: 2.20076 cumulative IPC: 2.27947 (Simulation time: 0 hr 0 min 36 sec) 
Heartbeat CPU 0 instructions: 40000000 cycles: 17515459 heartbeat IPC: 2.29649 cumulative IPC: 2.2837 (Simulation time: 0 hr 0 min 48 sec) 
Heartbeat CPU 0 instructions: 50000001 cycles: 21878301 heartbeat IPC: 2.29208 cumulative IPC: 2.28537 (Simulation time: 0 hr 1 min 0 sec) 
Heartbeat CPU 0 instructions: 60000000 cycles: 26178529 heartbeat IPC: 2.32546 cumulative IPC: 2.29195 (Simulation time: 0 hr 1 min 11 sec) 
Heartbeat CPU 0 instructions: 70000001 cycles: 30244421 heartbeat IPC: 2.45949 cumulative IPC: 2.31448 (Simulation time: 0 hr 1 min 22 sec) 
Heartbeat CPU 0 instructions: 80000000 cycles: 34523223 heartbeat IPC: 2.3371 cumulative IPC: 2.31728 (Simulation time: 0 hr 1 min 34 sec) 
Heartbeat CPU 0 instructions: 90000001 cycles: 38739834 heartbeat IPC: 2.37157 cumulative IPC: 2.32319 (Simulation time: 0 hr 1 min 45 sec) 
Heartbeat CPU 0 instructions: 100000000 cycles: 42980262 heartbeat IPC: 2.35825 cumulative IPC: 2.32665 (Simulation time: 0 hr 1 min 56 sec) 

Warmup complete CPU 0 instructions: 100000001 cycles: 42980263 (Simulation time: 0 hr 1 min 56 sec) 

Heartbeat CPU 0 instructions: 110000000 cycles: 53134464 heartbeat IPC: 0.984814 cumulative IPC: 0.984814 (Simulation time: 0 hr 2 min 13 sec) 
Heartbeat CPU 0 instructions: 120000000 cycles: 63798383 heartbeat IPC: 0.937742 cumulative IPC: 0.960701 (Simulation time: 0 hr 2 min 31 sec) 
Heartbeat CPU 0 instructions: 130000001 cycles: 74427136 heartbeat IPC: 0.940844 cumulative IPC: 0.95399 (Simulation time: 0 hr 2 min 48 sec) 
Heartbeat CPU 0 instructions: 140000000 cycles: 84137338 heartbeat IPC: 1.02984 cumulative IPC: 0.971886 (Simulation time: 0 hr 3 min 5 sec) 
Heartbeat CPU 0 instructions: 150000001 cycles: 94470504 heartbeat IPC: 0.967758 cumulative IPC: 0.971058 (Simulation time: 0 hr 3 min 22 sec) 
Heartbeat CPU 0 instructions: 160000000 cycles: 104552256 heartbeat IPC: 0.991891 cumulative IPC: 0.974469 (Simulation time: 0 hr 3 min 39 sec) 
Heartbeat CPU 0 instructions: 170000000 cycles: 114239741 heartbeat IPC: 1.03226 cumulative IPC: 0.982325 (Simulation time: 0 hr 3 min 56 sec) 
Heartbeat CPU 0 instructions: 180000000 cycles: 124824523 heartbeat IPC: 0.944753 cumulative IPC: 0.977466 (Simulation time: 0 hr 4 min 14 sec) 
Heartbeat CPU 0 instructions: 190000001 cycles: 135113993 heartbeat IPC: 0.971867 cumulative IPC: 0.976841 (Simulation time: 0 hr 4 min 31 sec) 
Heartbeat CPU 0 instructions: 200000000 cycles: 145707457 heartbeat IPC: 0.943978 cumulative IPC: 0.973452 (Simulation time: 0 hr 4 min 48 sec) 
Heartbeat CPU 0 instructions: 210000002 cycles: 158206688 heartbeat IPC: 0.800049 cumulative IPC: 0.954642 (Simulation time: 0 hr 5 min 6 sec) 
Heartbeat CPU 0 instructions: 220000000 cycles: 170798686 heartbeat IPC: 0.794155 cumulative IPC: 0.938832 (Simulation time: 0 hr 5 min 25 sec) 
Heartbeat CPU 0 instructions: 230000000 cycles: 183016621 heartbeat IPC: 0.818469 cumulative IPC: 0.92833 (Simulation time: 0 hr 5 min 44 sec) 
Heartbeat CPU 0 instructions: 240000000 cycles: 195203614 heartbeat IPC: 0.820547 cumulative IPC: 0.919701 (Simulation time: 0 hr 6 min 2 sec) 
Heartbeat CPU 0 instructions: 250000000 cycles: 207225591 heartbeat IPC: 0.83181 cumulative IPC: 0.913268 (Simulation time: 0 hr 6 min 20 sec) 
Heartbeat CPU 0 instructions: 260000000 cycles: 218824670 heartbeat IPC: 0.862137 cumulative IPC: 0.909895 (Simulation time: 0 hr 6 min 38 sec) 
Heartbeat CPU 0 instructions: 270000003 cycles: 230747442 heartbeat IPC: 0.838731 cumulative IPC: 0.905377 (Simulation time: 0 hr 6 min 57 sec) 
Heartbeat CPU 0 instructions: 280000000 cycles: 242327727 heartbeat IPC: 0.863536 cumulative IPC: 0.902946 (Simulation time: 0 hr 7 min 15 sec) 
Heartbeat CPU 0 instructions: 290000002 cycles: 253919614 heartbeat IPC: 0.862673 cumulative IPC: 0.900733 (Simulation time: 0 hr 7 min 33 sec) 
Heartbeat CPU 0 instructions: 300000000 cycles: 266427768 heartbeat IPC: 0.799478 cumulative IPC: 0.895065 (Simulation time: 0 hr 7 min 51 sec) 
Heartbeat CPU 0 instructions: 310000000 cycles: 278669252 heartbeat IPC: 0.816894 cumulative IPC: 0.891005 (Simulation time: 0 hr 8 min 10 sec) 
Heartbeat CPU 0 instructions: 320000000 cycles: 291395107 heartbeat IPC: 0.785802 cumulative IPC: 0.885615 (Simulation time: 0 hr 8 min 28 sec) 
Heartbeat CPU 0 instructions: 330000003 cycles: 303426817 heartbeat IPC: 0.831137 cumulative IPC: 0.883099 (Simulation time: 0 hr 8 min 46 sec) 
Heartbeat CPU 0 instructions: 340000000 cycles: 315615996 heartbeat IPC: 0.8204 cumulative IPC: 0.880295 (Simulation time: 0 hr 9 min 5 sec) 
Heartbeat CPU 0 instructions: 350000001 cycles: 326648511 heartbeat IPC: 0.906412 cumulative IPC: 0.881311 (Simulation time: 0 hr 9 min 22 sec) 
Heartbeat CPU 0 instructions: 360000000 cycles: 338494297 heartbeat IPC: 0.844182 cumulative IPC: 0.879823 (Simulation time: 0 hr 9 min 41 sec) 
Heartbeat CPU 0 instructions: 370000001 cycles: 349949682 heartbeat IPC: 0.872952 cumulative IPC: 0.879566 (Simulation time: 0 hr 9 min 58 sec) 
Heartbeat CPU 0 instructions: 380000000 cycles: 360985946 heartbeat IPC: 0.906104 cumulative IPC: 0.880487 (Simulation time: 0 hr 10 min 16 sec) 
Heartbeat CPU 0 instructions: 390000003 cycles: 371641020 heartbeat IPC: 0.93852 cumulative IPC: 0.882369 (Simulation time: 0 hr 10 min 34 sec) 
Heartbeat CPU 0 instructions: 400000000 cycles: 381888537 heartbeat IPC: 0.975846 cumulative IPC: 0.885195 (Simulation time: 0 hr 10 min 51 sec) 
Heartbeat CPU 0 instructions: 410000000 cycles: 392449197 heartbeat IPC: 0.946911 cumulative IPC: 0.88706 (Simulation time: 0 hr 11 min 9 sec) 
Heartbeat CPU 0 instructions: 420000000 cycles: 401847670 heartbeat IPC: 1.064 cumulative IPC: 0.891694 (Simulation time: 0 hr 11 min 26 sec) 
Heartbeat CPU 0 instructions: 430000002 cycles: 410945844 heartbeat IPC: 1.09912 cumulative IPC: 0.896823 (Simulation time: 0 hr 11 min 43 sec) 
Heartbeat CPU 0 instructions: 440000000 cycles: 421240059 heartbeat IPC: 0.971419 cumulative IPC: 0.898853 (Simulation time: 0 hr 12 min 1 sec) 
Heartbeat CPU 0 instructions: 450000002 cycles: 432356018 heartbeat IPC: 0.899608 cumulative IPC: 0.898875 (Simulation time: 0 hr 12 min 18 sec) 
Heartbeat CPU 0 instructions: 460000000 cycles: 443931364 heartbeat IPC: 0.863905 cumulative IPC: 0.897865 (Simulation time: 0 hr 12 min 36 sec) 
Heartbeat CPU 0 instructions: 470000003 cycles: 454152169 heartbeat IPC: 0.978397 cumulative IPC: 0.899867 (Simulation time: 0 hr 12 min 53 sec) 
Heartbeat CPU 0 instructions: 480000000 cycles: 464716143 heartbeat IPC: 0.946613 cumulative IPC: 0.901038 (Simulation time: 0 hr 13 min 10 sec) 
Heartbeat CPU 0 instructions: 490000000 cycles: 474699029 heartbeat IPC: 1.00171 cumulative IPC: 0.903366 (Simulation time: 0 hr 13 min 27 sec) 
Heartbeat CPU 0 instructions: 500000000 cycles: 486529401 heartbeat IPC: 0.845282 cumulative IPC: 0.901817 (Simulation time: 0 hr 13 min 45 sec) 
Heartbeat CPU 0 instructions: 510000002 cycles: 498970256 heartbeat IPC: 0.803803 cumulative IPC: 0.899143 (Simulation time: 0 hr 14 min 3 sec) 
Heartbeat CPU 0 instructions: 520000000 cycles: 510845872 heartbeat IPC: 0.842061 cumulative IPC: 0.897694 (Simulation time: 0 hr 14 min 21 sec) 
Heartbeat CPU 0 instructions: 530000001 cycles: 522716497 heartbeat IPC: 0.842416 cumulative IPC: 0.896326 (Simulation time: 0 hr 14 min 39 sec) 
Heartbeat CPU 0 instructions: 540000000 cycles: 534355332 heartbeat IPC: 0.859192 cumulative IPC: 0.895446 (Simulation time: 0 hr 14 min 57 sec) 
Heartbeat CPU 0 instructions: 550000001 cycles: 545779915 heartbeat IPC: 0.875306 cumulative IPC: 0.894989 (Simulation time: 0 hr 15 min 15 sec) 
Heartbeat CPU 0 instructions: 560000000 cycles: 557377289 heartbeat IPC: 0.862264 cumulative IPC: 0.894251 (Simulation time: 0 hr 15 min 32 sec) 
Heartbeat CPU 0 instructions: 570000000 cycles: 568809876 heartbeat IPC: 0.874693 cumulative IPC: 0.893826 (Simulation time: 0 hr 15 min 50 sec) 
Heartbeat CPU 0 instructions: 580000000 cycles: 579589794 heartbeat IPC: 0.927651 cumulative IPC: 0.894505 (Simulation time: 0 hr 16 min 7 sec) 
Heartbeat CPU 0 instructions: 590000003 cycles: 591029903 heartbeat IPC: 0.874118 cumulative IPC: 0.89408 (Simulation time: 0 hr 16 min 24 sec) 
Heartbeat CPU 0 instructions: 600000000 cycles: 601638897 heartbeat IPC: 0.942596 cumulative IPC: 0.895001 (Simulation time: 0 hr 16 min 41 sec) 
Finished CPU 0 instructions: 500000001 cycles: 558658642 cumulative IPC: 0.895001 (Simulation time: 0 hr 16 min 41 sec) 

CPU 0 Branch Prediction Accuracy: 93.0095% MPKI: 10.0046
Number of Branches: 71558147 Number of Mispredictions: 5002285
Number of LOAD Instructions: 145708893
Number of LOAD Instructions (ROI): 145708893
Number of STORE Instructions: 40463820
Number of STORE Instructions (ROI): 40463820
Total Destination Memory Operands: 45240498
Total Destination Memory Operands (ROI): 45240498
Total Source Memory Operands: 145708893
Total Source Memory Operands (ROI): 145708893
Number of DEPENDED LOADS: 10669950
Number of DEPENDED LOADS (ROI): 10669950
Number of SQ_ADDED: 45240498
Number of SQ_ADDED (ROI): 45240498
Number of LQ_ADDED: 193319810
Number of LQ_ADDED (ROI): 193319810
Number of Instructions read from trace: 600000002

ChampSim completed all CPUs

Region of Interest Statistics

CPU 0 cumulative IPC: 0.895001 instructions: 500000001 cycles: 558658642
ITLB TOTAL     ACCESS:   77992392  HIT:   77992391  MISS:          1
ITLB LOAD      ACCESS:   77992392  HIT:   77992391  MISS:          1
ITLB RFO       ACCESS:          0  HIT:          0  MISS:          0
ITLB PREFETCH  ACCESS:          0  HIT:          0  MISS:          0
ITLB WRITEBACK ACCESS:          0  HIT:          0  MISS:          0
ITLB PREFETCH  REQUESTED:          0  ISSUED:          0  USEFUL:          0  USELESS:          0
ITLB TOTAL MSHR MERGED:          0
ITLB LOAD MSHR MERGED:          0
ITLB RFO MSHR MERGED:          0
ITLB PREFETCH MSHR MERGED:          0
ITLB WRITEBACK MSHR MERGED:          0
ITLB TOTAL ACCESSES:   77992392 HITS:   77992391 MISSES:          1
ITLB LOAD ACCESSES:   77992392 HITS:   77992391 MISSES:          1
ITLB RFO ACCESSES:          0 HITS:          0 MISSES:          0
ITLB PREFETCH ACCESSES:          0 HITS:          0 MISSES:          0
ITLB WRITEBACK ACCESSES:          0 HITS:          0 MISSES:          0
ITLB RQ ACCESS:  499999995
ITLB RQ TO_CACHE:   77992392
ITLB RQ MERGED:  422007603
ITLB RQ FORWARD:          0
ITLB WQ ACCESS:          0
ITLB WQ TO_CACHE:          0
ITLB WQ MERGED:          0
ITLB WQ FORWARD:          0
DTLB TOTAL     ACCESS:   98672105  HIT:   97790769  MISS:     881336
DTLB LOAD      ACCESS:   70892459  HIT:   70030926  MISS:     861533
DTLB RFO       ACCESS:   27779646  HIT:   27759843  MISS:      19803
DTLB PREFETCH  ACCESS:          0  HIT:          0  MISS:          0
DTLB WRITEBACK ACCESS:          0  HIT:          0  MISS:          0
DTLB PREFETCH  REQUESTED:          0  ISSUED:          0  USEFUL:          0  USELESS:          0
DTLB TOTAL MSHR MERGED:      87344
DTLB LOAD MSHR MERGED:      65606
DTLB RFO MSHR MERGED:      21738
DTLB PREFETCH MSHR MERGED:          0
DTLB WRITEBACK MSHR MERGED:          0
DTLB TOTAL ACCESSES:   98759449 HITS:   97790769 MISSES:     968680
DTLB LOAD ACCESSES:   70958065 HITS:   70030926 MISSES:     927139
DTLB RFO ACCESSES:   27801384 HITS:   27759843 MISSES:      41541
DTLB PREFETCH ACCESSES:          0 HITS:          0 MISSES:          0
DTLB WRITEBACK ACCESSES:          0 HITS:          0 MISSES:          0
DTLB RQ ACCESS:  150275104
DTLB RQ TO_CACHE:   98759449
DTLB RQ MERGED:   51515655
DTLB RQ FORWARD:          0
DTLB WQ ACCESS:          0
DTLB WQ TO_CACHE:          0
DTLB WQ MERGED:          0
DTLB WQ FORWARD:          0
L1D TOTAL     ACCESS:  173333627  HIT:  169165002  MISS:    4168625
L1D LOAD      ACCESS:   75284035  HIT:   73402697  MISS:    1881338
L1D RFO       ACCESS:   36778278  HIT:   36571677  MISS:     206601
L1D PREFETCH  ACCESS:   61271314  HIT:   59190628  MISS:    2080686
L1D WRITEBACK ACCESS:          0  HIT:          0  MISS:          0
L1D PREFETCH  REQUESTED:   75387093  ISSUED:   74822888  USEFUL:     415125  USELESS:    1665550
L1D TOTAL MSHR MERGED:     373117
L1D LOAD MSHR MERGED:     111847
L1D RFO MSHR MERGED:     133081
L1D PREFETCH MSHR MERGED:     128189
L1D WRITEBACK MSHR MERGED:          0
L1D TOTAL ACCESSES:  173858482 HITS:  169316740 MISSES:    4541742
L1D LOAD ACCESSES:   75390128 HITS:   73405732 MISSES:    1984396
L1D RFO ACCESSES:   36909969 HITS:   36571677 MISSES:     338292
L1D PREFETCH ACCESSES:   61558385 HITS:   59339331 MISSES:    2219054
L1D WRITEBACK ACCESSES:          0 HITS:          0 MISSES:          0
L1D RQ ACCESS:  112612701
L1D RQ TO_CACHE:   75387093
L1D RQ MERGED:   37222573
L1D RQ FORWARD:          0
L1D WQ ACCESS:   37662403
L1D WQ TO_CACHE:   36909969
L1D WQ MERGED:     752434
L1D WQ FORWARD:     151738
L1I TOTAL     ACCESS:  100700345  HIT:  100700320  MISS:         25
L1I LOAD      ACCESS:  100700345  HIT:  100700320  MISS:         25
L1I RFO       ACCESS:          0  HIT:          0  MISS:          0
L1I PREFETCH  ACCESS:          0  HIT:          0  MISS:          0
L1I WRITEBACK ACCESS:          0  HIT:          0  MISS:          0
L1I PREFETCH  REQUESTED:          0  ISSUED:          0  USEFUL:          0  USELESS:          0
L1I TOTAL MSHR MERGED:         10
L1I LOAD MSHR MERGED:         10
L1I RFO MSHR MERGED:          0
L1I PREFETCH MSHR MERGED:          0
L1I WRITEBACK MSHR MERGED:          0
L1I TOTAL ACCESSES:  100700355 HITS:  100700320 MISSES:         35
L1I LOAD ACCESSES:  100700355 HITS:  100700320 MISSES:         35
L1I RFO ACCESSES:          0 HITS:          0 MISSES:          0
L1I PREFETCH ACCESSES:          0 HITS:          0 MISSES:          0
L1I WRITEBACK ACCESSES:          0 HITS:          0 MISSES:          0
L1I RQ ACCESS:  499999995
L1I RQ TO_CACHE:  100700355
L1I RQ MERGED:  399299640
L1I RQ FORWARD:          0
L1I WQ ACCESS:          0
L1I WQ TO_CACHE:          0
L1I WQ MERGED:          0
L1I WQ FORWARD:          0
L2C TOTAL     ACCESS:    5852580  HIT:    4009401  MISS:    1843179
L2C LOAD      ACCESS:    1872447  HIT:    1061496  MISS:     810951
L2C RFO       ACCESS:     205203  HIT:     100565  MISS:     104638
L2C PREFETCH  ACCESS:    2169298  HIT:    1246128  MISS:     923170
L2C WRITEBACK ACCESS:    1605632  HIT:    1601212  MISS:       4420
L2C PREFETCH  REQUESTED:      91706  ISSUED:      91706  USEFUL:      86452  USELESS:     836741
L2C TOTAL MSHR MERGED:       1040
L2C LOAD MSHR MERGED:        261
L2C RFO MSHR MERGED:          0
L2C PREFETCH MSHR MERGED:        779
L2C WRITEBACK MSHR MERGED:          0
L2C TOTAL ACCESSES:    5853942 HITS:    4009573 MISSES:    1844369
L2C LOAD ACCESSES:    1872574 HITS:    1061623 MISSES:     810951
L2C RFO ACCESSES:     205211 HITS:     100573 MISSES:     104638
L2C PREFETCH ACCESSES:    2170525 HITS:    1246165 MISSES:     924360
L2C WRITEBACK ACCESSES:    1605632 HITS:    1601212 MISSES:       4420
L2C RQ ACCESS:    2077785
L2C RQ TO_CACHE:    2077650
L2C RQ MERGED:          0
L2C RQ FORWARD:          0
L2C WQ ACCESS:    1605632
L2C WQ TO_CACHE:    1605632
L2C WQ MERGED:          0
L2C WQ FORWARD:        172
LLC TOTAL     ACCESS:    2673555  HIT:    2148949  MISS:     524606
LLC LOAD      ACCESS:     810682  HIT:     626218  MISS:     184464
LLC RFO       ACCESS:     104638  HIT:      59426  MISS:      45212
LLC PREFETCH  ACCESS:     923562  HIT:     661982  MISS:     261580
LLC WRITEBACK ACCESS:     834673  HIT:     801323  MISS:      33350
LLC PREFETCH  REQUESTED:          0  ISSUED:          0  USEFUL:       9879  USELESS:     251688
LLC TOTAL MSHR MERGED:          7
LLC LOAD MSHR MERGED:          3
LLC RFO MSHR MERGED:          0
LLC PREFETCH MSHR MERGED:          4
LLC WRITEBACK MSHR MERGED:          0
LLC TOTAL ACCESSES:    2673572 HITS:    2148959 MISSES:     524613
LLC LOAD ACCESSES:     810690 HITS:     626226 MISSES:     184464
LLC RFO ACCESSES:     104638 HITS:      59426 MISSES:      45212
LLC PREFETCH ACCESSES:     923571 HITS:     661984 MISSES:     261587
LLC WRITEBACK ACCESSES:     834673 HITS:     801323 MISSES:      33350
LLC 0 RQ ACCESS:     915328
LLC 0 RQ TO_CACHE:     915320
LLC 0 RQ MERGED:          0
LLC 0 RQ FORWARD:          0
LLC WQ ACCESS:     834673
LLC WQ TO_CACHE:     834673
LLC WQ MERGED:          0
LLC WQ FORWARD:         10
Major fault: 0 Minor fault: 11278
CPU 0 L1D next line prefetcher final stats
CPU 0 L2C PC-based stride prefetcher final stats
All Misses: 640776
All Hits: 2413798
SD Algo Stats - Switches: 0 SRR-Repls: 218449 BRR-Repls: 0

DRAM Statistics
 CHANNEL 0
 RQ ROW_BUFFER_HIT:      29345  ROW_BUFFER_MISS:     461339
 DBUS_CONGESTED:     378539
 WQ ROW_BUFFER_HIT:      16568  ROW_BUFFER_MISS:     224547  FULL:          0

 AVG_CONGESTED_CYCLE: 13
LOADS RETIRED: 121769268
INSTR RETIRED: 500000000
