
*** ChampSim Multicore Out-of-Order Simulator ***

Warmup Instructions: 100000000
Simulation Instructions: 500000000
Number of CPUs: 1
LLC sets: 2048
LLC ways: 16
Clean RRIP Policies: 2213230222132302 Dirty RRIP Policies: 1203030212030302 PSEL Width: 10 Track Set: 4294967295 PSEL Mask: 1 Demote Mask: 1040100010401000DS Algo: 0Window size: 0
Off-chip DRAM Size: 4096 MB Channels: 1 Width: 64-bit Data Rate: 1600 MT/s

CPU 0 runs /mnt/beegfs/iconst01/spec2017/x264.trace.gz
NOT SORTED
TRACE STRING: /mnt/beegfs/iconst01/spec2017/x264.trace.gz
SORTED
TRACE STRING: /mnt/beegfs/iconst01/spec2017/x264.trace.gz
INITIAL
TRACE STRING: /mnt/beegfs/iconst01/spec2017/x264.trace.gz

champsim_seed used: 276

CPU 0 L1D next line prefetcher
CPU 0 L2C IP-based stride prefetcher
Initialize DRRIP state
Assign rand_sets[0]: 454  LLC: 2048
rand_sets[0]: 454
Assign rand_sets[1]: 1662  LLC: 2048
rand_sets[1]: 1662
Assign rand_sets[2]: 1921  LLC: 2048
rand_sets[2]: 1921
Assign rand_sets[3]: 1131  LLC: 2048
rand_sets[3]: 1131
Assign rand_sets[4]: 331  LLC: 2048
rand_sets[4]: 331
Assign rand_sets[5]: 1531  LLC: 2048
rand_sets[5]: 1531
Assign rand_sets[6]: 482  LLC: 2048
rand_sets[6]: 482
Assign rand_sets[7]: 1275  LLC: 2048
rand_sets[7]: 1275
Assign rand_sets[8]: 1876  LLC: 2048
rand_sets[8]: 1876
Assign rand_sets[9]: 2038  LLC: 2048
rand_sets[9]: 2038
Assign rand_sets[10]: 701  LLC: 2048
rand_sets[10]: 701
Assign rand_sets[11]: 479  LLC: 2048
rand_sets[11]: 479
Assign rand_sets[12]: 892  LLC: 2048
rand_sets[12]: 892
Assign rand_sets[13]: 1820  LLC: 2048
rand_sets[13]: 1820
Assign rand_sets[14]: 1505  LLC: 2048
rand_sets[14]: 1505
Assign rand_sets[15]: 1159  LLC: 2048
rand_sets[15]: 1159
Assign rand_sets[16]: 513  LLC: 2048
rand_sets[16]: 513
Assign rand_sets[17]: 703  LLC: 2048
rand_sets[17]: 703
Assign rand_sets[18]: 561  LLC: 2048
rand_sets[18]: 561
Assign rand_sets[19]: 990  LLC: 2048
rand_sets[19]: 990
Assign rand_sets[20]: 342  LLC: 2048
rand_sets[20]: 342
Assign rand_sets[21]: 882  LLC: 2048
rand_sets[21]: 882
Assign rand_sets[22]: 15  LLC: 2048
rand_sets[22]: 15
Assign rand_sets[23]: 71  LLC: 2048
rand_sets[23]: 71
Assign rand_sets[24]: 1127  LLC: 2048
rand_sets[24]: 1127
Assign rand_sets[25]: 1382  LLC: 2048
rand_sets[25]: 1382
Assign rand_sets[26]: 647  LLC: 2048
rand_sets[26]: 647
Assign rand_sets[27]: 857  LLC: 2048
rand_sets[27]: 857
Assign rand_sets[28]: 1450  LLC: 2048
rand_sets[28]: 1450
Assign rand_sets[29]: 1160  LLC: 2048
rand_sets[29]: 1160
Assign rand_sets[30]: 1852  LLC: 2048
rand_sets[30]: 1852
Assign rand_sets[31]: 1881  LLC: 2048
rand_sets[31]: 1881
Assign rand_sets[32]: 1770  LLC: 2048
rand_sets[32]: 1770
Assign rand_sets[33]: 1622  LLC: 2048
rand_sets[33]: 1622
Assign rand_sets[34]: 275  LLC: 2048
rand_sets[34]: 275
Assign rand_sets[35]: 635  LLC: 2048
rand_sets[35]: 635
Assign rand_sets[36]: 466  LLC: 2048
rand_sets[36]: 466
Assign rand_sets[37]: 1413  LLC: 2048
rand_sets[37]: 1413
Assign rand_sets[38]: 417  LLC: 2048
rand_sets[38]: 417
Assign rand_sets[39]: 472  LLC: 2048
rand_sets[39]: 472
Assign rand_sets[40]: 1340  LLC: 2048
rand_sets[40]: 1340
Assign rand_sets[41]: 852  LLC: 2048
rand_sets[41]: 852
Assign rand_sets[42]: 1365  LLC: 2048
rand_sets[42]: 1365
Assign rand_sets[43]: 47  LLC: 2048
rand_sets[43]: 47
Assign rand_sets[44]: 823  LLC: 2048
rand_sets[44]: 823
Assign rand_sets[45]: 686  LLC: 2048
rand_sets[45]: 686
Assign rand_sets[46]: 1637  LLC: 2048
rand_sets[46]: 1637
Assign rand_sets[47]: 1115  LLC: 2048
rand_sets[47]: 1115
Assign rand_sets[48]: 986  LLC: 2048
rand_sets[48]: 986
Assign rand_sets[49]: 258  LLC: 2048
rand_sets[49]: 258
Assign rand_sets[50]: 633  LLC: 2048
rand_sets[50]: 633
Assign rand_sets[51]: 920  LLC: 2048
rand_sets[51]: 920
Assign rand_sets[52]: 204  LLC: 2048
rand_sets[52]: 204
Assign rand_sets[53]: 227  LLC: 2048
rand_sets[53]: 227
Assign rand_sets[54]: 1818  LLC: 2048
rand_sets[54]: 1818
Assign rand_sets[55]: 886  LLC: 2048
rand_sets[55]: 886
Assign rand_sets[56]: 1422  LLC: 2048
rand_sets[56]: 1422
Assign rand_sets[57]: 607  LLC: 2048
rand_sets[57]: 607
Assign rand_sets[58]: 217  LLC: 2048
rand_sets[58]: 217
Assign rand_sets[59]: 1945  LLC: 2048
rand_sets[59]: 1945
Assign rand_sets[60]: 143  LLC: 2048
rand_sets[60]: 143
Assign rand_sets[61]: 1311  LLC: 2048
rand_sets[61]: 1311
Assign rand_sets[62]: 319  LLC: 2048
rand_sets[62]: 319
Assign rand_sets[63]: 1846  LLC: 2048
rand_sets[63]: 1846
 CLEAN-RRIP-POLICY-1: 2-2-1-3-2-3-0-2- CLEAN-RRIP-POLICY-2: 2-2-1-3-2-3-0-2-
 DIRTY-RRIP-POLICY-1: 1-2-0-3-0-3-0-2- DIRTY-RRIP-POLICY-2: 1-2-0-3-0-3-0-2-
 PSEL width: 10
Heartbeat CPU 0 instructions: 10000000 cycles: 4124759 heartbeat IPC: 2.42438 cumulative IPC: 2.42438 (Simulation time: 0 hr 0 min 13 sec) 
Heartbeat CPU 0 instructions: 20000000 cycles: 8233863 heartbeat IPC: 2.43362 cumulative IPC: 2.42899 (Simulation time: 0 hr 0 min 26 sec) 
Heartbeat CPU 0 instructions: 30000003 cycles: 12464696 heartbeat IPC: 2.3636 cumulative IPC: 2.4068 (Simulation time: 0 hr 0 min 39 sec) 
Heartbeat CPU 0 instructions: 40000000 cycles: 16636669 heartbeat IPC: 2.39695 cumulative IPC: 2.40433 (Simulation time: 0 hr 0 min 53 sec) 
Heartbeat CPU 0 instructions: 50000000 cycles: 20699150 heartbeat IPC: 2.46155 cumulative IPC: 2.41556 (Simulation time: 0 hr 1 min 7 sec) 
Heartbeat CPU 0 instructions: 60000000 cycles: 25022635 heartbeat IPC: 2.31295 cumulative IPC: 2.39783 (Simulation time: 0 hr 1 min 20 sec) 
Heartbeat CPU 0 instructions: 70000000 cycles: 29370910 heartbeat IPC: 2.29976 cumulative IPC: 2.38331 (Simulation time: 0 hr 1 min 33 sec) 
Heartbeat CPU 0 instructions: 80000000 cycles: 33721041 heartbeat IPC: 2.29878 cumulative IPC: 2.37241 (Simulation time: 0 hr 1 min 46 sec) 
Heartbeat CPU 0 instructions: 90000002 cycles: 38032023 heartbeat IPC: 2.31966 cumulative IPC: 2.36643 (Simulation time: 0 hr 1 min 59 sec) 
Heartbeat CPU 0 instructions: 100000000 cycles: 42328936 heartbeat IPC: 2.32725 cumulative IPC: 2.36245 (Simulation time: 0 hr 2 min 13 sec) 

Warmup complete CPU 0 instructions: 100000001 cycles: 42328937 (Simulation time: 0 hr 2 min 13 sec) 

Heartbeat CPU 0 instructions: 110000001 cycles: 49381826 heartbeat IPC: 1.41786 cumulative IPC: 1.41786 (Simulation time: 0 hr 2 min 30 sec) 
Heartbeat CPU 0 instructions: 120000000 cycles: 58880712 heartbeat IPC: 1.05275 cumulative IPC: 1.20833 (Simulation time: 0 hr 2 min 49 sec) 
Heartbeat CPU 0 instructions: 130000000 cycles: 63689466 heartbeat IPC: 2.07954 cumulative IPC: 1.40446 (Simulation time: 0 hr 3 min 6 sec) 
Heartbeat CPU 0 instructions: 140000000 cycles: 68606723 heartbeat IPC: 2.03365 cumulative IPC: 1.5222 (Simulation time: 0 hr 3 min 23 sec) 
Heartbeat CPU 0 instructions: 150000002 cycles: 75437355 heartbeat IPC: 1.46399 cumulative IPC: 1.51019 (Simulation time: 0 hr 3 min 41 sec) 
Heartbeat CPU 0 instructions: 160000000 cycles: 83276799 heartbeat IPC: 1.2756 cumulative IPC: 1.46528 (Simulation time: 0 hr 3 min 59 sec) 
Heartbeat CPU 0 instructions: 170000000 cycles: 90678711 heartbeat IPC: 1.351 cumulative IPC: 1.44778 (Simulation time: 0 hr 4 min 16 sec) 
Heartbeat CPU 0 instructions: 180000000 cycles: 97977169 heartbeat IPC: 1.37015 cumulative IPC: 1.4376 (Simulation time: 0 hr 4 min 34 sec) 
Heartbeat CPU 0 instructions: 190000002 cycles: 105147639 heartbeat IPC: 1.39461 cumulative IPC: 1.43269 (Simulation time: 0 hr 4 min 51 sec) 
Heartbeat CPU 0 instructions: 200000000 cycles: 112380768 heartbeat IPC: 1.38253 cumulative IPC: 1.42751 (Simulation time: 0 hr 5 min 8 sec) 
Heartbeat CPU 0 instructions: 210000000 cycles: 119251660 heartbeat IPC: 1.45542 cumulative IPC: 1.43001 (Simulation time: 0 hr 5 min 25 sec) 
Heartbeat CPU 0 instructions: 220000000 cycles: 126025964 heartbeat IPC: 1.47617 cumulative IPC: 1.43374 (Simulation time: 0 hr 5 min 42 sec) 
Heartbeat CPU 0 instructions: 230000003 cycles: 132753414 heartbeat IPC: 1.48645 cumulative IPC: 1.43766 (Simulation time: 0 hr 5 min 59 sec) 
Heartbeat CPU 0 instructions: 240000000 cycles: 139496347 heartbeat IPC: 1.48303 cumulative IPC: 1.44081 (Simulation time: 0 hr 6 min 15 sec) 
Heartbeat CPU 0 instructions: 250000001 cycles: 146223512 heartbeat IPC: 1.48651 cumulative IPC: 1.44377 (Simulation time: 0 hr 6 min 32 sec) 
Heartbeat CPU 0 instructions: 260000000 cycles: 152929174 heartbeat IPC: 1.49128 cumulative IPC: 1.44665 (Simulation time: 0 hr 6 min 49 sec) 
Heartbeat CPU 0 instructions: 270000001 cycles: 159904212 heartbeat IPC: 1.43368 cumulative IPC: 1.44588 (Simulation time: 0 hr 7 min 6 sec) 
Heartbeat CPU 0 instructions: 280000000 cycles: 167436973 heartbeat IPC: 1.32753 cumulative IPC: 1.43876 (Simulation time: 0 hr 7 min 23 sec) 
Heartbeat CPU 0 instructions: 290000000 cycles: 175359397 heartbeat IPC: 1.26224 cumulative IPC: 1.42824 (Simulation time: 0 hr 7 min 41 sec) 
Heartbeat CPU 0 instructions: 300000000 cycles: 183535018 heartbeat IPC: 1.22315 cumulative IPC: 1.41637 (Simulation time: 0 hr 7 min 59 sec) 
Heartbeat CPU 0 instructions: 310000002 cycles: 191851004 heartbeat IPC: 1.2025 cumulative IPC: 1.40447 (Simulation time: 0 hr 8 min 18 sec) 
Heartbeat CPU 0 instructions: 320000000 cycles: 201846892 heartbeat IPC: 1.00041 cumulative IPC: 1.37916 (Simulation time: 0 hr 8 min 38 sec) 
Heartbeat CPU 0 instructions: 330000002 cycles: 206482799 heartbeat IPC: 2.15708 cumulative IPC: 1.40112 (Simulation time: 0 hr 8 min 55 sec) 
Heartbeat CPU 0 instructions: 340000000 cycles: 211713865 heartbeat IPC: 1.91166 cumulative IPC: 1.41689 (Simulation time: 0 hr 9 min 12 sec) 
Heartbeat CPU 0 instructions: 350000000 cycles: 218932040 heartbeat IPC: 1.38539 cumulative IPC: 1.4156 (Simulation time: 0 hr 9 min 30 sec) 
Heartbeat CPU 0 instructions: 360000000 cycles: 226591191 heartbeat IPC: 1.30563 cumulative IPC: 1.41103 (Simulation time: 0 hr 9 min 48 sec) 
Heartbeat CPU 0 instructions: 370000000 cycles: 233996957 heartbeat IPC: 1.3503 cumulative IPC: 1.40869 (Simulation time: 0 hr 10 min 5 sec) 
Heartbeat CPU 0 instructions: 380000000 cycles: 241274783 heartbeat IPC: 1.37404 cumulative IPC: 1.40742 (Simulation time: 0 hr 10 min 23 sec) 
Heartbeat CPU 0 instructions: 390000000 cycles: 249392073 heartbeat IPC: 1.23194 cumulative IPC: 1.40054 (Simulation time: 0 hr 10 min 41 sec) 
Heartbeat CPU 0 instructions: 400000000 cycles: 257598330 heartbeat IPC: 1.21858 cumulative IPC: 1.3936 (Simulation time: 0 hr 10 min 59 sec) 
Heartbeat CPU 0 instructions: 410000001 cycles: 265421647 heartbeat IPC: 1.27823 cumulative IPC: 1.38956 (Simulation time: 0 hr 11 min 17 sec) 
Heartbeat CPU 0 instructions: 420000000 cycles: 273472123 heartbeat IPC: 1.24216 cumulative IPC: 1.38442 (Simulation time: 0 hr 11 min 35 sec) 
Heartbeat CPU 0 instructions: 430000001 cycles: 281730583 heartbeat IPC: 1.21088 cumulative IPC: 1.37844 (Simulation time: 0 hr 11 min 53 sec) 
Heartbeat CPU 0 instructions: 440000000 cycles: 289775751 heartbeat IPC: 1.24298 cumulative IPC: 1.37403 (Simulation time: 0 hr 12 min 12 sec) 
Heartbeat CPU 0 instructions: 450000001 cycles: 297649389 heartbeat IPC: 1.27006 cumulative IPC: 1.37083 (Simulation time: 0 hr 12 min 29 sec) 
Heartbeat CPU 0 instructions: 460000000 cycles: 307597805 heartbeat IPC: 1.00519 cumulative IPC: 1.35711 (Simulation time: 0 hr 12 min 49 sec) 
Heartbeat CPU 0 instructions: 470000002 cycles: 312227292 heartbeat IPC: 2.16007 cumulative IPC: 1.37089 (Simulation time: 0 hr 13 min 6 sec) 
Heartbeat CPU 0 instructions: 480000000 cycles: 317477348 heartbeat IPC: 1.90474 cumulative IPC: 1.38107 (Simulation time: 0 hr 13 min 23 sec) 
Heartbeat CPU 0 instructions: 490000001 cycles: 324793990 heartbeat IPC: 1.36675 cumulative IPC: 1.3807 (Simulation time: 0 hr 13 min 41 sec) 
Heartbeat CPU 0 instructions: 500000000 cycles: 333524717 heartbeat IPC: 1.14538 cumulative IPC: 1.37365 (Simulation time: 0 hr 14 min 2 sec) 
Heartbeat CPU 0 instructions: 510000002 cycles: 342258527 heartbeat IPC: 1.14498 cumulative IPC: 1.36699 (Simulation time: 0 hr 14 min 22 sec) 
Heartbeat CPU 0 instructions: 520000000 cycles: 350988608 heartbeat IPC: 1.14546 cumulative IPC: 1.36072 (Simulation time: 0 hr 14 min 42 sec) 
Heartbeat CPU 0 instructions: 530000000 cycles: 359695454 heartbeat IPC: 1.14852 cumulative IPC: 1.3549 (Simulation time: 0 hr 15 min 2 sec) 
Heartbeat CPU 0 instructions: 540000000 cycles: 367953733 heartbeat IPC: 1.21091 cumulative IPC: 1.35125 (Simulation time: 0 hr 15 min 21 sec) 
Heartbeat CPU 0 instructions: 550000000 cycles: 374992170 heartbeat IPC: 1.42077 cumulative IPC: 1.35272 (Simulation time: 0 hr 15 min 39 sec) 
Heartbeat CPU 0 instructions: 560000000 cycles: 381604417 heartbeat IPC: 1.51235 cumulative IPC: 1.35583 (Simulation time: 0 hr 15 min 56 sec) 
Heartbeat CPU 0 instructions: 570000002 cycles: 388198762 heartbeat IPC: 1.51645 cumulative IPC: 1.35889 (Simulation time: 0 hr 16 min 13 sec) 
Heartbeat CPU 0 instructions: 580000000 cycles: 394849834 heartbeat IPC: 1.50352 cumulative IPC: 1.36162 (Simulation time: 0 hr 16 min 30 sec) 
Heartbeat CPU 0 instructions: 590000002 cycles: 401539628 heartbeat IPC: 1.49481 cumulative IPC: 1.3641 (Simulation time: 0 hr 16 min 47 sec) 
Heartbeat CPU 0 instructions: 600000000 cycles: 408348153 heartbeat IPC: 1.46875 cumulative IPC: 1.36605 (Simulation time: 0 hr 17 min 4 sec) 
Finished CPU 0 instructions: 500000000 cycles: 366019224 cumulative IPC: 1.36605 (Simulation time: 0 hr 17 min 4 sec) 

CPU 0 Branch Prediction Accuracy: 93.4682% MPKI: 2.44079
Number of Branches: 18683822 Number of Mispredictions: 1220394
Number of LOAD Instructions: 142551610
Number of LOAD Instructions (ROI): 142551610
Number of STORE Instructions: 44807454
Number of STORE Instructions (ROI): 44807454
Total Destination Memory Operands: 48357071
Total Destination Memory Operands (ROI): 48357071
Total Source Memory Operands: 142551610
Total Source Memory Operands (ROI): 142551610
Number of DEPENDED LOADS: 7395099
Number of DEPENDED LOADS (ROI): 7395099
Number of SQ_ADDED: 48357051
Number of SQ_ADDED (ROI): 48357051
Number of LQ_ADDED: 157236324
Number of LQ_ADDED (ROI): 157236324
Number of Instructions read from trace: 600000256

ChampSim completed all CPUs

Region of Interest Statistics

CPU 0 cumulative IPC: 1.36605 instructions: 500000000 cycles: 366019224
ITLB TOTAL     ACCESS:   88177306  HIT:   88177237  MISS:         69
ITLB LOAD      ACCESS:   88177306  HIT:   88177237  MISS:         69
ITLB RFO       ACCESS:          0  HIT:          0  MISS:          0
ITLB PREFETCH  ACCESS:          0  HIT:          0  MISS:          0
ITLB WRITEBACK ACCESS:          0  HIT:          0  MISS:          0
ITLB PREFETCH  REQUESTED:          0  ISSUED:          0  USEFUL:          0  USELESS:          0
ITLB TOTAL MSHR MERGED:         85
ITLB LOAD MSHR MERGED:         85
ITLB RFO MSHR MERGED:          0
ITLB PREFETCH MSHR MERGED:          0
ITLB WRITEBACK MSHR MERGED:          0
ITLB TOTAL ACCESSES:   88177391 HITS:   88177237 MISSES:        154
ITLB LOAD ACCESSES:   88177391 HITS:   88177237 MISSES:        154
ITLB RFO ACCESSES:          0 HITS:          0 MISSES:          0
ITLB PREFETCH ACCESSES:          0 HITS:          0 MISSES:          0
ITLB WRITEBACK ACCESSES:          0 HITS:          0 MISSES:          0
ITLB RQ ACCESS:  500000000
ITLB RQ TO_CACHE:   88177391
ITLB RQ MERGED:  411822609
ITLB RQ FORWARD:          0
ITLB WQ ACCESS:          0
ITLB WQ TO_CACHE:          0
ITLB WQ MERGED:          0
ITLB WQ FORWARD:          0
DTLB TOTAL     ACCESS:   88203319  HIT:   88075904  MISS:     127415
DTLB LOAD      ACCESS:   59485518  HIT:   59393050  MISS:      92468
DTLB RFO       ACCESS:   28717801  HIT:   28682854  MISS:      34947
DTLB PREFETCH  ACCESS:          0  HIT:          0  MISS:          0
DTLB WRITEBACK ACCESS:          0  HIT:          0  MISS:          0
DTLB PREFETCH  REQUESTED:          0  ISSUED:          0  USEFUL:          0  USELESS:          0
DTLB TOTAL MSHR MERGED:     141123
DTLB LOAD MSHR MERGED:     107660
DTLB RFO MSHR MERGED:      33463
DTLB PREFETCH MSHR MERGED:          0
DTLB WRITEBACK MSHR MERGED:          0
DTLB TOTAL ACCESSES:   88344442 HITS:   88075904 MISSES:     268538
DTLB LOAD ACCESSES:   59593178 HITS:   59393050 MISSES:     200128
DTLB RFO ACCESSES:   28751264 HITS:   28682854 MISSES:      68410
DTLB PREFETCH ACCESSES:          0 HITS:          0 MISSES:          0
DTLB WRITEBACK ACCESSES:          0 HITS:          0 MISSES:          0
DTLB RQ ACCESS:  154558792
DTLB RQ TO_CACHE:   88344442
DTLB RQ MERGED:   66214350
DTLB RQ FORWARD:          0
DTLB WQ ACCESS:          0
DTLB WQ TO_CACHE:          0
DTLB WQ MERGED:          0
DTLB WQ FORWARD:          0
L1D TOTAL     ACCESS:  128098894  HIT:  124873277  MISS:    3225617
L1D LOAD      ACCESS:   53172351  HIT:   51977009  MISS:    1195342
L1D RFO       ACCESS:   37387379  HIT:   36773192  MISS:     614187
L1D PREFETCH  ACCESS:   37539164  HIT:   36123076  MISS:    1416088
L1D WRITEBACK ACCESS:          0  HIT:          0  MISS:          0
L1D PREFETCH  REQUESTED:   53657367  ISSUED:   52457409  USEFUL:     352068  USELESS:    1063985
L1D TOTAL MSHR MERGED:    2804323
L1D LOAD MSHR MERGED:     523791
L1D RFO MSHR MERGED:    1567199
L1D PREFETCH MSHR MERGED:     713333
L1D WRITEBACK MSHR MERGED:          0
L1D TOTAL ACCESSES:  130938055 HITS:  124908115 MISSES:    6029940
L1D LOAD ACCESSES:   53660208 HITS:   51979850 MISSES:    1680358
L1D RFO ACCESSES:   38952857 HITS:   36773192 MISSES:    2179665
L1D PREFETCH ACCESSES:   38324990 HITS:   36155073 MISSES:    2169917
L1D WRITEBACK ACCESSES:          0 HITS:          0 MISSES:          0
L1D RQ ACCESS:  113713900
L1D RQ TO_CACHE:   53657367
L1D RQ MERGED:   60053692
L1D RQ FORWARD:          0
L1D WQ ACCESS:   40844891
L1D WQ TO_CACHE:   38952857
L1D WQ MERGED:    1892034
L1D WQ FORWARD:      34838
L1I TOTAL     ACCESS:  108368744  HIT:  107809611  MISS:     559133
L1I LOAD      ACCESS:  108368744  HIT:  107809611  MISS:     559133
L1I RFO       ACCESS:          0  HIT:          0  MISS:          0
L1I PREFETCH  ACCESS:          0  HIT:          0  MISS:          0
L1I WRITEBACK ACCESS:          0  HIT:          0  MISS:          0
L1I PREFETCH  REQUESTED:          0  ISSUED:          0  USEFUL:          0  USELESS:          0
L1I TOTAL MSHR MERGED:     525656
L1I LOAD MSHR MERGED:     525656
L1I RFO MSHR MERGED:          0
L1I PREFETCH MSHR MERGED:          0
L1I WRITEBACK MSHR MERGED:          0
L1I TOTAL ACCESSES:  108894400 HITS:  107809611 MISSES:    1084789
L1I LOAD ACCESSES:  108894400 HITS:  107809611 MISSES:    1084789
L1I RFO ACCESSES:          0 HITS:          0 MISSES:          0
L1I PREFETCH ACCESSES:          0 HITS:          0 MISSES:          0
L1I WRITEBACK ACCESSES:          0 HITS:          0 MISSES:          0
L1I RQ ACCESS:  500000002
L1I RQ TO_CACHE:  108894400
L1I RQ MERGED:  391105602
L1I RQ FORWARD:          0
L1I WQ ACCESS:          0
L1I WQ TO_CACHE:          0
L1I WQ MERGED:          0
L1I WQ FORWARD:          0
L2C TOTAL     ACCESS:    4691993  HIT:    3865895  MISS:     826098
L2C LOAD      ACCESS:    1715593  HIT:    1562717  MISS:     152876
L2C RFO       ACCESS:     611027  HIT:     421166  MISS:     189861
L2C PREFETCH  ACCESS:    1662487  HIT:    1181310  MISS:     481177
L2C WRITEBACK ACCESS:     702886  HIT:     700702  MISS:       2184
L2C PREFETCH  REQUESTED:     256378  ISSUED:     256378  USEFUL:     173114  USELESS:     308729
L2C TOTAL MSHR MERGED:      13373
L2C LOAD MSHR MERGED:       4095
L2C RFO MSHR MERGED:          0
L2C PREFETCH MSHR MERGED:       9278
L2C WRITEBACK MSHR MERGED:          0
L2C TOTAL ACCESSES:    4712177 HITS:    3867505 MISSES:     844672
L2C LOAD ACCESSES:    1715700 HITS:    1562824 MISSES:     152876
L2C RFO ACCESSES:     612466 HITS:     422605 MISSES:     189861
L2C PREFETCH ACCESSES:    1681125 HITS:    1181374 MISSES:     499751
L2C WRITEBACK ACCESSES:     702886 HITS:     700702 MISSES:       2184
L2C RQ ACCESS:    2328166
L2C RQ TO_CACHE:    2326620
L2C RQ MERGED:          0
L2C RQ FORWARD:          0
L2C WQ ACCESS:     702886
L2C WQ TO_CACHE:     702886
L2C WQ MERGED:          0
L2C WQ FORWARD:       1610
LLC TOTAL     ACCESS:    1047606  HIT:     287623  MISS:     759983
LLC LOAD      ACCESS:     148777  HIT:      89523  MISS:      59254
LLC RFO       ACCESS:     189853  HIT:       6239  MISS:     183614
LLC PREFETCH  ACCESS:     488099  HIT:     153089  MISS:     335010
LLC WRITEBACK ACCESS:     220877  HIT:      38772  MISS:     182105
LLC PREFETCH  REQUESTED:          0  ISSUED:          0  USEFUL:       2205  USELESS:     333305
LLC TOTAL MSHR MERGED:       1658
LLC LOAD MSHR MERGED:        575
LLC RFO MSHR MERGED:          0
LLC PREFETCH MSHR MERGED:       1083
LLC WRITEBACK MSHR MERGED:          0
LLC TOTAL ACCESSES:    1049276 HITS:     287635 MISSES:     761641
LLC LOAD ACCESSES:     148781 HITS:      89527 MISSES:      59254
LLC RFO ACCESSES:     189861 HITS:       6247 MISSES:     183614
LLC PREFETCH ACCESSES:     489757 HITS:     153089 MISSES:     336668
LLC WRITEBACK ACCESSES:     220877 HITS:      38772 MISSES:     182105
LLC 0 RQ ACCESS:     338642
LLC 0 RQ TO_CACHE:     338630
LLC 0 RQ MERGED:          0
LLC 0 RQ FORWARD:          0
LLC WQ ACCESS:     220877
LLC WQ TO_CACHE:     220877
LLC WQ MERGED:          0
LLC WQ FORWARD:         12
Major fault: 0 Minor fault: 6811
CPU 0 L1D next line prefetcher final stats
CPU 0 L2C PC-based stride prefetcher final stats
All Misses: 899013
All Hits: 355576
SD Algo Stats - Switches: 0 SRR-Repls: 66635 BRR-Repls: 0

DRAM Statistics
 CHANNEL 0
 RQ ROW_BUFFER_HIT:     289885  ROW_BUFFER_MISS:     287921
 DBUS_CONGESTED:     399885
 WQ ROW_BUFFER_HIT:      24345  ROW_BUFFER_MISS:     191149  FULL:          0

 AVG_CONGESTED_CYCLE: 13
LOADS RETIRED: 119922929
INSTR RETIRED: 500000000
