
*** ChampSim Multicore Out-of-Order Simulator ***

Warmup Instructions: 100000000
Simulation Instructions: 500000000
Number of CPUs: 1
LLC sets: 2048
LLC ways: 16
Clean RRIP Policies: 2210230222102302 Dirty RRIP Policies: 1200130212001302 PSEL Width: 10 Track Set: 4294967295 PSEL Mask: 1 Demote Mask: 1040300010403000DS Algo: 0Window size: 0
Off-chip DRAM Size: 4096 MB Channels: 1 Width: 64-bit Data Rate: 1600 MT/s

CPU 0 runs /mnt/beegfs/iconst01/spec2017/Gcc.trace.gz
NOT SORTED
TRACE STRING: /mnt/beegfs/iconst01/spec2017/Gcc.trace.gz
SORTED
TRACE STRING: /mnt/beegfs/iconst01/spec2017/Gcc.trace.gz
INITIAL
TRACE STRING: /mnt/beegfs/iconst01/spec2017/Gcc.trace.gz

champsim_seed used: 269

CPU 0 L1D next line prefetcher
CPU 0 L2C IP-based stride prefetcher
Initialize DRRIP state
Assign rand_sets[0]: 454  LLC: 2048
rand_sets[0]: 454
Assign rand_sets[1]: 1662  LLC: 2048
rand_sets[1]: 1662
Assign rand_sets[2]: 1921  LLC: 2048
rand_sets[2]: 1921
Assign rand_sets[3]: 1131  LLC: 2048
rand_sets[3]: 1131
Assign rand_sets[4]: 331  LLC: 2048
rand_sets[4]: 331
Assign rand_sets[5]: 1531  LLC: 2048
rand_sets[5]: 1531
Assign rand_sets[6]: 482  LLC: 2048
rand_sets[6]: 482
Assign rand_sets[7]: 1275  LLC: 2048
rand_sets[7]: 1275
Assign rand_sets[8]: 1876  LLC: 2048
rand_sets[8]: 1876
Assign rand_sets[9]: 2038  LLC: 2048
rand_sets[9]: 2038
Assign rand_sets[10]: 701  LLC: 2048
rand_sets[10]: 701
Assign rand_sets[11]: 479  LLC: 2048
rand_sets[11]: 479
Assign rand_sets[12]: 892  LLC: 2048
rand_sets[12]: 892
Assign rand_sets[13]: 1820  LLC: 2048
rand_sets[13]: 1820
Assign rand_sets[14]: 1505  LLC: 2048
rand_sets[14]: 1505
Assign rand_sets[15]: 1159  LLC: 2048
rand_sets[15]: 1159
Assign rand_sets[16]: 513  LLC: 2048
rand_sets[16]: 513
Assign rand_sets[17]: 703  LLC: 2048
rand_sets[17]: 703
Assign rand_sets[18]: 561  LLC: 2048
rand_sets[18]: 561
Assign rand_sets[19]: 990  LLC: 2048
rand_sets[19]: 990
Assign rand_sets[20]: 342  LLC: 2048
rand_sets[20]: 342
Assign rand_sets[21]: 882  LLC: 2048
rand_sets[21]: 882
Assign rand_sets[22]: 15  LLC: 2048
rand_sets[22]: 15
Assign rand_sets[23]: 71  LLC: 2048
rand_sets[23]: 71
Assign rand_sets[24]: 1127  LLC: 2048
rand_sets[24]: 1127
Assign rand_sets[25]: 1382  LLC: 2048
rand_sets[25]: 1382
Assign rand_sets[26]: 647  LLC: 2048
rand_sets[26]: 647
Assign rand_sets[27]: 857  LLC: 2048
rand_sets[27]: 857
Assign rand_sets[28]: 1450  LLC: 2048
rand_sets[28]: 1450
Assign rand_sets[29]: 1160  LLC: 2048
rand_sets[29]: 1160
Assign rand_sets[30]: 1852  LLC: 2048
rand_sets[30]: 1852
Assign rand_sets[31]: 1881  LLC: 2048
rand_sets[31]: 1881
Assign rand_sets[32]: 1770  LLC: 2048
rand_sets[32]: 1770
Assign rand_sets[33]: 1622  LLC: 2048
rand_sets[33]: 1622
Assign rand_sets[34]: 275  LLC: 2048
rand_sets[34]: 275
Assign rand_sets[35]: 635  LLC: 2048
rand_sets[35]: 635
Assign rand_sets[36]: 466  LLC: 2048
rand_sets[36]: 466
Assign rand_sets[37]: 1413  LLC: 2048
rand_sets[37]: 1413
Assign rand_sets[38]: 417  LLC: 2048
rand_sets[38]: 417
Assign rand_sets[39]: 472  LLC: 2048
rand_sets[39]: 472
Assign rand_sets[40]: 1340  LLC: 2048
rand_sets[40]: 1340
Assign rand_sets[41]: 852  LLC: 2048
rand_sets[41]: 852
Assign rand_sets[42]: 1365  LLC: 2048
rand_sets[42]: 1365
Assign rand_sets[43]: 47  LLC: 2048
rand_sets[43]: 47
Assign rand_sets[44]: 823  LLC: 2048
rand_sets[44]: 823
Assign rand_sets[45]: 686  LLC: 2048
rand_sets[45]: 686
Assign rand_sets[46]: 1637  LLC: 2048
rand_sets[46]: 1637
Assign rand_sets[47]: 1115  LLC: 2048
rand_sets[47]: 1115
Assign rand_sets[48]: 986  LLC: 2048
rand_sets[48]: 986
Assign rand_sets[49]: 258  LLC: 2048
rand_sets[49]: 258
Assign rand_sets[50]: 633  LLC: 2048
rand_sets[50]: 633
Assign rand_sets[51]: 920  LLC: 2048
rand_sets[51]: 920
Assign rand_sets[52]: 204  LLC: 2048
rand_sets[52]: 204
Assign rand_sets[53]: 227  LLC: 2048
rand_sets[53]: 227
Assign rand_sets[54]: 1818  LLC: 2048
rand_sets[54]: 1818
Assign rand_sets[55]: 886  LLC: 2048
rand_sets[55]: 886
Assign rand_sets[56]: 1422  LLC: 2048
rand_sets[56]: 1422
Assign rand_sets[57]: 607  LLC: 2048
rand_sets[57]: 607
Assign rand_sets[58]: 217  LLC: 2048
rand_sets[58]: 217
Assign rand_sets[59]: 1945  LLC: 2048
rand_sets[59]: 1945
Assign rand_sets[60]: 143  LLC: 2048
rand_sets[60]: 143
Assign rand_sets[61]: 1311  LLC: 2048
rand_sets[61]: 1311
Assign rand_sets[62]: 319  LLC: 2048
rand_sets[62]: 319
Assign rand_sets[63]: 1846  LLC: 2048
rand_sets[63]: 1846
 CLEAN-RRIP-POLICY-1: 2-2-1-0-2-3-0-2- CLEAN-RRIP-POLICY-2: 2-2-1-0-2-3-0-2-
 DIRTY-RRIP-POLICY-1: 1-2-0-0-1-3-0-2- DIRTY-RRIP-POLICY-2: 1-2-0-0-1-3-0-2-
 PSEL width: 10
Heartbeat CPU 0 instructions: 10000001 cycles: 7315904 heartbeat IPC: 1.36689 cumulative IPC: 1.36689 (Simulation time: 0 hr 0 min 14 sec) 
Heartbeat CPU 0 instructions: 20000000 cycles: 14308134 heartbeat IPC: 1.43016 cumulative IPC: 1.39781 (Simulation time: 0 hr 0 min 27 sec) 
Heartbeat CPU 0 instructions: 30000001 cycles: 21021473 heartbeat IPC: 1.48957 cumulative IPC: 1.42711 (Simulation time: 0 hr 0 min 42 sec) 
Heartbeat CPU 0 instructions: 40000000 cycles: 27482367 heartbeat IPC: 1.54777 cumulative IPC: 1.45548 (Simulation time: 0 hr 0 min 57 sec) 
Heartbeat CPU 0 instructions: 50000001 cycles: 33584359 heartbeat IPC: 1.63881 cumulative IPC: 1.48879 (Simulation time: 0 hr 1 min 11 sec) 
Heartbeat CPU 0 instructions: 60000000 cycles: 40065771 heartbeat IPC: 1.54287 cumulative IPC: 1.49754 (Simulation time: 0 hr 1 min 26 sec) 
Heartbeat CPU 0 instructions: 70000000 cycles: 47105946 heartbeat IPC: 1.42042 cumulative IPC: 1.48601 (Simulation time: 0 hr 1 min 40 sec) 
Heartbeat CPU 0 instructions: 80000000 cycles: 54197065 heartbeat IPC: 1.41021 cumulative IPC: 1.47609 (Simulation time: 0 hr 1 min 53 sec) 
Heartbeat CPU 0 instructions: 90000003 cycles: 61202517 heartbeat IPC: 1.42746 cumulative IPC: 1.47053 (Simulation time: 0 hr 2 min 7 sec) 
Heartbeat CPU 0 instructions: 100000000 cycles: 68370859 heartbeat IPC: 1.39502 cumulative IPC: 1.46261 (Simulation time: 0 hr 2 min 20 sec) 

Warmup complete CPU 0 instructions: 100000004 cycles: 68370860 (Simulation time: 0 hr 2 min 20 sec) 

Heartbeat CPU 0 instructions: 110000003 cycles: 96097699 heartbeat IPC: 0.360661 cumulative IPC: 0.360661 (Simulation time: 0 hr 2 min 46 sec) 
Heartbeat CPU 0 instructions: 120000000 cycles: 123585505 heartbeat IPC: 0.363798 cumulative IPC: 0.362223 (Simulation time: 0 hr 3 min 12 sec) 
Heartbeat CPU 0 instructions: 130000000 cycles: 148613545 heartbeat IPC: 0.399552 cumulative IPC: 0.373866 (Simulation time: 0 hr 3 min 37 sec) 
Heartbeat CPU 0 instructions: 140000000 cycles: 178419964 heartbeat IPC: 0.335498 cumulative IPC: 0.363474 (Simulation time: 0 hr 4 min 2 sec) 
Heartbeat CPU 0 instructions: 150000000 cycles: 208401079 heartbeat IPC: 0.333543 cumulative IPC: 0.357066 (Simulation time: 0 hr 4 min 28 sec) 
Heartbeat CPU 0 instructions: 160000000 cycles: 235871281 heartbeat IPC: 0.364031 cumulative IPC: 0.358208 (Simulation time: 0 hr 4 min 52 sec) 
Heartbeat CPU 0 instructions: 170000001 cycles: 263938505 heartbeat IPC: 0.356288 cumulative IPC: 0.357932 (Simulation time: 0 hr 5 min 19 sec) 
Heartbeat CPU 0 instructions: 180000000 cycles: 292467913 heartbeat IPC: 0.350515 cumulative IPC: 0.356988 (Simulation time: 0 hr 5 min 45 sec) 
Heartbeat CPU 0 instructions: 190000002 cycles: 320603871 heartbeat IPC: 0.355417 cumulative IPC: 0.356813 (Simulation time: 0 hr 6 min 11 sec) 
Heartbeat CPU 0 instructions: 200000000 cycles: 349041090 heartbeat IPC: 0.351652 cumulative IPC: 0.35629 (Simulation time: 0 hr 6 min 37 sec) 
Heartbeat CPU 0 instructions: 210000002 cycles: 377015417 heartbeat IPC: 0.357471 cumulative IPC: 0.356397 (Simulation time: 0 hr 7 min 2 sec) 
Heartbeat CPU 0 instructions: 220000000 cycles: 406459146 heartbeat IPC: 0.339631 cumulative IPC: 0.354937 (Simulation time: 0 hr 7 min 27 sec) 
Heartbeat CPU 0 instructions: 230000000 cycles: 434046712 heartbeat IPC: 0.362482 cumulative IPC: 0.355506 (Simulation time: 0 hr 7 min 52 sec) 
Heartbeat CPU 0 instructions: 240000000 cycles: 460001970 heartbeat IPC: 0.385278 cumulative IPC: 0.357479 (Simulation time: 0 hr 8 min 16 sec) 
Heartbeat CPU 0 instructions: 250000000 cycles: 490171022 heartbeat IPC: 0.331466 cumulative IPC: 0.355619 (Simulation time: 0 hr 8 min 43 sec) 
Heartbeat CPU 0 instructions: 260000000 cycles: 517285012 heartbeat IPC: 0.368813 cumulative IPC: 0.356416 (Simulation time: 0 hr 9 min 8 sec) 
Heartbeat CPU 0 instructions: 270000003 cycles: 545770870 heartbeat IPC: 0.351051 cumulative IPC: 0.356096 (Simulation time: 0 hr 9 min 34 sec) 
Heartbeat CPU 0 instructions: 280000000 cycles: 574037393 heartbeat IPC: 0.353775 cumulative IPC: 0.355966 (Simulation time: 0 hr 10 min 1 sec) 
Heartbeat CPU 0 instructions: 290000000 cycles: 603040019 heartbeat IPC: 0.344796 cumulative IPC: 0.35536 (Simulation time: 0 hr 10 min 28 sec) 
Heartbeat CPU 0 instructions: 300000000 cycles: 633293383 heartbeat IPC: 0.330542 cumulative IPC: 0.354031 (Simulation time: 0 hr 10 min 53 sec) 
Heartbeat CPU 0 instructions: 310000001 cycles: 662840798 heartbeat IPC: 0.338439 cumulative IPC: 0.353256 (Simulation time: 0 hr 11 min 18 sec) 
Heartbeat CPU 0 instructions: 320000000 cycles: 691244644 heartbeat IPC: 0.352065 cumulative IPC: 0.353202 (Simulation time: 0 hr 11 min 43 sec) 
Heartbeat CPU 0 instructions: 330000000 cycles: 720013520 heartbeat IPC: 0.347598 cumulative IPC: 0.352954 (Simulation time: 0 hr 12 min 8 sec) 
Heartbeat CPU 0 instructions: 340000000 cycles: 749401711 heartbeat IPC: 0.340273 cumulative IPC: 0.352407 (Simulation time: 0 hr 12 min 33 sec) 
Heartbeat CPU 0 instructions: 350000003 cycles: 776557242 heartbeat IPC: 0.368249 cumulative IPC: 0.353014 (Simulation time: 0 hr 12 min 58 sec) 
Heartbeat CPU 0 instructions: 360000000 cycles: 804861486 heartbeat IPC: 0.353304 cumulative IPC: 0.353026 (Simulation time: 0 hr 13 min 22 sec) 
Heartbeat CPU 0 instructions: 370000000 cycles: 833078223 heartbeat IPC: 0.3544 cumulative IPC: 0.353076 (Simulation time: 0 hr 13 min 46 sec) 
Heartbeat CPU 0 instructions: 380000000 cycles: 861635150 heartbeat IPC: 0.350178 cumulative IPC: 0.352972 (Simulation time: 0 hr 14 min 9 sec) 
Heartbeat CPU 0 instructions: 390000001 cycles: 889273491 heartbeat IPC: 0.361816 cumulative IPC: 0.35327 (Simulation time: 0 hr 14 min 33 sec) 
Heartbeat CPU 0 instructions: 400000000 cycles: 917981180 heartbeat IPC: 0.348339 cumulative IPC: 0.353103 (Simulation time: 0 hr 14 min 57 sec) 
Heartbeat CPU 0 instructions: 410000001 cycles: 945268102 heartbeat IPC: 0.366476 cumulative IPC: 0.353519 (Simulation time: 0 hr 15 min 20 sec) 
Heartbeat CPU 0 instructions: 420000000 cycles: 972566524 heartbeat IPC: 0.366322 cumulative IPC: 0.353906 (Simulation time: 0 hr 15 min 44 sec) 
Heartbeat CPU 0 instructions: 430000002 cycles: 1000306973 heartbeat IPC: 0.360485 cumulative IPC: 0.354102 (Simulation time: 0 hr 16 min 8 sec) 
Heartbeat CPU 0 instructions: 440000000 cycles: 1030017211 heartbeat IPC: 0.336584 cumulative IPC: 0.35356 (Simulation time: 0 hr 16 min 32 sec) 
Heartbeat CPU 0 instructions: 450000002 cycles: 1059345585 heartbeat IPC: 0.340967 cumulative IPC: 0.353188 (Simulation time: 0 hr 16 min 56 sec) 
Heartbeat CPU 0 instructions: 460000000 cycles: 1087070237 heartbeat IPC: 0.36069 cumulative IPC: 0.353392 (Simulation time: 0 hr 17 min 20 sec) 
Heartbeat CPU 0 instructions: 470000000 cycles: 1114696585 heartbeat IPC: 0.361973 cumulative IPC: 0.353618 (Simulation time: 0 hr 17 min 43 sec) 
Heartbeat CPU 0 instructions: 480000000 cycles: 1142572325 heartbeat IPC: 0.358735 cumulative IPC: 0.353751 (Simulation time: 0 hr 18 min 7 sec) 
Heartbeat CPU 0 instructions: 490000000 cycles: 1170144413 heartbeat IPC: 0.362686 cumulative IPC: 0.353975 (Simulation time: 0 hr 18 min 30 sec) 
Heartbeat CPU 0 instructions: 500000000 cycles: 1198494380 heartbeat IPC: 0.352734 cumulative IPC: 0.353944 (Simulation time: 0 hr 18 min 54 sec) 
Heartbeat CPU 0 instructions: 510000000 cycles: 1233086451 heartbeat IPC: 0.289084 cumulative IPC: 0.352017 (Simulation time: 0 hr 19 min 21 sec) 
Heartbeat CPU 0 instructions: 520000000 cycles: 1261095419 heartbeat IPC: 0.357029 cumulative IPC: 0.352135 (Simulation time: 0 hr 19 min 46 sec) 
Heartbeat CPU 0 instructions: 530000001 cycles: 1290740143 heartbeat IPC: 0.337328 cumulative IPC: 0.351776 (Simulation time: 0 hr 20 min 11 sec) 
Heartbeat CPU 0 instructions: 540000000 cycles: 1318876756 heartbeat IPC: 0.355409 cumulative IPC: 0.351858 (Simulation time: 0 hr 20 min 35 sec) 
Heartbeat CPU 0 instructions: 550000001 cycles: 1348077262 heartbeat IPC: 0.34246 cumulative IPC: 0.351643 (Simulation time: 0 hr 21 min 1 sec) 
Heartbeat CPU 0 instructions: 560000000 cycles: 1373503892 heartbeat IPC: 0.393288 cumulative IPC: 0.352454 (Simulation time: 0 hr 21 min 25 sec) 
Heartbeat CPU 0 instructions: 570000000 cycles: 1403173075 heartbeat IPC: 0.33705 cumulative IPC: 0.352112 (Simulation time: 0 hr 21 min 51 sec) 
Heartbeat CPU 0 instructions: 580000000 cycles: 1431190450 heartbeat IPC: 0.356921 cumulative IPC: 0.352211 (Simulation time: 0 hr 22 min 16 sec) 
Heartbeat CPU 0 instructions: 590000001 cycles: 1455925344 heartbeat IPC: 0.404287 cumulative IPC: 0.353139 (Simulation time: 0 hr 22 min 39 sec) 
Heartbeat CPU 0 instructions: 600000000 cycles: 1481988118 heartbeat IPC: 0.383689 cumulative IPC: 0.353703 (Simulation time: 0 hr 23 min 3 sec) 
Finished CPU 0 instructions: 500000000 cycles: 1413617280 cumulative IPC: 0.353703 (Simulation time: 0 hr 23 min 3 sec) 

CPU 0 Branch Prediction Accuracy: 86.4311% MPKI: 26.2662
Number of Branches: 96788573 Number of Mispredictions: 13133102
Number of LOAD Instructions: 164682285
Number of LOAD Instructions (ROI): 164682285
Number of STORE Instructions: 78194750
Number of STORE Instructions (ROI): 78194750
Total Destination Memory Operands: 83268534
Total Destination Memory Operands (ROI): 83268534
Total Source Memory Operands: 164712438
Total Source Memory Operands (ROI): 164712438
Number of DEPENDED LOADS: 7057533
Number of DEPENDED LOADS (ROI): 7057533
Number of SQ_ADDED: 83268522
Number of SQ_ADDED (ROI): 83268522
Number of LQ_ADDED: 236504171
Number of LQ_ADDED (ROI): 236504171
Number of Instructions read from trace: 600000066

ChampSim completed all CPUs

Region of Interest Statistics

CPU 0 cumulative IPC: 0.353703 instructions: 500000000 cycles: 1413617280
ITLB TOTAL     ACCESS:  100516483  HIT:  100312037  MISS:     204446
ITLB LOAD      ACCESS:  100516483  HIT:  100312037  MISS:     204446
ITLB RFO       ACCESS:          0  HIT:          0  MISS:          0
ITLB PREFETCH  ACCESS:          0  HIT:          0  MISS:          0
ITLB WRITEBACK ACCESS:          0  HIT:          0  MISS:          0
ITLB PREFETCH  REQUESTED:          0  ISSUED:          0  USEFUL:          0  USELESS:          0
ITLB TOTAL MSHR MERGED:     172424
ITLB LOAD MSHR MERGED:     172424
ITLB RFO MSHR MERGED:          0
ITLB PREFETCH MSHR MERGED:          0
ITLB WRITEBACK MSHR MERGED:          0
ITLB TOTAL ACCESSES:  100688907 HITS:  100312037 MISSES:     376870
ITLB LOAD ACCESSES:  100688907 HITS:  100312037 MISSES:     376870
ITLB RFO ACCESSES:          0 HITS:          0 MISSES:          0
ITLB PREFETCH ACCESSES:          0 HITS:          0 MISSES:          0
ITLB WRITEBACK ACCESSES:          0 HITS:          0 MISSES:          0
ITLB RQ ACCESS:  500000057
ITLB RQ TO_CACHE:  100688907
ITLB RQ MERGED:  399311150
ITLB RQ FORWARD:          0
ITLB WQ ACCESS:          0
ITLB WQ TO_CACHE:          0
ITLB WQ MERGED:          0
ITLB WQ FORWARD:          0
DTLB TOTAL     ACCESS:  165340681  HIT:  164706332  MISS:     634349
DTLB LOAD      ACCESS:  106295045  HIT:  105725081  MISS:     569964
DTLB RFO       ACCESS:   59045636  HIT:   58981251  MISS:      64385
DTLB PREFETCH  ACCESS:          0  HIT:          0  MISS:          0
DTLB WRITEBACK ACCESS:          0  HIT:          0  MISS:          0
DTLB PREFETCH  REQUESTED:          0  ISSUED:          0  USEFUL:          0  USELESS:          0
DTLB TOTAL MSHR MERGED:      99947
DTLB LOAD MSHR MERGED:      59436
DTLB RFO MSHR MERGED:      40511
DTLB PREFETCH MSHR MERGED:          0
DTLB WRITEBACK MSHR MERGED:          0
DTLB TOTAL ACCESSES:  165440628 HITS:  164706332 MISSES:     734296
DTLB LOAD ACCESSES:  106354481 HITS:  105725081 MISSES:     629400
DTLB RFO ACCESSES:   59086147 HITS:   58981251 MISSES:     104896
DTLB PREFETCH ACCESSES:          0 HITS:          0 MISSES:          0
DTLB WRITEBACK ACCESSES:          0 HITS:          0 MISSES:          0
DTLB RQ ACCESS:  200313354
DTLB RQ TO_CACHE:  165440628
DTLB RQ MERGED:   34872726
DTLB RQ FORWARD:          0
DTLB WQ ACCESS:          0
DTLB WQ TO_CACHE:          0
DTLB WQ MERGED:          0
DTLB WQ FORWARD:          0
L1D TOTAL     ACCESS:  281889469  HIT:  273980024  MISS:    7909445
L1D LOAD      ACCESS:  110433506  HIT:  107160028  MISS:    3273478
L1D RFO       ACCESS:   67127731  HIT:   66237521  MISS:     890210
L1D PREFETCH  ACCESS:  104328232  HIT:  100582475  MISS:    3745757
L1D WRITEBACK ACCESS:          0  HIT:          0  MISS:          0
L1D PREFETCH  REQUESTED:  110819274  ISSUED:  109119909  USEFUL:    1666338  USELESS:    2079383
L1D TOTAL MSHR MERGED:    2819470
L1D LOAD MSHR MERGED:     478795
L1D RFO MSHR MERGED:    1857745
L1D PREFETCH MSHR MERGED:     482930
L1D WRITEBACK MSHR MERGED:          0
L1D TOTAL ACCESSES:  284736383 HITS:  274007468 MISSES:   10728915
L1D LOAD ACCESSES:  110820741 HITS:  107161495 MISSES:    3659246
L1D RFO ACCESSES:   68974077 HITS:   66237521 MISSES:    2736556
L1D PREFETCH ACCESSES:  104941565 HITS:  100608452 MISSES:    4333113
L1D WRITEBACK ACCESSES:          0 HITS:          0 MISSES:          0
L1D RQ ACCESS:  130760751
L1D RQ TO_CACHE:  110819277
L1D RQ MERGED:   19940007
L1D RQ FORWARD:          0
L1D WQ ACCESS:   69552603
L1D WQ TO_CACHE:   68974078
L1D WQ MERGED:     578525
L1D WQ FORWARD:      27444
L1I TOTAL     ACCESS:  126563510  HIT:  122324957  MISS:    4238553
L1I LOAD      ACCESS:  126563510  HIT:  122324957  MISS:    4238553
L1I RFO       ACCESS:          0  HIT:          0  MISS:          0
L1I PREFETCH  ACCESS:          0  HIT:          0  MISS:          0
L1I WRITEBACK ACCESS:          0  HIT:          0  MISS:          0
L1I PREFETCH  REQUESTED:          0  ISSUED:          0  USEFUL:          0  USELESS:          0
L1I TOTAL MSHR MERGED:    1835023
L1I LOAD MSHR MERGED:    1835023
L1I RFO MSHR MERGED:          0
L1I PREFETCH MSHR MERGED:          0
L1I WRITEBACK MSHR MERGED:          0
L1I TOTAL ACCESSES:  128398536 HITS:  122324957 MISSES:    6073579
L1I LOAD ACCESSES:  128398536 HITS:  122324957 MISSES:    6073579
L1I RFO ACCESSES:          0 HITS:          0 MISSES:          0
L1I PREFETCH ACCESSES:          0 HITS:          0 MISSES:          0
L1I WRITEBACK ACCESSES:          0 HITS:          0 MISSES:          0
L1I RQ ACCESS:  500000057
L1I RQ TO_CACHE:  128398536
L1I RQ MERGED:  371601521
L1I RQ FORWARD:          0
L1I WQ ACCESS:          0
L1I WQ TO_CACHE:          0
L1I WQ MERGED:          0
L1I WQ FORWARD:          0
L2C TOTAL     ACCESS:   14905871  HIT:   11159463  MISS:    3746408
L2C LOAD      ACCESS:    7418798  HIT:    5099004  MISS:    2319794
L2C RFO       ACCESS:     878711  HIT:     409934  MISS:     468777
L2C PREFETCH  ACCESS:    4569100  HIT:    3628520  MISS:     940580
L2C WRITEBACK ACCESS:    2039262  HIT:    2022005  MISS:      17257
L2C PREFETCH  REQUESTED:     842781  ISSUED:     842781  USEFUL:     203518  USELESS:     736768
L2C TOTAL MSHR MERGED:       6589
L2C LOAD MSHR MERGED:        703
L2C RFO MSHR MERGED:          0
L2C PREFETCH MSHR MERGED:       5886
L2C WRITEBACK MSHR MERGED:          0
L2C TOTAL ACCESSES:   14913307 HITS:   11159915 MISSES:    3753392
L2C LOAD ACCESSES:    7419004 HITS:    5099210 MISSES:    2319794
L2C RFO ACCESSES:     878811 HITS:     410034 MISSES:     468777
L2C PREFETCH ACCESSES:    4576230 HITS:    3628666 MISSES:     947564
L2C WRITEBACK ACCESSES:    2039262 HITS:    2022005 MISSES:      17257
L2C RQ ACCESS:    8297818
L2C RQ TO_CACHE:    8297512
L2C RQ MERGED:          0
L2C RQ FORWARD:          0
L2C WQ ACCESS:    2039262
L2C WQ TO_CACHE:    2039262
L2C WQ MERGED:          0
L2C WQ FORWARD:        452
LLC TOTAL     ACCESS:    4609672  HIT:    4034996  MISS:     574676
LLC LOAD      ACCESS:    2319077  HIT:    2022528  MISS:     296549
LLC RFO       ACCESS:     468766  HIT:     419517  MISS:      49249
LLC PREFETCH  ACCESS:     941568  HIT:     731943  MISS:     209625
LLC WRITEBACK ACCESS:     880261  HIT:     861008  MISS:      19253
LLC PREFETCH  REQUESTED:          0  ISSUED:          0  USEFUL:      35828  USELESS:     174798
LLC TOTAL MSHR MERGED:         93
LLC LOAD MSHR MERGED:         32
LLC RFO MSHR MERGED:          0
LLC PREFETCH MSHR MERGED:         61
LLC WRITEBACK MSHR MERGED:          0
LLC TOTAL ACCESSES:    4609801 HITS:    4035032 MISSES:     574769
LLC LOAD ACCESSES:    2319091 HITS:    2022542 MISSES:     296549
LLC RFO ACCESSES:     468777 HITS:     419528 MISSES:      49249
LLC PREFETCH ACCESSES:     941672 HITS:     731954 MISSES:     209718
LLC WRITEBACK ACCESSES:     880261 HITS:     861008 MISSES:      19253
LLC 0 RQ ACCESS:    2787868
LLC 0 RQ TO_CACHE:    2787843
LLC 0 RQ MERGED:          0
LLC 0 RQ FORWARD:          0
LLC WQ ACCESS:     880261
LLC WQ TO_CACHE:     880261
LLC WQ MERGED:          0
LLC WQ FORWARD:         36
Major fault: 0 Minor fault: 12862
CPU 0 L1D next line prefetcher final stats
CPU 0 L2C PC-based stride prefetcher final stats
All Misses: 688862
All Hits: 4737816
SD Algo Stats - Switches: 0 SRR-Repls: 351934 BRR-Repls: 0

DRAM Statistics
 CHANNEL 0
 RQ ROW_BUFFER_HIT:     126514  ROW_BUFFER_MISS:     428350
 DBUS_CONGESTED:     321017
 WQ ROW_BUFFER_HIT:      11803  ROW_BUFFER_MISS:     151546  FULL:          0

 AVG_CONGESTED_CYCLE: 13
LOADS RETIRED: 136549171
INSTR RETIRED: 500000000
