
*** ChampSim Multicore Out-of-Order Simulator ***

Warmup Instructions: 100000000
Simulation Instructions: 500000000
Number of CPUs: 1
LLC sets: 2048
LLC ways: 16
Clean RRIP Policies: 2213230222132302 Dirty RRIP Policies: 1203131212031312 PSEL Width: 10 Track Set: 4294967295 PSEL Mask: 1 Demote Mask: 1040100010401000DS Algo: 0Window size: 0
Off-chip DRAM Size: 4096 MB Channels: 1 Width: 64-bit Data Rate: 1600 MT/s

CPU 0 runs /mnt/beegfs/iconst01/spec2017/Fotonik3d.trace.gz
NOT SORTED
TRACE STRING: /mnt/beegfs/iconst01/spec2017/Fotonik3d.trace.gz
SORTED
TRACE STRING: /mnt/beegfs/iconst01/spec2017/Fotonik3d.trace.gz
INITIAL
TRACE STRING: /mnt/beegfs/iconst01/spec2017/Fotonik3d.trace.gz

champsim_seed used: 881

CPU 0 L1D next line prefetcher
CPU 0 L2C IP-based stride prefetcher
Initialize DRRIP state
Assign rand_sets[0]: 454  LLC: 2048
rand_sets[0]: 454
Assign rand_sets[1]: 1662  LLC: 2048
rand_sets[1]: 1662
Assign rand_sets[2]: 1921  LLC: 2048
rand_sets[2]: 1921
Assign rand_sets[3]: 1131  LLC: 2048
rand_sets[3]: 1131
Assign rand_sets[4]: 331  LLC: 2048
rand_sets[4]: 331
Assign rand_sets[5]: 1531  LLC: 2048
rand_sets[5]: 1531
Assign rand_sets[6]: 482  LLC: 2048
rand_sets[6]: 482
Assign rand_sets[7]: 1275  LLC: 2048
rand_sets[7]: 1275
Assign rand_sets[8]: 1876  LLC: 2048
rand_sets[8]: 1876
Assign rand_sets[9]: 2038  LLC: 2048
rand_sets[9]: 2038
Assign rand_sets[10]: 701  LLC: 2048
rand_sets[10]: 701
Assign rand_sets[11]: 479  LLC: 2048
rand_sets[11]: 479
Assign rand_sets[12]: 892  LLC: 2048
rand_sets[12]: 892
Assign rand_sets[13]: 1820  LLC: 2048
rand_sets[13]: 1820
Assign rand_sets[14]: 1505  LLC: 2048
rand_sets[14]: 1505
Assign rand_sets[15]: 1159  LLC: 2048
rand_sets[15]: 1159
Assign rand_sets[16]: 513  LLC: 2048
rand_sets[16]: 513
Assign rand_sets[17]: 703  LLC: 2048
rand_sets[17]: 703
Assign rand_sets[18]: 561  LLC: 2048
rand_sets[18]: 561
Assign rand_sets[19]: 990  LLC: 2048
rand_sets[19]: 990
Assign rand_sets[20]: 342  LLC: 2048
rand_sets[20]: 342
Assign rand_sets[21]: 882  LLC: 2048
rand_sets[21]: 882
Assign rand_sets[22]: 15  LLC: 2048
rand_sets[22]: 15
Assign rand_sets[23]: 71  LLC: 2048
rand_sets[23]: 71
Assign rand_sets[24]: 1127  LLC: 2048
rand_sets[24]: 1127
Assign rand_sets[25]: 1382  LLC: 2048
rand_sets[25]: 1382
Assign rand_sets[26]: 647  LLC: 2048
rand_sets[26]: 647
Assign rand_sets[27]: 857  LLC: 2048
rand_sets[27]: 857
Assign rand_sets[28]: 1450  LLC: 2048
rand_sets[28]: 1450
Assign rand_sets[29]: 1160  LLC: 2048
rand_sets[29]: 1160
Assign rand_sets[30]: 1852  LLC: 2048
rand_sets[30]: 1852
Assign rand_sets[31]: 1881  LLC: 2048
rand_sets[31]: 1881
Assign rand_sets[32]: 1770  LLC: 2048
rand_sets[32]: 1770
Assign rand_sets[33]: 1622  LLC: 2048
rand_sets[33]: 1622
Assign rand_sets[34]: 275  LLC: 2048
rand_sets[34]: 275
Assign rand_sets[35]: 635  LLC: 2048
rand_sets[35]: 635
Assign rand_sets[36]: 466  LLC: 2048
rand_sets[36]: 466
Assign rand_sets[37]: 1413  LLC: 2048
rand_sets[37]: 1413
Assign rand_sets[38]: 417  LLC: 2048
rand_sets[38]: 417
Assign rand_sets[39]: 472  LLC: 2048
rand_sets[39]: 472
Assign rand_sets[40]: 1340  LLC: 2048
rand_sets[40]: 1340
Assign rand_sets[41]: 852  LLC: 2048
rand_sets[41]: 852
Assign rand_sets[42]: 1365  LLC: 2048
rand_sets[42]: 1365
Assign rand_sets[43]: 47  LLC: 2048
rand_sets[43]: 47
Assign rand_sets[44]: 823  LLC: 2048
rand_sets[44]: 823
Assign rand_sets[45]: 686  LLC: 2048
rand_sets[45]: 686
Assign rand_sets[46]: 1637  LLC: 2048
rand_sets[46]: 1637
Assign rand_sets[47]: 1115  LLC: 2048
rand_sets[47]: 1115
Assign rand_sets[48]: 986  LLC: 2048
rand_sets[48]: 986
Assign rand_sets[49]: 258  LLC: 2048
rand_sets[49]: 258
Assign rand_sets[50]: 633  LLC: 2048
rand_sets[50]: 633
Assign rand_sets[51]: 920  LLC: 2048
rand_sets[51]: 920
Assign rand_sets[52]: 204  LLC: 2048
rand_sets[52]: 204
Assign rand_sets[53]: 227  LLC: 2048
rand_sets[53]: 227
Assign rand_sets[54]: 1818  LLC: 2048
rand_sets[54]: 1818
Assign rand_sets[55]: 886  LLC: 2048
rand_sets[55]: 886
Assign rand_sets[56]: 1422  LLC: 2048
rand_sets[56]: 1422
Assign rand_sets[57]: 607  LLC: 2048
rand_sets[57]: 607
Assign rand_sets[58]: 217  LLC: 2048
rand_sets[58]: 217
Assign rand_sets[59]: 1945  LLC: 2048
rand_sets[59]: 1945
Assign rand_sets[60]: 143  LLC: 2048
rand_sets[60]: 143
Assign rand_sets[61]: 1311  LLC: 2048
rand_sets[61]: 1311
Assign rand_sets[62]: 319  LLC: 2048
rand_sets[62]: 319
Assign rand_sets[63]: 1846  LLC: 2048
rand_sets[63]: 1846
 CLEAN-RRIP-POLICY-1: 2-2-1-3-2-3-0-2- CLEAN-RRIP-POLICY-2: 2-2-1-3-2-3-0-2-
 DIRTY-RRIP-POLICY-1: 1-2-0-3-1-3-1-2- DIRTY-RRIP-POLICY-2: 1-2-0-3-1-3-1-2-
 PSEL width: 10
Heartbeat CPU 0 instructions: 10000002 cycles: 7306734 heartbeat IPC: 1.3686 cumulative IPC: 1.3686 (Simulation time: 0 hr 0 min 24 sec) 
Heartbeat CPU 0 instructions: 20000000 cycles: 14613587 heartbeat IPC: 1.36858 cumulative IPC: 1.36859 (Simulation time: 0 hr 0 min 49 sec) 
Heartbeat CPU 0 instructions: 30000001 cycles: 21920304 heartbeat IPC: 1.3686 cumulative IPC: 1.36859 (Simulation time: 0 hr 1 min 13 sec) 
Heartbeat CPU 0 instructions: 40000000 cycles: 29226901 heartbeat IPC: 1.36863 cumulative IPC: 1.3686 (Simulation time: 0 hr 1 min 38 sec) 
Heartbeat CPU 0 instructions: 50000001 cycles: 36533492 heartbeat IPC: 1.36863 cumulative IPC: 1.36861 (Simulation time: 0 hr 2 min 2 sec) 
Heartbeat CPU 0 instructions: 60000000 cycles: 43840315 heartbeat IPC: 1.36858 cumulative IPC: 1.3686 (Simulation time: 0 hr 2 min 27 sec) 
Heartbeat CPU 0 instructions: 70000002 cycles: 51146937 heartbeat IPC: 1.36862 cumulative IPC: 1.36861 (Simulation time: 0 hr 2 min 51 sec) 
Heartbeat CPU 0 instructions: 80000000 cycles: 58453549 heartbeat IPC: 1.36862 cumulative IPC: 1.36861 (Simulation time: 0 hr 3 min 16 sec) 
Heartbeat CPU 0 instructions: 90000003 cycles: 65763959 heartbeat IPC: 1.36791 cumulative IPC: 1.36853 (Simulation time: 0 hr 3 min 40 sec) 
Heartbeat CPU 0 instructions: 100000000 cycles: 73074434 heartbeat IPC: 1.3679 cumulative IPC: 1.36847 (Simulation time: 0 hr 4 min 5 sec) 

Warmup complete CPU 0 instructions: 100000002 cycles: 73074446 (Simulation time: 0 hr 4 min 5 sec) 

Heartbeat CPU 0 instructions: 110000001 cycles: 85510503 heartbeat IPC: 0.804113 cumulative IPC: 0.804113 (Simulation time: 0 hr 4 min 34 sec) 
Heartbeat CPU 0 instructions: 120000000 cycles: 97872328 heartbeat IPC: 0.808942 cumulative IPC: 0.80652 (Simulation time: 0 hr 5 min 3 sec) 
Heartbeat CPU 0 instructions: 130000000 cycles: 110292057 heartbeat IPC: 0.805171 cumulative IPC: 0.80607 (Simulation time: 0 hr 5 min 33 sec) 
Heartbeat CPU 0 instructions: 140000000 cycles: 122687439 heartbeat IPC: 0.806752 cumulative IPC: 0.80624 (Simulation time: 0 hr 6 min 2 sec) 
Heartbeat CPU 0 instructions: 150000000 cycles: 135034831 heartbeat IPC: 0.809888 cumulative IPC: 0.806967 (Simulation time: 0 hr 6 min 31 sec) 
Heartbeat CPU 0 instructions: 160000000 cycles: 147428609 heartbeat IPC: 0.806856 cumulative IPC: 0.806949 (Simulation time: 0 hr 7 min 0 sec) 
Heartbeat CPU 0 instructions: 170000001 cycles: 159835460 heartbeat IPC: 0.806006 cumulative IPC: 0.806814 (Simulation time: 0 hr 7 min 30 sec) 
Heartbeat CPU 0 instructions: 180000000 cycles: 172227605 heartbeat IPC: 0.806963 cumulative IPC: 0.806833 (Simulation time: 0 hr 7 min 59 sec) 
Heartbeat CPU 0 instructions: 190000000 cycles: 184650828 heartbeat IPC: 0.804944 cumulative IPC: 0.806622 (Simulation time: 0 hr 8 min 28 sec) 
Heartbeat CPU 0 instructions: 200000000 cycles: 197029244 heartbeat IPC: 0.807858 cumulative IPC: 0.806746 (Simulation time: 0 hr 8 min 57 sec) 
Heartbeat CPU 0 instructions: 210000002 cycles: 209442602 heartbeat IPC: 0.805584 cumulative IPC: 0.80664 (Simulation time: 0 hr 9 min 26 sec) 
Heartbeat CPU 0 instructions: 220000000 cycles: 221862130 heartbeat IPC: 0.805183 cumulative IPC: 0.806518 (Simulation time: 0 hr 9 min 56 sec) 
Heartbeat CPU 0 instructions: 230000002 cycles: 234246003 heartbeat IPC: 0.807502 cumulative IPC: 0.806594 (Simulation time: 0 hr 10 min 25 sec) 
Heartbeat CPU 0 instructions: 240000000 cycles: 247367076 heartbeat IPC: 0.762133 cumulative IPC: 0.803247 (Simulation time: 0 hr 10 min 55 sec) 
Heartbeat CPU 0 instructions: 250000001 cycles: 264614178 heartbeat IPC: 0.579808 cumulative IPC: 0.783127 (Simulation time: 0 hr 11 min 27 sec) 
Heartbeat CPU 0 instructions: 260000000 cycles: 281717027 heartbeat IPC: 0.584698 cumulative IPC: 0.766862 (Simulation time: 0 hr 11 min 59 sec) 
Heartbeat CPU 0 instructions: 270000000 cycles: 298891778 heartbeat IPC: 0.58225 cumulative IPC: 0.752821 (Simulation time: 0 hr 12 min 31 sec) 
Heartbeat CPU 0 instructions: 280000000 cycles: 316041700 heartbeat IPC: 0.583093 cumulative IPC: 0.740841 (Simulation time: 0 hr 13 min 2 sec) 
Heartbeat CPU 0 instructions: 290000000 cycles: 344402161 heartbeat IPC: 0.352604 cumulative IPC: 0.70026 (Simulation time: 0 hr 13 min 42 sec) 
Heartbeat CPU 0 instructions: 300000000 cycles: 381322569 heartbeat IPC: 0.270853 cumulative IPC: 0.648828 (Simulation time: 0 hr 14 min 27 sec) 
Heartbeat CPU 0 instructions: 310000000 cycles: 397831043 heartbeat IPC: 0.605749 cumulative IPC: 0.646638 (Simulation time: 0 hr 14 min 58 sec) 
Heartbeat CPU 0 instructions: 320000000 cycles: 414306355 heartbeat IPC: 0.606969 cumulative IPC: 0.644723 (Simulation time: 0 hr 15 min 29 sec) 
Heartbeat CPU 0 instructions: 330000003 cycles: 430845660 heartbeat IPC: 0.604621 cumulative IPC: 0.642869 (Simulation time: 0 hr 16 min 0 sec) 
Heartbeat CPU 0 instructions: 340000000 cycles: 447346196 heartbeat IPC: 0.606041 cumulative IPC: 0.641245 (Simulation time: 0 hr 16 min 31 sec) 
Heartbeat CPU 0 instructions: 350000001 cycles: 462079558 heartbeat IPC: 0.678732 cumulative IPC: 0.642665 (Simulation time: 0 hr 17 min 1 sec) 
Heartbeat CPU 0 instructions: 360000000 cycles: 473923050 heartbeat IPC: 0.844346 cumulative IPC: 0.648624 (Simulation time: 0 hr 17 min 28 sec) 
Heartbeat CPU 0 instructions: 370000002 cycles: 485628153 heartbeat IPC: 0.854328 cumulative IPC: 0.65446 (Simulation time: 0 hr 17 min 55 sec) 
Heartbeat CPU 0 instructions: 380000000 cycles: 497523970 heartbeat IPC: 0.840631 cumulative IPC: 0.659678 (Simulation time: 0 hr 18 min 22 sec) 
Heartbeat CPU 0 instructions: 390000003 cycles: 510890396 heartbeat IPC: 0.748143 cumulative IPC: 0.662379 (Simulation time: 0 hr 18 min 50 sec) 
Heartbeat CPU 0 instructions: 400000000 cycles: 523169101 heartbeat IPC: 0.814418 cumulative IPC: 0.666526 (Simulation time: 0 hr 19 min 18 sec) 
Heartbeat CPU 0 instructions: 410000003 cycles: 535174512 heartbeat IPC: 0.832958 cumulative IPC: 0.67085 (Simulation time: 0 hr 19 min 46 sec) 
Heartbeat CPU 0 instructions: 420000000 cycles: 548025840 heartbeat IPC: 0.778129 cumulative IPC: 0.673753 (Simulation time: 0 hr 20 min 14 sec) 
Heartbeat CPU 0 instructions: 430000003 cycles: 566450716 heartbeat IPC: 0.542745 cumulative IPC: 0.668861 (Simulation time: 0 hr 20 min 39 sec) 
Heartbeat CPU 0 instructions: 440000000 cycles: 584906284 heartbeat IPC: 0.541842 cumulative IPC: 0.664281 (Simulation time: 0 hr 21 min 4 sec) 
Heartbeat CPU 0 instructions: 450000003 cycles: 603372176 heartbeat IPC: 0.541539 cumulative IPC: 0.660007 (Simulation time: 0 hr 21 min 29 sec) 
Heartbeat CPU 0 instructions: 460000000 cycles: 621827902 heartbeat IPC: 0.541837 cumulative IPC: 0.656032 (Simulation time: 0 hr 21 min 54 sec) 
Heartbeat CPU 0 instructions: 470000003 cycles: 640287627 heartbeat IPC: 0.54172 cumulative IPC: 0.652312 (Simulation time: 0 hr 22 min 19 sec) 
Heartbeat CPU 0 instructions: 480000000 cycles: 658743379 heartbeat IPC: 0.541836 cumulative IPC: 0.648831 (Simulation time: 0 hr 22 min 44 sec) 
Heartbeat CPU 0 instructions: 490000003 cycles: 677225388 heartbeat IPC: 0.541067 cumulative IPC: 0.645534 (Simulation time: 0 hr 23 min 9 sec) 
Heartbeat CPU 0 instructions: 500000000 cycles: 695670884 heartbeat IPC: 0.542138 cumulative IPC: 0.642471 (Simulation time: 0 hr 23 min 34 sec) 
Heartbeat CPU 0 instructions: 510000003 cycles: 714126646 heartbeat IPC: 0.541836 cumulative IPC: 0.639574 (Simulation time: 0 hr 24 min 0 sec) 
Heartbeat CPU 0 instructions: 520000000 cycles: 732579916 heartbeat IPC: 0.541909 cumulative IPC: 0.636841 (Simulation time: 0 hr 24 min 25 sec) 
Heartbeat CPU 0 instructions: 530000001 cycles: 751050330 heartbeat IPC: 0.541406 cumulative IPC: 0.634241 (Simulation time: 0 hr 24 min 50 sec) 
Heartbeat CPU 0 instructions: 540000000 cycles: 769455429 heartbeat IPC: 0.543328 cumulative IPC: 0.631838 (Simulation time: 0 hr 25 min 15 sec) 
Heartbeat CPU 0 instructions: 550000001 cycles: 787860171 heartbeat IPC: 0.543338 cumulative IPC: 0.629559 (Simulation time: 0 hr 25 min 40 sec) 
Heartbeat CPU 0 instructions: 560000000 cycles: 806280624 heartbeat IPC: 0.542875 cumulative IPC: 0.627382 (Simulation time: 0 hr 26 min 5 sec) 
Heartbeat CPU 0 instructions: 570000001 cycles: 824670800 heartbeat IPC: 0.543769 cumulative IPC: 0.625336 (Simulation time: 0 hr 26 min 30 sec) 
Heartbeat CPU 0 instructions: 580000000 cycles: 843025650 heartbeat IPC: 0.544815 cumulative IPC: 0.623416 (Simulation time: 0 hr 26 min 55 sec) 
Heartbeat CPU 0 instructions: 590000001 cycles: 861429708 heartbeat IPC: 0.543359 cumulative IPC: 0.621547 (Simulation time: 0 hr 27 min 21 sec) 
Heartbeat CPU 0 instructions: 600000000 cycles: 879830150 heartbeat IPC: 0.543465 cumulative IPC: 0.619766 (Simulation time: 0 hr 27 min 46 sec) 
Finished CPU 0 instructions: 500000002 cycles: 806755718 cumulative IPC: 0.619766 (Simulation time: 0 hr 27 min 46 sec) 

CPU 0 Branch Prediction Accuracy: 99.5931% MPKI: 0.08288
Number of Branches: 10184133 Number of Mispredictions: 41440
Number of LOAD Instructions: 261155957
Number of LOAD Instructions (ROI): 261155957
Number of STORE Instructions: 57884062
Number of STORE Instructions (ROI): 57884062
Total Destination Memory Operands: 83293336
Total Destination Memory Operands (ROI): 83293336
Total Source Memory Operands: 261155957
Total Source Memory Operands (ROI): 261155957
Number of DEPENDED LOADS: 22255485
Number of DEPENDED LOADS (ROI): 22255485
Number of SQ_ADDED: 83293300
Number of SQ_ADDED (ROI): 83293300
Number of LQ_ADDED: 1766234335
Number of LQ_ADDED (ROI): 1766234335
Number of Instructions read from trace: 600000257

ChampSim completed all CPUs

Region of Interest Statistics

CPU 0 cumulative IPC: 0.619766 instructions: 500000002 cycles: 806755718
ITLB TOTAL     ACCESS:   94643441  HIT:   94643403  MISS:         38
ITLB LOAD      ACCESS:   94643441  HIT:   94643403  MISS:         38
ITLB RFO       ACCESS:          0  HIT:          0  MISS:          0
ITLB PREFETCH  ACCESS:          0  HIT:          0  MISS:          0
ITLB WRITEBACK ACCESS:          0  HIT:          0  MISS:          0
ITLB PREFETCH  REQUESTED:          0  ISSUED:          0  USEFUL:          0  USELESS:          0
ITLB TOTAL MSHR MERGED:         93
ITLB LOAD MSHR MERGED:         93
ITLB RFO MSHR MERGED:          0
ITLB PREFETCH MSHR MERGED:          0
ITLB WRITEBACK MSHR MERGED:          0
ITLB TOTAL ACCESSES:   94643534 HITS:   94643403 MISSES:        131
ITLB LOAD ACCESSES:   94643534 HITS:   94643403 MISSES:        131
ITLB RFO ACCESSES:          0 HITS:          0 MISSES:          0
ITLB PREFETCH ACCESSES:          0 HITS:          0 MISSES:          0
ITLB WRITEBACK ACCESSES:          0 HITS:          0 MISSES:          0
ITLB RQ ACCESS:  500000001
ITLB RQ TO_CACHE:   94643535
ITLB RQ MERGED:  405356466
ITLB RQ FORWARD:          0
ITLB WQ ACCESS:          0
ITLB WQ TO_CACHE:          0
ITLB WQ MERGED:          0
ITLB WQ FORWARD:          0
DTLB TOTAL     ACCESS:  149172943  HIT:  148575982  MISS:     596961
DTLB LOAD      ACCESS:  107299215  HIT:  106702265  MISS:     596950
DTLB RFO       ACCESS:   41873728  HIT:   41873717  MISS:         11
DTLB PREFETCH  ACCESS:          0  HIT:          0  MISS:          0
DTLB WRITEBACK ACCESS:          0  HIT:          0  MISS:          0
DTLB PREFETCH  REQUESTED:          0  ISSUED:          0  USEFUL:          0  USELESS:          0
DTLB TOTAL MSHR MERGED:     134170
DTLB LOAD MSHR MERGED:     134170
DTLB RFO MSHR MERGED:          0
DTLB PREFETCH MSHR MERGED:          0
DTLB WRITEBACK MSHR MERGED:          0
DTLB TOTAL ACCESSES:  149307113 HITS:  148575982 MISSES:     731131
DTLB LOAD ACCESSES:  107433385 HITS:  106702265 MISSES:     731120
DTLB RFO ACCESSES:   41873728 HITS:   41873717 MISSES:         11
DTLB PREFETCH ACCESSES:          0 HITS:          0 MISSES:          0
DTLB WRITEBACK ACCESSES:          0 HITS:          0 MISSES:          0
DTLB RQ ACCESS:  259760409
DTLB RQ TO_CACHE:  149307113
DTLB RQ MERGED:  110453296
DTLB RQ FORWARD:          0
DTLB WQ ACCESS:          0
DTLB WQ TO_CACHE:          0
DTLB WQ MERGED:          0
DTLB WQ FORWARD:          0
L1D TOTAL     ACCESS:  261015879  HIT:  245618773  MISS:   15397106
L1D LOAD      ACCESS:  118068748  HIT:  112564063  MISS:    5504685
L1D RFO       ACCESS:   68946811  HIT:   68932405  MISS:      14406
L1D PREFETCH  ACCESS:   74000320  HIT:   64122305  MISS:    9878015
L1D WRITEBACK ACCESS:          0  HIT:          0  MISS:          0
L1D PREFETCH  REQUESTED:  120655955  ISSUED:  119080120  USEFUL:    8007787  USELESS:    1870250
L1D TOTAL MSHR MERGED:   16527001
L1D LOAD MSHR MERGED:    5002082
L1D RFO MSHR MERGED:      21766
L1D PREFETCH MSHR MERGED:   11503153
L1D WRITEBACK MSHR MERGED:          0
L1D TOTAL ACCESSES:  277653165 HITS:  245729058 MISSES:   31924107
L1D LOAD ACCESSES:  120663464 HITS:  112571572 MISSES:    8091892
L1D RFO ACCESSES:   68968576 HITS:   68932405 MISSES:      36171
L1D PREFETCH ACCESSES:   88021125 HITS:   64225081 MISSES:   23796044
L1D WRITEBACK ACCESSES:          0 HITS:          0 MISSES:          0
L1D RQ ACCESS:  190686093
L1D RQ TO_CACHE:  120655955
L1D RQ MERGED:   70022629
L1D RQ FORWARD:          0
L1D WQ ACCESS:   69074336
L1D WQ TO_CACHE:   68968578
L1D WQ MERGED:     105758
L1D WQ FORWARD:     110285
L1I TOTAL     ACCESS:  121558737  HIT:  121557664  MISS:       1073
L1I LOAD      ACCESS:  121558737  HIT:  121557664  MISS:       1073
L1I RFO       ACCESS:          0  HIT:          0  MISS:          0
L1I PREFETCH  ACCESS:          0  HIT:          0  MISS:          0
L1I WRITEBACK ACCESS:          0  HIT:          0  MISS:          0
L1I PREFETCH  REQUESTED:          0  ISSUED:          0  USEFUL:          0  USELESS:          0
L1I TOTAL MSHR MERGED:       1092
L1I LOAD MSHR MERGED:       1092
L1I RFO MSHR MERGED:          0
L1I PREFETCH MSHR MERGED:          0
L1I WRITEBACK MSHR MERGED:          0
L1I TOTAL ACCESSES:  121559829 HITS:  121557664 MISSES:       2165
L1I LOAD ACCESSES:  121559829 HITS:  121557664 MISSES:       2165
L1I RFO ACCESSES:          0 HITS:          0 MISSES:          0
L1I PREFETCH ACCESSES:          0 HITS:          0 MISSES:          0
L1I WRITEBACK ACCESSES:          0 HITS:          0 MISSES:          0
L1I RQ ACCESS:  500000000
L1I RQ TO_CACHE:  121559829
L1I RQ MERGED:  378440171
L1I RQ FORWARD:          0
L1I WQ ACCESS:          0
L1I WQ TO_CACHE:          0
L1I WQ MERGED:          0
L1I WQ FORWARD:          0
L2C TOTAL     ACCESS:   22470657  HIT:    9152378  MISS:   13318279
L2C LOAD      ACCESS:    3090849  HIT:     417298  MISS:    2673551
L2C RFO       ACCESS:      14405  HIT:      13991  MISS:        414
L2C PREFETCH  ACCESS:   12735485  HIT:    2092969  MISS:   10642516
L2C WRITEBACK ACCESS:    6629918  HIT:    6628120  MISS:       1798
L2C PREFETCH  REQUESTED:     695159  ISSUED:     695159  USEFUL:     186673  USELESS:   10456639
L2C TOTAL MSHR MERGED:      71567
L2C LOAD MSHR MERGED:      22416
L2C RFO MSHR MERGED:          0
L2C PREFETCH MSHR MERGED:      49151
L2C WRITEBACK MSHR MERGED:          0
L2C TOTAL ACCESSES:   22683196 HITS:    9152423 MISSES:   13530773
L2C LOAD ACCESSES:    3090883 HITS:     417332 MISSES:    2673551
L2C RFO ACCESSES:      14405 HITS:      13991 MISSES:        414
L2C PREFETCH ACCESSES:   12947990 HITS:    2092980 MISSES:   10855010
L2C WRITEBACK ACCESSES:    6629918 HITS:    6628120 MISSES:       1798
L2C RQ ACCESS:    3105288
L2C RQ TO_CACHE:    3105254
L2C RQ MERGED:          0
L2C RQ FORWARD:          0
L2C WQ ACCESS:    6629918
L2C WQ TO_CACHE:    6629918
L2C WQ MERGED:          0
L2C WQ FORWARD:         45
LLC TOTAL     ACCESS:   20025904  HIT:    1986492  MISS:   18039412
LLC LOAD      ACCESS:    2651135  HIT:     432296  MISS:    2218839
LLC RFO       ACCESS:        414  HIT:         20  MISS:        394
LLC PREFETCH  ACCESS:   10783122  HIT:     118528  MISS:   10664594
LLC WRITEBACK ACCESS:    6591233  HIT:    1435648  MISS:    5155585
LLC PREFETCH  REQUESTED:          0  ISSUED:          0  USEFUL:      45563  USELESS:   10620175
LLC TOTAL MSHR MERGED:      21342
LLC LOAD MSHR MERGED:       9857
LLC RFO MSHR MERGED:          0
LLC PREFETCH MSHR MERGED:      11485
LLC WRITEBACK MSHR MERGED:          0
LLC TOTAL ACCESSES:   20047248 HITS:    1986493 MISSES:   18060755
LLC LOAD ACCESSES:    2651135 HITS:     432296 MISSES:    2218839
LLC RFO ACCESSES:        414 HITS:         20 MISSES:        394
LLC PREFETCH ACCESSES:   10804466 HITS:     118529 MISSES:   10685937
LLC WRITEBACK ACCESSES:    6591233 HITS:    1435648 MISSES:    5155585
LLC 0 RQ ACCESS:    2651549
LLC 0 RQ TO_CACHE:    2651549
LLC 0 RQ MERGED:          0
LLC 0 RQ FORWARD:          0
LLC WQ ACCESS:    6591234
LLC WQ TO_CACHE:    6591234
LLC WQ MERGED:          0
LLC WQ FORWARD:          1
Major fault: 0 Minor fault: 183991
CPU 0 L1D next line prefetcher final stats
CPU 0 L2C PC-based stride prefetcher final stats
All Misses: 20896261
All Hits: 2060689
SD Algo Stats - Switches: 0 SRR-Repls: 2270008 BRR-Repls: 0

DRAM Statistics
 CHANNEL 0
 RQ ROW_BUFFER_HIT:    7163866  ROW_BUFFER_MISS:    5719962
 DBUS_CONGESTED:   11506849
 WQ ROW_BUFFER_HIT:    1421338  ROW_BUFFER_MISS:    5163311  FULL:          0

 AVG_CONGESTED_CYCLE: 13
LOADS RETIRED: 204440772
INSTR RETIRED: 500000000
