
*** ChampSim Multicore Out-of-Order Simulator ***

Warmup Instructions: 100000000
Simulation Instructions: 500000000
Number of CPUs: 1
LLC sets: 2048
LLC ways: 16
Clean RRIP Policies: 2223220222232202 Dirty RRIP Policies: 1203120212031202 PSEL Width: 10 Track Set: 4294967295 PSEL Mask: 1 Demote Mask: 1040100010401000DS Algo: 0Window size: 0
Off-chip DRAM Size: 4096 MB Channels: 1 Width: 64-bit Data Rate: 1600 MT/s

CPU 0 runs /mnt/beegfs/iconst01/spec2017/Cam4.trace.gz
NOT SORTED
TRACE STRING: /mnt/beegfs/iconst01/spec2017/Cam4.trace.gz
SORTED
TRACE STRING: /mnt/beegfs/iconst01/spec2017/Cam4.trace.gz
INITIAL
TRACE STRING: /mnt/beegfs/iconst01/spec2017/Cam4.trace.gz

champsim_seed used: 325

CPU 0 L1D next line prefetcher
CPU 0 L2C IP-based stride prefetcher
Initialize DRRIP state
Assign rand_sets[0]: 454  LLC: 2048
rand_sets[0]: 454
Assign rand_sets[1]: 1662  LLC: 2048
rand_sets[1]: 1662
Assign rand_sets[2]: 1921  LLC: 2048
rand_sets[2]: 1921
Assign rand_sets[3]: 1131  LLC: 2048
rand_sets[3]: 1131
Assign rand_sets[4]: 331  LLC: 2048
rand_sets[4]: 331
Assign rand_sets[5]: 1531  LLC: 2048
rand_sets[5]: 1531
Assign rand_sets[6]: 482  LLC: 2048
rand_sets[6]: 482
Assign rand_sets[7]: 1275  LLC: 2048
rand_sets[7]: 1275
Assign rand_sets[8]: 1876  LLC: 2048
rand_sets[8]: 1876
Assign rand_sets[9]: 2038  LLC: 2048
rand_sets[9]: 2038
Assign rand_sets[10]: 701  LLC: 2048
rand_sets[10]: 701
Assign rand_sets[11]: 479  LLC: 2048
rand_sets[11]: 479
Assign rand_sets[12]: 892  LLC: 2048
rand_sets[12]: 892
Assign rand_sets[13]: 1820  LLC: 2048
rand_sets[13]: 1820
Assign rand_sets[14]: 1505  LLC: 2048
rand_sets[14]: 1505
Assign rand_sets[15]: 1159  LLC: 2048
rand_sets[15]: 1159
Assign rand_sets[16]: 513  LLC: 2048
rand_sets[16]: 513
Assign rand_sets[17]: 703  LLC: 2048
rand_sets[17]: 703
Assign rand_sets[18]: 561  LLC: 2048
rand_sets[18]: 561
Assign rand_sets[19]: 990  LLC: 2048
rand_sets[19]: 990
Assign rand_sets[20]: 342  LLC: 2048
rand_sets[20]: 342
Assign rand_sets[21]: 882  LLC: 2048
rand_sets[21]: 882
Assign rand_sets[22]: 15  LLC: 2048
rand_sets[22]: 15
Assign rand_sets[23]: 71  LLC: 2048
rand_sets[23]: 71
Assign rand_sets[24]: 1127  LLC: 2048
rand_sets[24]: 1127
Assign rand_sets[25]: 1382  LLC: 2048
rand_sets[25]: 1382
Assign rand_sets[26]: 647  LLC: 2048
rand_sets[26]: 647
Assign rand_sets[27]: 857  LLC: 2048
rand_sets[27]: 857
Assign rand_sets[28]: 1450  LLC: 2048
rand_sets[28]: 1450
Assign rand_sets[29]: 1160  LLC: 2048
rand_sets[29]: 1160
Assign rand_sets[30]: 1852  LLC: 2048
rand_sets[30]: 1852
Assign rand_sets[31]: 1881  LLC: 2048
rand_sets[31]: 1881
Assign rand_sets[32]: 1770  LLC: 2048
rand_sets[32]: 1770
Assign rand_sets[33]: 1622  LLC: 2048
rand_sets[33]: 1622
Assign rand_sets[34]: 275  LLC: 2048
rand_sets[34]: 275
Assign rand_sets[35]: 635  LLC: 2048
rand_sets[35]: 635
Assign rand_sets[36]: 466  LLC: 2048
rand_sets[36]: 466
Assign rand_sets[37]: 1413  LLC: 2048
rand_sets[37]: 1413
Assign rand_sets[38]: 417  LLC: 2048
rand_sets[38]: 417
Assign rand_sets[39]: 472  LLC: 2048
rand_sets[39]: 472
Assign rand_sets[40]: 1340  LLC: 2048
rand_sets[40]: 1340
Assign rand_sets[41]: 852  LLC: 2048
rand_sets[41]: 852
Assign rand_sets[42]: 1365  LLC: 2048
rand_sets[42]: 1365
Assign rand_sets[43]: 47  LLC: 2048
rand_sets[43]: 47
Assign rand_sets[44]: 823  LLC: 2048
rand_sets[44]: 823
Assign rand_sets[45]: 686  LLC: 2048
rand_sets[45]: 686
Assign rand_sets[46]: 1637  LLC: 2048
rand_sets[46]: 1637
Assign rand_sets[47]: 1115  LLC: 2048
rand_sets[47]: 1115
Assign rand_sets[48]: 986  LLC: 2048
rand_sets[48]: 986
Assign rand_sets[49]: 258  LLC: 2048
rand_sets[49]: 258
Assign rand_sets[50]: 633  LLC: 2048
rand_sets[50]: 633
Assign rand_sets[51]: 920  LLC: 2048
rand_sets[51]: 920
Assign rand_sets[52]: 204  LLC: 2048
rand_sets[52]: 204
Assign rand_sets[53]: 227  LLC: 2048
rand_sets[53]: 227
Assign rand_sets[54]: 1818  LLC: 2048
rand_sets[54]: 1818
Assign rand_sets[55]: 886  LLC: 2048
rand_sets[55]: 886
Assign rand_sets[56]: 1422  LLC: 2048
rand_sets[56]: 1422
Assign rand_sets[57]: 607  LLC: 2048
rand_sets[57]: 607
Assign rand_sets[58]: 217  LLC: 2048
rand_sets[58]: 217
Assign rand_sets[59]: 1945  LLC: 2048
rand_sets[59]: 1945
Assign rand_sets[60]: 143  LLC: 2048
rand_sets[60]: 143
Assign rand_sets[61]: 1311  LLC: 2048
rand_sets[61]: 1311
Assign rand_sets[62]: 319  LLC: 2048
rand_sets[62]: 319
Assign rand_sets[63]: 1846  LLC: 2048
rand_sets[63]: 1846
 CLEAN-RRIP-POLICY-1: 2-2-2-3-2-2-0-2- CLEAN-RRIP-POLICY-2: 2-2-2-3-2-2-0-2-
 DIRTY-RRIP-POLICY-1: 1-2-0-3-1-2-0-2- DIRTY-RRIP-POLICY-2: 1-2-0-3-1-2-0-2-
 PSEL width: 10
Heartbeat CPU 0 instructions: 10000000 cycles: 4859184 heartbeat IPC: 2.05796 cumulative IPC: 2.05796 (Simulation time: 0 hr 0 min 16 sec) 
Heartbeat CPU 0 instructions: 20000000 cycles: 9790786 heartbeat IPC: 2.02774 cumulative IPC: 2.04274 (Simulation time: 0 hr 0 min 33 sec) 
Heartbeat CPU 0 instructions: 30000001 cycles: 14562957 heartbeat IPC: 2.09548 cumulative IPC: 2.06002 (Simulation time: 0 hr 0 min 47 sec) 
Heartbeat CPU 0 instructions: 40000000 cycles: 19399956 heartbeat IPC: 2.0674 cumulative IPC: 2.06186 (Simulation time: 0 hr 1 min 4 sec) 
Heartbeat CPU 0 instructions: 50000000 cycles: 24256457 heartbeat IPC: 2.0591 cumulative IPC: 2.06131 (Simulation time: 0 hr 1 min 21 sec) 
Heartbeat CPU 0 instructions: 60000000 cycles: 29181867 heartbeat IPC: 2.03029 cumulative IPC: 2.05607 (Simulation time: 0 hr 1 min 38 sec) 
Heartbeat CPU 0 instructions: 70000001 cycles: 33956916 heartbeat IPC: 2.09422 cumulative IPC: 2.06144 (Simulation time: 0 hr 1 min 52 sec) 
Heartbeat CPU 0 instructions: 80000000 cycles: 38793157 heartbeat IPC: 2.06772 cumulative IPC: 2.06222 (Simulation time: 0 hr 2 min 9 sec) 
Heartbeat CPU 0 instructions: 90000002 cycles: 43647178 heartbeat IPC: 2.06015 cumulative IPC: 2.06199 (Simulation time: 0 hr 2 min 26 sec) 
Heartbeat CPU 0 instructions: 100000000 cycles: 48565977 heartbeat IPC: 2.03302 cumulative IPC: 2.05905 (Simulation time: 0 hr 2 min 43 sec) 

Warmup complete CPU 0 instructions: 100000001 cycles: 48565978 (Simulation time: 0 hr 2 min 43 sec) 

Heartbeat CPU 0 instructions: 110000000 cycles: 61651994 heartbeat IPC: 0.764174 cumulative IPC: 0.764174 (Simulation time: 0 hr 3 min 5 sec) 
Heartbeat CPU 0 instructions: 120000000 cycles: 75402976 heartbeat IPC: 0.727221 cumulative IPC: 0.74524 (Simulation time: 0 hr 3 min 30 sec) 
Heartbeat CPU 0 instructions: 130000000 cycles: 89146775 heartbeat IPC: 0.727601 cumulative IPC: 0.739266 (Simulation time: 0 hr 3 min 55 sec) 
Heartbeat CPU 0 instructions: 140000000 cycles: 103411173 heartbeat IPC: 0.701046 cumulative IPC: 0.729325 (Simulation time: 0 hr 4 min 20 sec) 
Heartbeat CPU 0 instructions: 150000003 cycles: 116583292 heartbeat IPC: 0.75918 cumulative IPC: 0.735107 (Simulation time: 0 hr 4 min 42 sec) 
Heartbeat CPU 0 instructions: 160000000 cycles: 130333841 heartbeat IPC: 0.727243 cumulative IPC: 0.733785 (Simulation time: 0 hr 5 min 7 sec) 
Heartbeat CPU 0 instructions: 170000001 cycles: 144112276 heartbeat IPC: 0.725772 cumulative IPC: 0.732629 (Simulation time: 0 hr 5 min 32 sec) 
Heartbeat CPU 0 instructions: 180000000 cycles: 158360934 heartbeat IPC: 0.70182 cumulative IPC: 0.728631 (Simulation time: 0 hr 5 min 57 sec) 
Heartbeat CPU 0 instructions: 190000003 cycles: 171490900 heartbeat IPC: 0.761617 cumulative IPC: 0.732154 (Simulation time: 0 hr 6 min 20 sec) 
Heartbeat CPU 0 instructions: 200000000 cycles: 185238700 heartbeat IPC: 0.727389 cumulative IPC: 0.731675 (Simulation time: 0 hr 6 min 45 sec) 
Heartbeat CPU 0 instructions: 210000002 cycles: 199019596 heartbeat IPC: 0.725642 cumulative IPC: 0.731122 (Simulation time: 0 hr 7 min 10 sec) 
Heartbeat CPU 0 instructions: 220000000 cycles: 213267310 heartbeat IPC: 0.701867 cumulative IPC: 0.728592 (Simulation time: 0 hr 7 min 35 sec) 
Heartbeat CPU 0 instructions: 230000001 cycles: 226336417 heartbeat IPC: 0.765163 cumulative IPC: 0.73128 (Simulation time: 0 hr 7 min 57 sec) 
Heartbeat CPU 0 instructions: 240000000 cycles: 240077412 heartbeat IPC: 0.727749 cumulative IPC: 0.731027 (Simulation time: 0 hr 8 min 22 sec) 
Heartbeat CPU 0 instructions: 250000001 cycles: 253806112 heartbeat IPC: 0.728401 cumulative IPC: 0.730851 (Simulation time: 0 hr 8 min 47 sec) 
Heartbeat CPU 0 instructions: 260000000 cycles: 267947861 heartbeat IPC: 0.707126 cumulative IPC: 0.729322 (Simulation time: 0 hr 9 min 12 sec) 
Heartbeat CPU 0 instructions: 270000003 cycles: 281132531 heartbeat IPC: 0.758457 cumulative IPC: 0.730974 (Simulation time: 0 hr 9 min 35 sec) 
Heartbeat CPU 0 instructions: 280000000 cycles: 294889568 heartbeat IPC: 0.726901 cumulative IPC: 0.730746 (Simulation time: 0 hr 9 min 59 sec) 
Heartbeat CPU 0 instructions: 290000001 cycles: 308663791 heartbeat IPC: 0.725994 cumulative IPC: 0.730494 (Simulation time: 0 hr 10 min 24 sec) 
Heartbeat CPU 0 instructions: 300000000 cycles: 322750284 heartbeat IPC: 0.7099 cumulative IPC: 0.729436 (Simulation time: 0 hr 10 min 49 sec) 
Heartbeat CPU 0 instructions: 310000000 cycles: 335954269 heartbeat IPC: 0.757347 cumulative IPC: 0.730719 (Simulation time: 0 hr 11 min 12 sec) 
Heartbeat CPU 0 instructions: 320000000 cycles: 349752476 heartbeat IPC: 0.724732 cumulative IPC: 0.730444 (Simulation time: 0 hr 11 min 37 sec) 
Heartbeat CPU 0 instructions: 330000000 cycles: 363543034 heartbeat IPC: 0.725134 cumulative IPC: 0.730212 (Simulation time: 0 hr 12 min 1 sec) 
Heartbeat CPU 0 instructions: 340000000 cycles: 377601979 heartbeat IPC: 0.711291 cumulative IPC: 0.729403 (Simulation time: 0 hr 12 min 26 sec) 
Heartbeat CPU 0 instructions: 350000000 cycles: 390826278 heartbeat IPC: 0.756184 cumulative IPC: 0.730438 (Simulation time: 0 hr 12 min 48 sec) 
Heartbeat CPU 0 instructions: 360000000 cycles: 404652249 heartbeat IPC: 0.723276 cumulative IPC: 0.73016 (Simulation time: 0 hr 13 min 12 sec) 
Heartbeat CPU 0 instructions: 370000003 cycles: 418445675 heartbeat IPC: 0.724983 cumulative IPC: 0.729967 (Simulation time: 0 hr 13 min 37 sec) 
Heartbeat CPU 0 instructions: 380000000 cycles: 432472702 heartbeat IPC: 0.712909 cumulative IPC: 0.729344 (Simulation time: 0 hr 14 min 1 sec) 
Heartbeat CPU 0 instructions: 390000003 cycles: 445713548 heartbeat IPC: 0.755239 cumulative IPC: 0.730207 (Simulation time: 0 hr 14 min 23 sec) 
Heartbeat CPU 0 instructions: 400000000 cycles: 459532728 heartbeat IPC: 0.723632 cumulative IPC: 0.729986 (Simulation time: 0 hr 14 min 48 sec) 
Heartbeat CPU 0 instructions: 410000000 cycles: 473294593 heartbeat IPC: 0.726646 cumulative IPC: 0.729878 (Simulation time: 0 hr 15 min 12 sec) 
Heartbeat CPU 0 instructions: 420000000 cycles: 487307056 heartbeat IPC: 0.71365 cumulative IPC: 0.72936 (Simulation time: 0 hr 15 min 37 sec) 
Heartbeat CPU 0 instructions: 430000003 cycles: 500560959 heartbeat IPC: 0.754495 cumulative IPC: 0.730097 (Simulation time: 0 hr 15 min 59 sec) 
Heartbeat CPU 0 instructions: 440000000 cycles: 514380780 heartbeat IPC: 0.723598 cumulative IPC: 0.729904 (Simulation time: 0 hr 16 min 23 sec) 
Heartbeat CPU 0 instructions: 450000000 cycles: 528162947 heartbeat IPC: 0.725575 cumulative IPC: 0.729779 (Simulation time: 0 hr 16 min 47 sec) 
Heartbeat CPU 0 instructions: 460000000 cycles: 542159797 heartbeat IPC: 0.714446 cumulative IPC: 0.729345 (Simulation time: 0 hr 17 min 11 sec) 
Heartbeat CPU 0 instructions: 470000001 cycles: 555401202 heartbeat IPC: 0.755207 cumulative IPC: 0.73002 (Simulation time: 0 hr 17 min 33 sec) 
Heartbeat CPU 0 instructions: 480000000 cycles: 569193041 heartbeat IPC: 0.725066 cumulative IPC: 0.729889 (Simulation time: 0 hr 17 min 57 sec) 
Heartbeat CPU 0 instructions: 490000002 cycles: 582949728 heartbeat IPC: 0.726919 cumulative IPC: 0.729813 (Simulation time: 0 hr 18 min 21 sec) 
Heartbeat CPU 0 instructions: 500000000 cycles: 596943274 heartbeat IPC: 0.714615 cumulative IPC: 0.729425 (Simulation time: 0 hr 18 min 45 sec) 
Heartbeat CPU 0 instructions: 510000002 cycles: 610231107 heartbeat IPC: 0.752568 cumulative IPC: 0.729972 (Simulation time: 0 hr 19 min 7 sec) 
Heartbeat CPU 0 instructions: 520000000 cycles: 624010812 heartbeat IPC: 0.725705 cumulative IPC: 0.72987 (Simulation time: 0 hr 19 min 31 sec) 
Heartbeat CPU 0 instructions: 530000003 cycles: 637749367 heartbeat IPC: 0.727879 cumulative IPC: 0.729824 (Simulation time: 0 hr 19 min 55 sec) 
Heartbeat CPU 0 instructions: 540000000 cycles: 651763016 heartbeat IPC: 0.71359 cumulative IPC: 0.729447 (Simulation time: 0 hr 20 min 19 sec) 
Heartbeat CPU 0 instructions: 550000003 cycles: 665042508 heartbeat IPC: 0.753041 cumulative IPC: 0.729955 (Simulation time: 0 hr 20 min 41 sec) 
Heartbeat CPU 0 instructions: 560000000 cycles: 678803507 heartbeat IPC: 0.726691 cumulative IPC: 0.729884 (Simulation time: 0 hr 21 min 5 sec) 
Heartbeat CPU 0 instructions: 570000001 cycles: 692567679 heartbeat IPC: 0.726524 cumulative IPC: 0.729812 (Simulation time: 0 hr 21 min 29 sec) 
Heartbeat CPU 0 instructions: 580000000 cycles: 706605513 heartbeat IPC: 0.712361 cumulative IPC: 0.729439 (Simulation time: 0 hr 21 min 53 sec) 
Heartbeat CPU 0 instructions: 590000000 cycles: 719828236 heartbeat IPC: 0.756274 cumulative IPC: 0.729968 (Simulation time: 0 hr 22 min 15 sec) 
Heartbeat CPU 0 instructions: 600000000 cycles: 733593255 heartbeat IPC: 0.726479 cumulative IPC: 0.729898 (Simulation time: 0 hr 22 min 39 sec) 
Finished CPU 0 instructions: 500000001 cycles: 685027285 cumulative IPC: 0.729898 (Simulation time: 0 hr 22 min 39 sec) 

CPU 0 Branch Prediction Accuracy: 97.5275% MPKI: 2.1997
Number of Branches: 44482865 Number of Mispredictions: 1099852
Number of LOAD Instructions: 144955155
Number of LOAD Instructions (ROI): 144955155
Number of STORE Instructions: 55921098
Number of STORE Instructions (ROI): 55921098
Total Destination Memory Operands: 57111147
Total Destination Memory Operands (ROI): 57111147
Total Source Memory Operands: 144955155
Total Source Memory Operands (ROI): 144955155
Number of DEPENDED LOADS: 13454885
Number of DEPENDED LOADS (ROI): 13454885
Number of SQ_ADDED: 57111126
Number of SQ_ADDED (ROI): 57111126
Number of LQ_ADDED: 174182999
Number of LQ_ADDED (ROI): 174182999
Number of Instructions read from trace: 600000256

ChampSim completed all CPUs

Region of Interest Statistics

CPU 0 cumulative IPC: 0.729898 instructions: 500000001 cycles: 685027285
ITLB TOTAL     ACCESS:  136066271  HIT:  136063718  MISS:       2553
ITLB LOAD      ACCESS:  136066271  HIT:  136063718  MISS:       2553
ITLB RFO       ACCESS:          0  HIT:          0  MISS:          0
ITLB PREFETCH  ACCESS:          0  HIT:          0  MISS:          0
ITLB WRITEBACK ACCESS:          0  HIT:          0  MISS:          0
ITLB PREFETCH  REQUESTED:          0  ISSUED:          0  USEFUL:          0  USELESS:          0
ITLB TOTAL MSHR MERGED:       4357
ITLB LOAD MSHR MERGED:       4357
ITLB RFO MSHR MERGED:          0
ITLB PREFETCH MSHR MERGED:          0
ITLB WRITEBACK MSHR MERGED:          0
ITLB TOTAL ACCESSES:  136070628 HITS:  136063718 MISSES:       6910
ITLB LOAD ACCESSES:  136070628 HITS:  136063718 MISSES:       6910
ITLB RFO ACCESSES:          0 HITS:          0 MISSES:          0
ITLB PREFETCH ACCESSES:          0 HITS:          0 MISSES:          0
ITLB WRITEBACK ACCESSES:          0 HITS:          0 MISSES:          0
ITLB RQ ACCESS:  500000202
ITLB RQ TO_CACHE:  136070628
ITLB RQ MERGED:  363929574
ITLB RQ FORWARD:          0
ITLB WQ ACCESS:          0
ITLB WQ TO_CACHE:          0
ITLB WQ MERGED:          0
ITLB WQ FORWARD:          0
DTLB TOTAL     ACCESS:  111550867  HIT:  111414675  MISS:     136192
DTLB LOAD      ACCESS:   78951512  HIT:   78825888  MISS:     125624
DTLB RFO       ACCESS:   32599355  HIT:   32588787  MISS:      10568
DTLB PREFETCH  ACCESS:          0  HIT:          0  MISS:          0
DTLB WRITEBACK ACCESS:          0  HIT:          0  MISS:          0
DTLB PREFETCH  REQUESTED:          0  ISSUED:          0  USEFUL:          0  USELESS:          0
DTLB TOTAL MSHR MERGED:      63756
DTLB LOAD MSHR MERGED:      50935
DTLB RFO MSHR MERGED:      12821
DTLB PREFETCH MSHR MERGED:          0
DTLB WRITEBACK MSHR MERGED:          0
DTLB TOTAL ACCESSES:  111614623 HITS:  111414675 MISSES:     199948
DTLB LOAD ACCESSES:   79002447 HITS:   78825888 MISSES:     176559
DTLB RFO ACCESSES:   32612176 HITS:   32588787 MISSES:      23389
DTLB PREFETCH ACCESSES:          0 HITS:          0 MISSES:          0
DTLB WRITEBACK ACCESSES:          0 HITS:          0 MISSES:          0
DTLB RQ ACCESS:  157180551
DTLB RQ TO_CACHE:  111614623
DTLB RQ MERGED:   45565928
DTLB RQ FORWARD:          0
DTLB WQ ACCESS:          0
DTLB WQ TO_CACHE:          0
DTLB WQ MERGED:          0
DTLB WQ FORWARD:          0
L1D TOTAL     ACCESS:  198250168  HIT:  188409104  MISS:    9841064
L1D LOAD      ACCESS:   79951213  HIT:   75689169  MISS:    4262044
L1D RFO       ACCESS:   44545642  HIT:   43645367  MISS:     900275
L1D PREFETCH  ACCESS:   73753313  HIT:   69074568  MISS:    4678745
L1D WRITEBACK ACCESS:          0  HIT:          0  MISS:          0
L1D PREFETCH  REQUESTED:   80347266  ISSUED:   79891641  USEFUL:    1820425  USELESS:    2858229
L1D TOTAL MSHR MERGED:    2481000
L1D LOAD MSHR MERGED:     519631
L1D RFO MSHR MERGED:    1407026
L1D PREFETCH MSHR MERGED:     554343
L1D WRITEBACK MSHR MERGED:          0
L1D TOTAL ACCESSES:  200752382 HITS:  188430318 MISSES:   12322064
L1D LOAD ACCESSES:   80359837 HITS:   75701740 MISSES:    4658097
L1D RFO ACCESSES:   45949752 HITS:   43645367 MISSES:    2304385
L1D PREFETCH ACCESSES:   74442793 HITS:   69083211 MISSES:    5359582
L1D WRITEBACK ACCESSES:          0 HITS:          0 MISSES:          0
L1D RQ ACCESS:  109538581
L1D RQ TO_CACHE:   80347266
L1D RQ MERGED:   29178744
L1D RQ FORWARD:          0
L1D WQ ACCESS:   47641970
L1D WQ TO_CACHE:   45949752
L1D WQ MERGED:    1692218
L1D WQ FORWARD:      21214
L1I TOTAL     ACCESS:  161536737  HIT:  161272765  MISS:     263972
L1I LOAD      ACCESS:  161536737  HIT:  161272765  MISS:     263972
L1I RFO       ACCESS:          0  HIT:          0  MISS:          0
L1I PREFETCH  ACCESS:          0  HIT:          0  MISS:          0
L1I WRITEBACK ACCESS:          0  HIT:          0  MISS:          0
L1I PREFETCH  REQUESTED:          0  ISSUED:          0  USEFUL:          0  USELESS:          0
L1I TOTAL MSHR MERGED:     261228
L1I LOAD MSHR MERGED:     261228
L1I RFO MSHR MERGED:          0
L1I PREFETCH MSHR MERGED:          0
L1I WRITEBACK MSHR MERGED:          0
L1I TOTAL ACCESSES:  161797965 HITS:  161272765 MISSES:     525200
L1I LOAD ACCESSES:  161797965 HITS:  161272765 MISSES:     525200
L1I RFO ACCESSES:          0 HITS:          0 MISSES:          0
L1I PREFETCH ACCESSES:          0 HITS:          0 MISSES:          0
L1I WRITEBACK ACCESSES:          0 HITS:          0 MISSES:          0
L1I RQ ACCESS:  500000202
L1I RQ TO_CACHE:  161797965
L1I RQ MERGED:  338202237
L1I RQ FORWARD:          0
L1I WQ ACCESS:          0
L1I WQ TO_CACHE:          0
L1I WQ MERGED:          0
L1I WQ FORWARD:          0
L2C TOTAL     ACCESS:   11771675  HIT:   10382378  MISS:    1389297
L2C LOAD      ACCESS:    4402373  HIT:    3905730  MISS:     496643
L2C RFO       ACCESS:     897294  HIT:     536269  MISS:     361025
L2C PREFETCH  ACCESS:    5284445  HIT:    4755762  MISS:     528683
L2C WRITEBACK ACCESS:    1187563  HIT:    1184617  MISS:       2946
L2C PREFETCH  REQUESTED:     504706  ISSUED:     504706  USEFUL:     114897  USELESS:     413978
L2C TOTAL MSHR MERGED:       2110
L2C LOAD MSHR MERGED:        420
L2C RFO MSHR MERGED:          0
L2C PREFETCH MSHR MERGED:       1690
L2C WRITEBACK MSHR MERGED:          0
L2C TOTAL ACCESSES:   11776572 HITS:   10382598 MISSES:    1393974
L2C LOAD ACCESSES:    4402438 HITS:    3905795 MISSES:     496643
L2C RFO ACCESSES:     897359 HITS:     536334 MISSES:     361025
L2C PREFETCH ACCESSES:    5289212 HITS:    4755852 MISSES:     533360
L2C WRITEBACK ACCESSES:    1187563 HITS:    1184617 MISSES:       2946
L2C RQ ACCESS:    5299797
L2C RQ TO_CACHE:    5299667
L2C RQ MERGED:          0
L2C RQ FORWARD:          0
L2C WQ ACCESS:    1187563
L2C WQ TO_CACHE:    1187563
L2C WQ MERGED:          0
L2C WQ FORWARD:        220
LLC TOTAL     ACCESS:    1849548  HIT:    1252336  MISS:     597212
LLC LOAD      ACCESS:     496221  HIT:     229596  MISS:     266625
LLC RFO       ACCESS:     361021  HIT:     255510  MISS:     105511
LLC PREFETCH  ACCESS:     531576  HIT:     309118  MISS:     222458
LLC WRITEBACK ACCESS:     460730  HIT:     458112  MISS:       2618
LLC PREFETCH  REQUESTED:          0  ISSUED:          0  USEFUL:       3401  USELESS:     219459
LLC TOTAL MSHR MERGED:         63
LLC LOAD MSHR MERGED:         30
LLC RFO MSHR MERGED:          0
LLC PREFETCH MSHR MERGED:         33
LLC WRITEBACK MSHR MERGED:          0
LLC TOTAL ACCESSES:    1849638 HITS:    1252363 MISSES:     597275
LLC LOAD ACCESSES:     496223 HITS:     229598 MISSES:     266625
LLC RFO ACCESSES:     361025 HITS:     255514 MISSES:     105511
LLC PREFETCH ACCESSES:     531660 HITS:     309139 MISSES:     222521
LLC WRITEBACK ACCESSES:     460730 HITS:     458112 MISSES:       2618
LLC 0 RQ ACCESS:     857248
LLC 0 RQ TO_CACHE:     857242
LLC 0 RQ MERGED:          0
LLC 0 RQ FORWARD:          0
LLC WQ ACCESS:     460730
LLC WQ TO_CACHE:     460730
LLC WQ MERGED:          0
LLC WQ FORWARD:         27
Major fault: 0 Minor fault: 3073
CPU 0 L1D next line prefetcher final stats
CPU 0 L2C PC-based stride prefetcher final stats
All Misses: 723969
All Hits: 1452270
SD Algo Stats - Switches: 0 SRR-Repls: 305549 BRR-Repls: 0

DRAM Statistics
 CHANNEL 0
 RQ ROW_BUFFER_HIT:     406926  ROW_BUFFER_MISS:     187470
 DBUS_CONGESTED:     417268
 WQ ROW_BUFFER_HIT:      13819  ROW_BUFFER_MISS:      97578  FULL:          0

 AVG_CONGESTED_CYCLE: 13
LOADS RETIRED: 120673965
INSTR RETIRED: 500000000
