
*** ChampSim Multicore Out-of-Order Simulator ***

Warmup Instructions: 100000000
Simulation Instructions: 500000000
Number of CPUs: 1
LLC sets: 2048
LLC ways: 16
Clean RRIP Policies: 2213230222132302 Dirty RRIP Policies: 1203030212030302 PSEL Width: 10 Track Set: 4294967295 PSEL Mask: 1 Demote Mask: 1040104010401040DS Algo: 0Window size: 0
Off-chip DRAM Size: 4096 MB Channels: 1 Width: 64-bit Data Rate: 1600 MT/s

CPU 0 runs /mnt/beegfs/iconst01/spec2017/Cam4.trace.gz
NOT SORTED
TRACE STRING: /mnt/beegfs/iconst01/spec2017/Cam4.trace.gz
SORTED
TRACE STRING: /mnt/beegfs/iconst01/spec2017/Cam4.trace.gz
INITIAL
TRACE STRING: /mnt/beegfs/iconst01/spec2017/Cam4.trace.gz

champsim_seed used: 325

CPU 0 L1D next line prefetcher
CPU 0 L2C IP-based stride prefetcher
Initialize DRRIP state
Assign rand_sets[0]: 454  LLC: 2048
rand_sets[0]: 454
Assign rand_sets[1]: 1662  LLC: 2048
rand_sets[1]: 1662
Assign rand_sets[2]: 1921  LLC: 2048
rand_sets[2]: 1921
Assign rand_sets[3]: 1131  LLC: 2048
rand_sets[3]: 1131
Assign rand_sets[4]: 331  LLC: 2048
rand_sets[4]: 331
Assign rand_sets[5]: 1531  LLC: 2048
rand_sets[5]: 1531
Assign rand_sets[6]: 482  LLC: 2048
rand_sets[6]: 482
Assign rand_sets[7]: 1275  LLC: 2048
rand_sets[7]: 1275
Assign rand_sets[8]: 1876  LLC: 2048
rand_sets[8]: 1876
Assign rand_sets[9]: 2038  LLC: 2048
rand_sets[9]: 2038
Assign rand_sets[10]: 701  LLC: 2048
rand_sets[10]: 701
Assign rand_sets[11]: 479  LLC: 2048
rand_sets[11]: 479
Assign rand_sets[12]: 892  LLC: 2048
rand_sets[12]: 892
Assign rand_sets[13]: 1820  LLC: 2048
rand_sets[13]: 1820
Assign rand_sets[14]: 1505  LLC: 2048
rand_sets[14]: 1505
Assign rand_sets[15]: 1159  LLC: 2048
rand_sets[15]: 1159
Assign rand_sets[16]: 513  LLC: 2048
rand_sets[16]: 513
Assign rand_sets[17]: 703  LLC: 2048
rand_sets[17]: 703
Assign rand_sets[18]: 561  LLC: 2048
rand_sets[18]: 561
Assign rand_sets[19]: 990  LLC: 2048
rand_sets[19]: 990
Assign rand_sets[20]: 342  LLC: 2048
rand_sets[20]: 342
Assign rand_sets[21]: 882  LLC: 2048
rand_sets[21]: 882
Assign rand_sets[22]: 15  LLC: 2048
rand_sets[22]: 15
Assign rand_sets[23]: 71  LLC: 2048
rand_sets[23]: 71
Assign rand_sets[24]: 1127  LLC: 2048
rand_sets[24]: 1127
Assign rand_sets[25]: 1382  LLC: 2048
rand_sets[25]: 1382
Assign rand_sets[26]: 647  LLC: 2048
rand_sets[26]: 647
Assign rand_sets[27]: 857  LLC: 2048
rand_sets[27]: 857
Assign rand_sets[28]: 1450  LLC: 2048
rand_sets[28]: 1450
Assign rand_sets[29]: 1160  LLC: 2048
rand_sets[29]: 1160
Assign rand_sets[30]: 1852  LLC: 2048
rand_sets[30]: 1852
Assign rand_sets[31]: 1881  LLC: 2048
rand_sets[31]: 1881
Assign rand_sets[32]: 1770  LLC: 2048
rand_sets[32]: 1770
Assign rand_sets[33]: 1622  LLC: 2048
rand_sets[33]: 1622
Assign rand_sets[34]: 275  LLC: 2048
rand_sets[34]: 275
Assign rand_sets[35]: 635  LLC: 2048
rand_sets[35]: 635
Assign rand_sets[36]: 466  LLC: 2048
rand_sets[36]: 466
Assign rand_sets[37]: 1413  LLC: 2048
rand_sets[37]: 1413
Assign rand_sets[38]: 417  LLC: 2048
rand_sets[38]: 417
Assign rand_sets[39]: 472  LLC: 2048
rand_sets[39]: 472
Assign rand_sets[40]: 1340  LLC: 2048
rand_sets[40]: 1340
Assign rand_sets[41]: 852  LLC: 2048
rand_sets[41]: 852
Assign rand_sets[42]: 1365  LLC: 2048
rand_sets[42]: 1365
Assign rand_sets[43]: 47  LLC: 2048
rand_sets[43]: 47
Assign rand_sets[44]: 823  LLC: 2048
rand_sets[44]: 823
Assign rand_sets[45]: 686  LLC: 2048
rand_sets[45]: 686
Assign rand_sets[46]: 1637  LLC: 2048
rand_sets[46]: 1637
Assign rand_sets[47]: 1115  LLC: 2048
rand_sets[47]: 1115
Assign rand_sets[48]: 986  LLC: 2048
rand_sets[48]: 986
Assign rand_sets[49]: 258  LLC: 2048
rand_sets[49]: 258
Assign rand_sets[50]: 633  LLC: 2048
rand_sets[50]: 633
Assign rand_sets[51]: 920  LLC: 2048
rand_sets[51]: 920
Assign rand_sets[52]: 204  LLC: 2048
rand_sets[52]: 204
Assign rand_sets[53]: 227  LLC: 2048
rand_sets[53]: 227
Assign rand_sets[54]: 1818  LLC: 2048
rand_sets[54]: 1818
Assign rand_sets[55]: 886  LLC: 2048
rand_sets[55]: 886
Assign rand_sets[56]: 1422  LLC: 2048
rand_sets[56]: 1422
Assign rand_sets[57]: 607  LLC: 2048
rand_sets[57]: 607
Assign rand_sets[58]: 217  LLC: 2048
rand_sets[58]: 217
Assign rand_sets[59]: 1945  LLC: 2048
rand_sets[59]: 1945
Assign rand_sets[60]: 143  LLC: 2048
rand_sets[60]: 143
Assign rand_sets[61]: 1311  LLC: 2048
rand_sets[61]: 1311
Assign rand_sets[62]: 319  LLC: 2048
rand_sets[62]: 319
Assign rand_sets[63]: 1846  LLC: 2048
rand_sets[63]: 1846
 CLEAN-RRIP-POLICY-1: 2-2-1-3-2-3-0-2- CLEAN-RRIP-POLICY-2: 2-2-1-3-2-3-0-2-
 DIRTY-RRIP-POLICY-1: 1-2-0-3-0-3-0-2- DIRTY-RRIP-POLICY-2: 1-2-0-3-0-3-0-2-
 PSEL width: 10
Heartbeat CPU 0 instructions: 10000000 cycles: 4859184 heartbeat IPC: 2.05796 cumulative IPC: 2.05796 (Simulation time: 0 hr 0 min 17 sec) 
Heartbeat CPU 0 instructions: 20000000 cycles: 9790786 heartbeat IPC: 2.02774 cumulative IPC: 2.04274 (Simulation time: 0 hr 0 min 34 sec) 
Heartbeat CPU 0 instructions: 30000001 cycles: 14562953 heartbeat IPC: 2.09548 cumulative IPC: 2.06002 (Simulation time: 0 hr 0 min 49 sec) 
Heartbeat CPU 0 instructions: 40000000 cycles: 19399976 heartbeat IPC: 2.06739 cumulative IPC: 2.06186 (Simulation time: 0 hr 1 min 6 sec) 
Heartbeat CPU 0 instructions: 50000000 cycles: 24256507 heartbeat IPC: 2.05908 cumulative IPC: 2.0613 (Simulation time: 0 hr 1 min 24 sec) 
Heartbeat CPU 0 instructions: 60000000 cycles: 29181905 heartbeat IPC: 2.03029 cumulative IPC: 2.05607 (Simulation time: 0 hr 1 min 41 sec) 
Heartbeat CPU 0 instructions: 70000001 cycles: 33956886 heartbeat IPC: 2.09425 cumulative IPC: 2.06144 (Simulation time: 0 hr 1 min 56 sec) 
Heartbeat CPU 0 instructions: 80000000 cycles: 38793137 heartbeat IPC: 2.06772 cumulative IPC: 2.06222 (Simulation time: 0 hr 2 min 13 sec) 
Heartbeat CPU 0 instructions: 90000002 cycles: 43647157 heartbeat IPC: 2.06015 cumulative IPC: 2.06199 (Simulation time: 0 hr 2 min 30 sec) 
Heartbeat CPU 0 instructions: 100000000 cycles: 48565917 heartbeat IPC: 2.03303 cumulative IPC: 2.05906 (Simulation time: 0 hr 2 min 47 sec) 

Warmup complete CPU 0 instructions: 100000001 cycles: 48565918 (Simulation time: 0 hr 2 min 47 sec) 

Heartbeat CPU 0 instructions: 110000000 cycles: 61636365 heartbeat IPC: 0.765085 cumulative IPC: 0.765085 (Simulation time: 0 hr 3 min 11 sec) 
Heartbeat CPU 0 instructions: 120000000 cycles: 75379758 heartbeat IPC: 0.727622 cumulative IPC: 0.745883 (Simulation time: 0 hr 3 min 36 sec) 
Heartbeat CPU 0 instructions: 130000000 cycles: 89120967 heartbeat IPC: 0.727738 cumulative IPC: 0.739735 (Simulation time: 0 hr 4 min 2 sec) 
Heartbeat CPU 0 instructions: 140000000 cycles: 103363793 heartbeat IPC: 0.702108 cumulative IPC: 0.729955 (Simulation time: 0 hr 4 min 28 sec) 
Heartbeat CPU 0 instructions: 150000003 cycles: 116512504 heartbeat IPC: 0.760531 cumulative IPC: 0.735872 (Simulation time: 0 hr 4 min 51 sec) 
Heartbeat CPU 0 instructions: 160000000 cycles: 130252851 heartbeat IPC: 0.727783 cumulative IPC: 0.734512 (Simulation time: 0 hr 5 min 17 sec) 
Heartbeat CPU 0 instructions: 170000001 cycles: 144030159 heartbeat IPC: 0.725831 cumulative IPC: 0.733259 (Simulation time: 0 hr 5 min 43 sec) 
Heartbeat CPU 0 instructions: 180000000 cycles: 158255822 heartbeat IPC: 0.702955 cumulative IPC: 0.729329 (Simulation time: 0 hr 6 min 9 sec) 
Heartbeat CPU 0 instructions: 190000003 cycles: 171377285 heartbeat IPC: 0.76211 cumulative IPC: 0.732831 (Simulation time: 0 hr 6 min 32 sec) 
Heartbeat CPU 0 instructions: 200000000 cycles: 185109977 heartbeat IPC: 0.728189 cumulative IPC: 0.732364 (Simulation time: 0 hr 6 min 58 sec) 
Heartbeat CPU 0 instructions: 210000002 cycles: 198883856 heartbeat IPC: 0.726012 cumulative IPC: 0.731782 (Simulation time: 0 hr 7 min 24 sec) 
Heartbeat CPU 0 instructions: 220000000 cycles: 213110342 heartbeat IPC: 0.702914 cumulative IPC: 0.729286 (Simulation time: 0 hr 7 min 50 sec) 
Heartbeat CPU 0 instructions: 230000001 cycles: 226168919 heartbeat IPC: 0.76578 cumulative IPC: 0.73197 (Simulation time: 0 hr 8 min 13 sec) 
Heartbeat CPU 0 instructions: 240000000 cycles: 239889351 heartbeat IPC: 0.72884 cumulative IPC: 0.731745 (Simulation time: 0 hr 8 min 39 sec) 
Heartbeat CPU 0 instructions: 250000001 cycles: 253609718 heartbeat IPC: 0.728844 cumulative IPC: 0.731551 (Simulation time: 0 hr 9 min 4 sec) 
Heartbeat CPU 0 instructions: 260000000 cycles: 267733077 heartbeat IPC: 0.708047 cumulative IPC: 0.730036 (Simulation time: 0 hr 9 min 30 sec) 
Heartbeat CPU 0 instructions: 270000003 cycles: 280908977 heartbeat IPC: 0.758962 cumulative IPC: 0.731677 (Simulation time: 0 hr 9 min 53 sec) 
Heartbeat CPU 0 instructions: 280000000 cycles: 294643391 heartbeat IPC: 0.728098 cumulative IPC: 0.731477 (Simulation time: 0 hr 10 min 19 sec) 
Heartbeat CPU 0 instructions: 290000001 cycles: 308406590 heartbeat IPC: 0.726575 cumulative IPC: 0.731217 (Simulation time: 0 hr 10 min 45 sec) 
Heartbeat CPU 0 instructions: 300000000 cycles: 322481372 heartbeat IPC: 0.710491 cumulative IPC: 0.730152 (Simulation time: 0 hr 11 min 11 sec) 
Heartbeat CPU 0 instructions: 310000000 cycles: 335666016 heartbeat IPC: 0.758458 cumulative IPC: 0.731452 (Simulation time: 0 hr 11 min 34 sec) 
Heartbeat CPU 0 instructions: 320000000 cycles: 349441778 heartbeat IPC: 0.725913 cumulative IPC: 0.731199 (Simulation time: 0 hr 12 min 0 sec) 
Heartbeat CPU 0 instructions: 330000000 cycles: 363222954 heartbeat IPC: 0.725627 cumulative IPC: 0.730955 (Simulation time: 0 hr 12 min 25 sec) 
Heartbeat CPU 0 instructions: 340000000 cycles: 377276067 heartbeat IPC: 0.711586 cumulative IPC: 0.730127 (Simulation time: 0 hr 12 min 51 sec) 
Heartbeat CPU 0 instructions: 350000000 cycles: 390494427 heartbeat IPC: 0.756523 cumulative IPC: 0.731147 (Simulation time: 0 hr 13 min 14 sec) 
Heartbeat CPU 0 instructions: 360000000 cycles: 404302429 heartbeat IPC: 0.724218 cumulative IPC: 0.730878 (Simulation time: 0 hr 13 min 39 sec) 
Heartbeat CPU 0 instructions: 370000003 cycles: 418086031 heartbeat IPC: 0.7255 cumulative IPC: 0.730677 (Simulation time: 0 hr 14 min 4 sec) 
Heartbeat CPU 0 instructions: 380000000 cycles: 432104546 heartbeat IPC: 0.713342 cumulative IPC: 0.730044 (Simulation time: 0 hr 14 min 30 sec) 
Heartbeat CPU 0 instructions: 390000003 cycles: 445326737 heartbeat IPC: 0.756305 cumulative IPC: 0.730919 (Simulation time: 0 hr 14 min 53 sec) 
Heartbeat CPU 0 instructions: 400000000 cycles: 459124587 heartbeat IPC: 0.72475 cumulative IPC: 0.730712 (Simulation time: 0 hr 15 min 18 sec) 
Heartbeat CPU 0 instructions: 410000000 cycles: 472879288 heartbeat IPC: 0.727024 cumulative IPC: 0.730592 (Simulation time: 0 hr 15 min 43 sec) 
Heartbeat CPU 0 instructions: 420000000 cycles: 486885893 heartbeat IPC: 0.713949 cumulative IPC: 0.73006 (Simulation time: 0 hr 16 min 8 sec) 
Heartbeat CPU 0 instructions: 430000003 cycles: 500133433 heartbeat IPC: 0.754857 cumulative IPC: 0.730788 (Simulation time: 0 hr 16 min 31 sec) 
Heartbeat CPU 0 instructions: 440000000 cycles: 513932143 heartbeat IPC: 0.724705 cumulative IPC: 0.730607 (Simulation time: 0 hr 16 min 56 sec) 
Heartbeat CPU 0 instructions: 450000000 cycles: 527706958 heartbeat IPC: 0.725963 cumulative IPC: 0.730474 (Simulation time: 0 hr 17 min 21 sec) 
Heartbeat CPU 0 instructions: 460000000 cycles: 541693895 heartbeat IPC: 0.714953 cumulative IPC: 0.730034 (Simulation time: 0 hr 17 min 46 sec) 
Heartbeat CPU 0 instructions: 470000001 cycles: 554916548 heartbeat IPC: 0.756278 cumulative IPC: 0.730719 (Simulation time: 0 hr 18 min 9 sec) 
Heartbeat CPU 0 instructions: 480000000 cycles: 568691868 heartbeat IPC: 0.725936 cumulative IPC: 0.730592 (Simulation time: 0 hr 18 min 34 sec) 
Heartbeat CPU 0 instructions: 490000002 cycles: 582441109 heartbeat IPC: 0.727313 cumulative IPC: 0.730508 (Simulation time: 0 hr 18 min 59 sec) 
Heartbeat CPU 0 instructions: 500000000 cycles: 596425606 heartbeat IPC: 0.715077 cumulative IPC: 0.730114 (Simulation time: 0 hr 19 min 24 sec) 
Heartbeat CPU 0 instructions: 510000002 cycles: 609698919 heartbeat IPC: 0.753392 cumulative IPC: 0.730665 (Simulation time: 0 hr 19 min 46 sec) 
Heartbeat CPU 0 instructions: 520000000 cycles: 623463143 heartbeat IPC: 0.726521 cumulative IPC: 0.730565 (Simulation time: 0 hr 20 min 11 sec) 
Heartbeat CPU 0 instructions: 530000003 cycles: 637193624 heartbeat IPC: 0.728307 cumulative IPC: 0.730513 (Simulation time: 0 hr 20 min 36 sec) 
Heartbeat CPU 0 instructions: 540000000 cycles: 651200754 heartbeat IPC: 0.713922 cumulative IPC: 0.730127 (Simulation time: 0 hr 21 min 1 sec) 
Heartbeat CPU 0 instructions: 550000003 cycles: 664465386 heartbeat IPC: 0.753885 cumulative IPC: 0.730639 (Simulation time: 0 hr 21 min 23 sec) 
Heartbeat CPU 0 instructions: 560000000 cycles: 678205402 heartbeat IPC: 0.727801 cumulative IPC: 0.730577 (Simulation time: 0 hr 21 min 48 sec) 
Heartbeat CPU 0 instructions: 570000001 cycles: 691964338 heartbeat IPC: 0.7268 cumulative IPC: 0.730496 (Simulation time: 0 hr 22 min 13 sec) 
Heartbeat CPU 0 instructions: 580000000 cycles: 705995867 heartbeat IPC: 0.712681 cumulative IPC: 0.730116 (Simulation time: 0 hr 22 min 38 sec) 
Heartbeat CPU 0 instructions: 590000000 cycles: 719191577 heartbeat IPC: 0.757822 cumulative IPC: 0.730661 (Simulation time: 0 hr 23 min 0 sec) 
Heartbeat CPU 0 instructions: 600000000 cycles: 732939063 heartbeat IPC: 0.727406 cumulative IPC: 0.730596 (Simulation time: 0 hr 23 min 25 sec) 
Finished CPU 0 instructions: 500000001 cycles: 684373153 cumulative IPC: 0.730596 (Simulation time: 0 hr 23 min 25 sec) 

CPU 0 Branch Prediction Accuracy: 97.5275% MPKI: 2.1997
Number of Branches: 44482865 Number of Mispredictions: 1099852
Number of LOAD Instructions: 144955155
Number of LOAD Instructions (ROI): 144955155
Number of STORE Instructions: 55921098
Number of STORE Instructions (ROI): 55921098
Total Destination Memory Operands: 57111147
Total Destination Memory Operands (ROI): 57111147
Total Source Memory Operands: 144955155
Total Source Memory Operands (ROI): 144955155
Number of DEPENDED LOADS: 13454772
Number of DEPENDED LOADS (ROI): 13454772
Number of SQ_ADDED: 57111126
Number of SQ_ADDED (ROI): 57111126
Number of LQ_ADDED: 174214298
Number of LQ_ADDED (ROI): 174214298
Number of Instructions read from trace: 600000256

ChampSim completed all CPUs

Region of Interest Statistics

CPU 0 cumulative IPC: 0.730596 instructions: 500000001 cycles: 684373153
ITLB TOTAL     ACCESS:  136063192  HIT:  136060639  MISS:       2553
ITLB LOAD      ACCESS:  136063192  HIT:  136060639  MISS:       2553
ITLB RFO       ACCESS:          0  HIT:          0  MISS:          0
ITLB PREFETCH  ACCESS:          0  HIT:          0  MISS:          0
ITLB WRITEBACK ACCESS:          0  HIT:          0  MISS:          0
ITLB PREFETCH  REQUESTED:          0  ISSUED:          0  USEFUL:          0  USELESS:          0
ITLB TOTAL MSHR MERGED:       4360
ITLB LOAD MSHR MERGED:       4360
ITLB RFO MSHR MERGED:          0
ITLB PREFETCH MSHR MERGED:          0
ITLB WRITEBACK MSHR MERGED:          0
ITLB TOTAL ACCESSES:  136067552 HITS:  136060639 MISSES:       6913
ITLB LOAD ACCESSES:  136067552 HITS:  136060639 MISSES:       6913
ITLB RFO ACCESSES:          0 HITS:          0 MISSES:          0
ITLB PREFETCH ACCESSES:          0 HITS:          0 MISSES:          0
ITLB WRITEBACK ACCESSES:          0 HITS:          0 MISSES:          0
ITLB RQ ACCESS:  500000202
ITLB RQ TO_CACHE:  136067552
ITLB RQ MERGED:  363932650
ITLB RQ FORWARD:          0
ITLB WQ ACCESS:          0
ITLB WQ TO_CACHE:          0
ITLB WQ MERGED:          0
ITLB WQ FORWARD:          0
DTLB TOTAL     ACCESS:  111546203  HIT:  111410007  MISS:     136196
DTLB LOAD      ACCESS:   78948904  HIT:   78823276  MISS:     125628
DTLB RFO       ACCESS:   32597299  HIT:   32586731  MISS:      10568
DTLB PREFETCH  ACCESS:          0  HIT:          0  MISS:          0
DTLB WRITEBACK ACCESS:          0  HIT:          0  MISS:          0
DTLB PREFETCH  REQUESTED:          0  ISSUED:          0  USEFUL:          0  USELESS:          0
DTLB TOTAL MSHR MERGED:      63582
DTLB LOAD MSHR MERGED:      50978
DTLB RFO MSHR MERGED:      12604
DTLB PREFETCH MSHR MERGED:          0
DTLB WRITEBACK MSHR MERGED:          0
DTLB TOTAL ACCESSES:  111609785 HITS:  111410007 MISSES:     199778
DTLB LOAD ACCESSES:   78999882 HITS:   78823276 MISSES:     176606
DTLB RFO ACCESSES:   32609903 HITS:   32586731 MISSES:      23172
DTLB PREFETCH ACCESSES:          0 HITS:          0 MISSES:          0
DTLB WRITEBACK ACCESSES:          0 HITS:          0 MISSES:          0
DTLB RQ ACCESS:  157180648
DTLB RQ TO_CACHE:  111609785
DTLB RQ MERGED:   45570863
DTLB RQ FORWARD:          0
DTLB WQ ACCESS:          0
DTLB WQ TO_CACHE:          0
DTLB WQ MERGED:          0
DTLB WQ FORWARD:          0
L1D TOTAL     ACCESS:  198233559  HIT:  188392470  MISS:    9841089
L1D LOAD      ACCESS:   79949416  HIT:   75686491  MISS:    4262925
L1D RFO       ACCESS:   44532521  HIT:   43632097  MISS:     900424
L1D PREFETCH  ACCESS:   73751622  HIT:   69073882  MISS:    4677740
L1D WRITEBACK ACCESS:          0  HIT:          0  MISS:          0
L1D PREFETCH  REQUESTED:   80344980  ISSUED:   79889341  USEFUL:    1819468  USELESS:    2858181
L1D TOTAL MSHR MERGED:    2494336
L1D LOAD MSHR MERGED:     519991
L1D RFO MSHR MERGED:    1420300
L1D PREFETCH MSHR MERGED:     554045
L1D WRITEBACK MSHR MERGED:          0
L1D TOTAL ACCESSES:  200749156 HITS:  188413731 MISSES:   12335425
L1D LOAD ACCESSES:   80357610 HITS:   75699121 MISSES:    4658489
L1D RFO ACCESSES:   45949789 HITS:   43632097 MISSES:    2317692
L1D PREFETCH ACCESSES:   74441757 HITS:   69082513 MISSES:    5359244
L1D WRITEBACK ACCESSES:          0 HITS:          0 MISSES:          0
L1D RQ ACCESS:  109538678
L1D RQ TO_CACHE:   80344980
L1D RQ MERGED:   29181068
L1D RQ FORWARD:          0
L1D WQ ACCESS:   47641970
L1D WQ TO_CACHE:   45949789
L1D WQ MERGED:    1692181
L1D WQ FORWARD:      21261
L1I TOTAL     ACCESS:  161534328  HIT:  161270353  MISS:     263975
L1I LOAD      ACCESS:  161534328  HIT:  161270353  MISS:     263975
L1I RFO       ACCESS:          0  HIT:          0  MISS:          0
L1I PREFETCH  ACCESS:          0  HIT:          0  MISS:          0
L1I WRITEBACK ACCESS:          0  HIT:          0  MISS:          0
L1I PREFETCH  REQUESTED:          0  ISSUED:          0  USEFUL:          0  USELESS:          0
L1I TOTAL MSHR MERGED:     261003
L1I LOAD MSHR MERGED:     261003
L1I RFO MSHR MERGED:          0
L1I PREFETCH MSHR MERGED:          0
L1I WRITEBACK MSHR MERGED:          0
L1I TOTAL ACCESSES:  161795331 HITS:  161270353 MISSES:     524978
L1I LOAD ACCESSES:  161795331 HITS:  161270353 MISSES:     524978
L1I RFO ACCESSES:          0 HITS:          0 MISSES:          0
L1I PREFETCH ACCESSES:          0 HITS:          0 MISSES:          0
L1I WRITEBACK ACCESSES:          0 HITS:          0 MISSES:          0
L1I RQ ACCESS:  500000202
L1I RQ TO_CACHE:  161795331
L1I RQ MERGED:  338204871
L1I RQ FORWARD:          0
L1I WQ ACCESS:          0
L1I WQ TO_CACHE:          0
L1I WQ MERGED:          0
L1I WQ FORWARD:          0
L2C TOTAL     ACCESS:   11771968  HIT:   10382651  MISS:    1389317
L2C LOAD      ACCESS:    4402406  HIT:    3905903  MISS:     496503
L2C RFO       ACCESS:     897327  HIT:     536293  MISS:     361034
L2C PREFETCH  ACCESS:    5284692  HIT:    4755856  MISS:     528836
L2C WRITEBACK ACCESS:    1187543  HIT:    1184599  MISS:       2944
L2C PREFETCH  REQUESTED:     504759  ISSUED:     504759  USEFUL:     115064  USELESS:     413966
L2C TOTAL MSHR MERGED:       1965
L2C LOAD MSHR MERGED:        389
L2C RFO MSHR MERGED:          0
L2C PREFETCH MSHR MERGED:       1576
L2C WRITEBACK MSHR MERGED:          0
L2C TOTAL ACCESSES:   11776626 HITS:   10382870 MISSES:    1393756
L2C LOAD ACCESSES:    4402473 HITS:    3905970 MISSES:     496503
L2C RFO ACCESSES:     897392 HITS:     536358 MISSES:     361034
L2C PREFETCH ACCESSES:    5289218 HITS:    4755943 MISSES:     533275
L2C WRITEBACK ACCESSES:    1187543 HITS:    1184599 MISSES:       2944
L2C RQ ACCESS:    5299865
L2C RQ TO_CACHE:    5299733
L2C RQ MERGED:          0
L2C RQ FORWARD:          0
L2C WQ ACCESS:    1187543
L2C WQ TO_CACHE:    1187543
L2C WQ MERGED:          0
L2C WQ FORWARD:        219
LLC TOTAL     ACCESS:    1849481  HIT:    1157912  MISS:     691569
LLC LOAD      ACCESS:     496112  HIT:     254015  MISS:     242097
LLC RFO       ACCESS:     361030  HIT:     231591  MISS:     129439
LLC PREFETCH  ACCESS:     531609  HIT:     320305  MISS:     211304
LLC WRITEBACK ACCESS:     460730  HIT:     352001  MISS:     108729
LLC PREFETCH  REQUESTED:          0  ISSUED:          0  USEFUL:       2478  USELESS:     208887
LLC TOTAL MSHR MERGED:         63
LLC LOAD MSHR MERGED:         20
LLC RFO MSHR MERGED:          0
LLC PREFETCH MSHR MERGED:         43
LLC WRITEBACK MSHR MERGED:          0
LLC TOTAL ACCESSES:    1849570 HITS:    1157938 MISSES:     691632
LLC LOAD ACCESSES:     496114 HITS:     254017 MISSES:     242097
LLC RFO ACCESSES:     361034 HITS:     231595 MISSES:     129439
LLC PREFETCH ACCESSES:     531692 HITS:     320325 MISSES:     211367
LLC WRITEBACK ACCESSES:     460730 HITS:     352001 MISSES:     108729
LLC 0 RQ ACCESS:     857148
LLC 0 RQ TO_CACHE:     857142
LLC 0 RQ MERGED:          0
LLC 0 RQ FORWARD:          0
LLC WQ ACCESS:     460730
LLC WQ TO_CACHE:     460730
LLC WQ MERGED:          0
LLC WQ FORWARD:         26
Major fault: 0 Minor fault: 3073
CPU 0 L1D next line prefetcher final stats
CPU 0 L2C PC-based stride prefetcher final stats
All Misses: 848978
All Hits: 1327195
SD Algo Stats - Switches: 0 SRR-Repls: 280336 BRR-Repls: 0

DRAM Statistics
 CHANNEL 0
 RQ ROW_BUFFER_HIT:     402773  ROW_BUFFER_MISS:     179883
 DBUS_CONGESTED:     435239
 WQ ROW_BUFFER_HIT:      25838  ROW_BUFFER_MISS:     110778  FULL:          0

 AVG_CONGESTED_CYCLE: 13
LOADS RETIRED: 120673965
INSTR RETIRED: 500000000
