
*** ChampSim Multicore Out-of-Order Simulator ***

Warmup Instructions: 100000000
Simulation Instructions: 500000000
Number of CPUs: 1
LLC sets: 2048
LLC ways: 16
Clean RRIP Policies: 2213230222132302 Dirty RRIP Policies: 1203030212030302 PSEL Width: 10 Track Set: 4294967295 PSEL Mask: 1 Demote Mask: 1040104010401040DS Algo: 0Window size: 0
Off-chip DRAM Size: 4096 MB Channels: 1 Width: 64-bit Data Rate: 1600 MT/s

CPU 0 runs /mnt/beegfs/iconst01/spec2017/Lbm.trace.gz
NOT SORTED
TRACE STRING: /mnt/beegfs/iconst01/spec2017/Lbm.trace.gz
SORTED
TRACE STRING: /mnt/beegfs/iconst01/spec2017/Lbm.trace.gz
INITIAL
TRACE STRING: /mnt/beegfs/iconst01/spec2017/Lbm.trace.gz

champsim_seed used: 283

CPU 0 L1D next line prefetcher
CPU 0 L2C IP-based stride prefetcher
Initialize DRRIP state
Assign rand_sets[0]: 454  LLC: 2048
rand_sets[0]: 454
Assign rand_sets[1]: 1662  LLC: 2048
rand_sets[1]: 1662
Assign rand_sets[2]: 1921  LLC: 2048
rand_sets[2]: 1921
Assign rand_sets[3]: 1131  LLC: 2048
rand_sets[3]: 1131
Assign rand_sets[4]: 331  LLC: 2048
rand_sets[4]: 331
Assign rand_sets[5]: 1531  LLC: 2048
rand_sets[5]: 1531
Assign rand_sets[6]: 482  LLC: 2048
rand_sets[6]: 482
Assign rand_sets[7]: 1275  LLC: 2048
rand_sets[7]: 1275
Assign rand_sets[8]: 1876  LLC: 2048
rand_sets[8]: 1876
Assign rand_sets[9]: 2038  LLC: 2048
rand_sets[9]: 2038
Assign rand_sets[10]: 701  LLC: 2048
rand_sets[10]: 701
Assign rand_sets[11]: 479  LLC: 2048
rand_sets[11]: 479
Assign rand_sets[12]: 892  LLC: 2048
rand_sets[12]: 892
Assign rand_sets[13]: 1820  LLC: 2048
rand_sets[13]: 1820
Assign rand_sets[14]: 1505  LLC: 2048
rand_sets[14]: 1505
Assign rand_sets[15]: 1159  LLC: 2048
rand_sets[15]: 1159
Assign rand_sets[16]: 513  LLC: 2048
rand_sets[16]: 513
Assign rand_sets[17]: 703  LLC: 2048
rand_sets[17]: 703
Assign rand_sets[18]: 561  LLC: 2048
rand_sets[18]: 561
Assign rand_sets[19]: 990  LLC: 2048
rand_sets[19]: 990
Assign rand_sets[20]: 342  LLC: 2048
rand_sets[20]: 342
Assign rand_sets[21]: 882  LLC: 2048
rand_sets[21]: 882
Assign rand_sets[22]: 15  LLC: 2048
rand_sets[22]: 15
Assign rand_sets[23]: 71  LLC: 2048
rand_sets[23]: 71
Assign rand_sets[24]: 1127  LLC: 2048
rand_sets[24]: 1127
Assign rand_sets[25]: 1382  LLC: 2048
rand_sets[25]: 1382
Assign rand_sets[26]: 647  LLC: 2048
rand_sets[26]: 647
Assign rand_sets[27]: 857  LLC: 2048
rand_sets[27]: 857
Assign rand_sets[28]: 1450  LLC: 2048
rand_sets[28]: 1450
Assign rand_sets[29]: 1160  LLC: 2048
rand_sets[29]: 1160
Assign rand_sets[30]: 1852  LLC: 2048
rand_sets[30]: 1852
Assign rand_sets[31]: 1881  LLC: 2048
rand_sets[31]: 1881
Assign rand_sets[32]: 1770  LLC: 2048
rand_sets[32]: 1770
Assign rand_sets[33]: 1622  LLC: 2048
rand_sets[33]: 1622
Assign rand_sets[34]: 275  LLC: 2048
rand_sets[34]: 275
Assign rand_sets[35]: 635  LLC: 2048
rand_sets[35]: 635
Assign rand_sets[36]: 466  LLC: 2048
rand_sets[36]: 466
Assign rand_sets[37]: 1413  LLC: 2048
rand_sets[37]: 1413
Assign rand_sets[38]: 417  LLC: 2048
rand_sets[38]: 417
Assign rand_sets[39]: 472  LLC: 2048
rand_sets[39]: 472
Assign rand_sets[40]: 1340  LLC: 2048
rand_sets[40]: 1340
Assign rand_sets[41]: 852  LLC: 2048
rand_sets[41]: 852
Assign rand_sets[42]: 1365  LLC: 2048
rand_sets[42]: 1365
Assign rand_sets[43]: 47  LLC: 2048
rand_sets[43]: 47
Assign rand_sets[44]: 823  LLC: 2048
rand_sets[44]: 823
Assign rand_sets[45]: 686  LLC: 2048
rand_sets[45]: 686
Assign rand_sets[46]: 1637  LLC: 2048
rand_sets[46]: 1637
Assign rand_sets[47]: 1115  LLC: 2048
rand_sets[47]: 1115
Assign rand_sets[48]: 986  LLC: 2048
rand_sets[48]: 986
Assign rand_sets[49]: 258  LLC: 2048
rand_sets[49]: 258
Assign rand_sets[50]: 633  LLC: 2048
rand_sets[50]: 633
Assign rand_sets[51]: 920  LLC: 2048
rand_sets[51]: 920
Assign rand_sets[52]: 204  LLC: 2048
rand_sets[52]: 204
Assign rand_sets[53]: 227  LLC: 2048
rand_sets[53]: 227
Assign rand_sets[54]: 1818  LLC: 2048
rand_sets[54]: 1818
Assign rand_sets[55]: 886  LLC: 2048
rand_sets[55]: 886
Assign rand_sets[56]: 1422  LLC: 2048
rand_sets[56]: 1422
Assign rand_sets[57]: 607  LLC: 2048
rand_sets[57]: 607
Assign rand_sets[58]: 217  LLC: 2048
rand_sets[58]: 217
Assign rand_sets[59]: 1945  LLC: 2048
rand_sets[59]: 1945
Assign rand_sets[60]: 143  LLC: 2048
rand_sets[60]: 143
Assign rand_sets[61]: 1311  LLC: 2048
rand_sets[61]: 1311
Assign rand_sets[62]: 319  LLC: 2048
rand_sets[62]: 319
Assign rand_sets[63]: 1846  LLC: 2048
rand_sets[63]: 1846
 CLEAN-RRIP-POLICY-1: 2-2-1-3-2-3-0-2- CLEAN-RRIP-POLICY-2: 2-2-1-3-2-3-0-2-
 DIRTY-RRIP-POLICY-1: 1-2-0-3-0-3-0-2- DIRTY-RRIP-POLICY-2: 1-2-0-3-0-3-0-2-
 PSEL width: 10
Heartbeat CPU 0 instructions: 10000000 cycles: 4321582 heartbeat IPC: 2.31397 cumulative IPC: 2.31397 (Simulation time: 0 hr 0 min 18 sec) 
Heartbeat CPU 0 instructions: 20000000 cycles: 8643658 heartbeat IPC: 2.3137 cumulative IPC: 2.31384 (Simulation time: 0 hr 0 min 36 sec) 
Heartbeat CPU 0 instructions: 30000000 cycles: 12965455 heartbeat IPC: 2.31385 cumulative IPC: 2.31384 (Simulation time: 0 hr 0 min 54 sec) 
Heartbeat CPU 0 instructions: 40000000 cycles: 17291308 heartbeat IPC: 2.31168 cumulative IPC: 2.3133 (Simulation time: 0 hr 1 min 13 sec) 
Heartbeat CPU 0 instructions: 50000000 cycles: 21613241 heartbeat IPC: 2.31378 cumulative IPC: 2.3134 (Simulation time: 0 hr 1 min 31 sec) 
Heartbeat CPU 0 instructions: 60000000 cycles: 25935122 heartbeat IPC: 2.31381 cumulative IPC: 2.31347 (Simulation time: 0 hr 1 min 49 sec) 
Heartbeat CPU 0 instructions: 70000000 cycles: 30256680 heartbeat IPC: 2.31398 cumulative IPC: 2.31354 (Simulation time: 0 hr 2 min 7 sec) 
Heartbeat CPU 0 instructions: 80000000 cycles: 34582942 heartbeat IPC: 2.31146 cumulative IPC: 2.31328 (Simulation time: 0 hr 2 min 26 sec) 
Heartbeat CPU 0 instructions: 90000003 cycles: 38905092 heartbeat IPC: 2.31366 cumulative IPC: 2.31332 (Simulation time: 0 hr 2 min 44 sec) 
Heartbeat CPU 0 instructions: 100000000 cycles: 43226570 heartbeat IPC: 2.31402 cumulative IPC: 2.31339 (Simulation time: 0 hr 3 min 2 sec) 

Warmup complete CPU 0 instructions: 100000001 cycles: 43226571 (Simulation time: 0 hr 3 min 2 sec) 

Heartbeat CPU 0 instructions: 110000000 cycles: 57530030 heartbeat IPC: 0.699132 cumulative IPC: 0.699131 (Simulation time: 0 hr 3 min 29 sec) 
Heartbeat CPU 0 instructions: 120000000 cycles: 71898191 heartbeat IPC: 0.695983 cumulative IPC: 0.697554 (Simulation time: 0 hr 3 min 55 sec) 
Heartbeat CPU 0 instructions: 130000000 cycles: 86098647 heartbeat IPC: 0.704203 cumulative IPC: 0.699756 (Simulation time: 0 hr 4 min 21 sec) 
Heartbeat CPU 0 instructions: 140000000 cycles: 100197692 heartbeat IPC: 0.709268 cumulative IPC: 0.70211 (Simulation time: 0 hr 4 min 47 sec) 
Heartbeat CPU 0 instructions: 150000003 cycles: 113930829 heartbeat IPC: 0.728166 cumulative IPC: 0.707171 (Simulation time: 0 hr 5 min 13 sec) 
Heartbeat CPU 0 instructions: 160000000 cycles: 127926142 heartbeat IPC: 0.714525 cumulative IPC: 0.708386 (Simulation time: 0 hr 5 min 39 sec) 
Heartbeat CPU 0 instructions: 170000002 cycles: 142379784 heartbeat IPC: 0.691867 cumulative IPC: 0.705978 (Simulation time: 0 hr 6 min 6 sec) 
Heartbeat CPU 0 instructions: 180000000 cycles: 156480261 heartbeat IPC: 0.709196 cumulative IPC: 0.706379 (Simulation time: 0 hr 6 min 32 sec) 
Heartbeat CPU 0 instructions: 190000003 cycles: 173586673 heartbeat IPC: 0.584576 cumulative IPC: 0.690395 (Simulation time: 0 hr 7 min 1 sec) 
Heartbeat CPU 0 instructions: 200000000 cycles: 193927104 heartbeat IPC: 0.491632 cumulative IPC: 0.663568 (Simulation time: 0 hr 7 min 33 sec) 
Heartbeat CPU 0 instructions: 210000001 cycles: 208172184 heartbeat IPC: 0.701997 cumulative IPC: 0.666887 (Simulation time: 0 hr 8 min 0 sec) 
Heartbeat CPU 0 instructions: 220000000 cycles: 222082402 heartbeat IPC: 0.718896 cumulative IPC: 0.670931 (Simulation time: 0 hr 8 min 26 sec) 
Heartbeat CPU 0 instructions: 230000001 cycles: 236189984 heartbeat IPC: 0.708839 cumulative IPC: 0.673703 (Simulation time: 0 hr 8 min 52 sec) 
Heartbeat CPU 0 instructions: 240000000 cycles: 250747752 heartbeat IPC: 0.686918 cumulative IPC: 0.67463 (Simulation time: 0 hr 9 min 19 sec) 
Heartbeat CPU 0 instructions: 250000000 cycles: 265423899 heartbeat IPC: 0.681378 cumulative IPC: 0.675076 (Simulation time: 0 hr 9 min 45 sec) 
Heartbeat CPU 0 instructions: 260000000 cycles: 280343972 heartbeat IPC: 0.670238 cumulative IPC: 0.674771 (Simulation time: 0 hr 10 min 12 sec) 
Heartbeat CPU 0 instructions: 270000002 cycles: 295651974 heartbeat IPC: 0.653253 cumulative IPC: 0.673466 (Simulation time: 0 hr 10 min 40 sec) 
Heartbeat CPU 0 instructions: 280000000 cycles: 310517762 heartbeat IPC: 0.672685 cumulative IPC: 0.673423 (Simulation time: 0 hr 11 min 7 sec) 
Heartbeat CPU 0 instructions: 290000003 cycles: 326357131 heartbeat IPC: 0.631338 cumulative IPC: 0.671068 (Simulation time: 0 hr 11 min 34 sec) 
Heartbeat CPU 0 instructions: 300000000 cycles: 341546107 heartbeat IPC: 0.658372 cumulative IPC: 0.670422 (Simulation time: 0 hr 12 min 1 sec) 
Heartbeat CPU 0 instructions: 310000000 cycles: 357561534 heartbeat IPC: 0.624398 cumulative IPC: 0.668077 (Simulation time: 0 hr 12 min 29 sec) 
Heartbeat CPU 0 instructions: 320000000 cycles: 373371259 heartbeat IPC: 0.632522 cumulative IPC: 0.666375 (Simulation time: 0 hr 12 min 56 sec) 
Heartbeat CPU 0 instructions: 330000002 cycles: 388445893 heartbeat IPC: 0.663366 cumulative IPC: 0.666243 (Simulation time: 0 hr 13 min 23 sec) 
Heartbeat CPU 0 instructions: 340000000 cycles: 404522309 heartbeat IPC: 0.622029 cumulative IPC: 0.664276 (Simulation time: 0 hr 13 min 50 sec) 
Heartbeat CPU 0 instructions: 350000001 cycles: 419279088 heartbeat IPC: 0.677655 cumulative IPC: 0.664801 (Simulation time: 0 hr 14 min 17 sec) 
Heartbeat CPU 0 instructions: 360000000 cycles: 434887946 heartbeat IPC: 0.640662 cumulative IPC: 0.663839 (Simulation time: 0 hr 14 min 44 sec) 
Heartbeat CPU 0 instructions: 370000000 cycles: 449757084 heartbeat IPC: 0.672534 cumulative IPC: 0.664157 (Simulation time: 0 hr 15 min 10 sec) 
Heartbeat CPU 0 instructions: 380000000 cycles: 464915822 heartbeat IPC: 0.659686 cumulative IPC: 0.663996 (Simulation time: 0 hr 15 min 37 sec) 
Heartbeat CPU 0 instructions: 390000000 cycles: 479238789 heartbeat IPC: 0.698179 cumulative IPC: 0.665119 (Simulation time: 0 hr 16 min 3 sec) 
Heartbeat CPU 0 instructions: 400000000 cycles: 493578650 heartbeat IPC: 0.697357 cumulative IPC: 0.666145 (Simulation time: 0 hr 16 min 28 sec) 
Heartbeat CPU 0 instructions: 410000000 cycles: 507553382 heartbeat IPC: 0.715577 cumulative IPC: 0.667633 (Simulation time: 0 hr 16 min 54 sec) 
Heartbeat CPU 0 instructions: 420000000 cycles: 521899786 heartbeat IPC: 0.697039 cumulative IPC: 0.668515 (Simulation time: 0 hr 17 min 20 sec) 
Heartbeat CPU 0 instructions: 430000002 cycles: 535758145 heartbeat IPC: 0.721586 cumulative IPC: 0.670008 (Simulation time: 0 hr 17 min 45 sec) 
Heartbeat CPU 0 instructions: 440000000 cycles: 549669693 heartbeat IPC: 0.718827 cumulative IPC: 0.671349 (Simulation time: 0 hr 18 min 10 sec) 
Heartbeat CPU 0 instructions: 450000000 cycles: 563333250 heartbeat IPC: 0.731874 cumulative IPC: 0.672939 (Simulation time: 0 hr 18 min 35 sec) 
Heartbeat CPU 0 instructions: 460000000 cycles: 578115255 heartbeat IPC: 0.676498 cumulative IPC: 0.673037 (Simulation time: 0 hr 19 min 1 sec) 
Heartbeat CPU 0 instructions: 470000000 cycles: 592451517 heartbeat IPC: 0.697532 cumulative IPC: 0.673677 (Simulation time: 0 hr 19 min 26 sec) 
Heartbeat CPU 0 instructions: 480000000 cycles: 606488426 heartbeat IPC: 0.712408 cumulative IPC: 0.674642 (Simulation time: 0 hr 19 min 52 sec) 
Heartbeat CPU 0 instructions: 490000001 cycles: 620983238 heartbeat IPC: 0.689902 cumulative IPC: 0.675025 (Simulation time: 0 hr 20 min 17 sec) 
Heartbeat CPU 0 instructions: 500000000 cycles: 635364795 heartbeat IPC: 0.695335 cumulative IPC: 0.675518 (Simulation time: 0 hr 20 min 43 sec) 
Heartbeat CPU 0 instructions: 510000002 cycles: 649448588 heartbeat IPC: 0.710036 cumulative IPC: 0.67632 (Simulation time: 0 hr 21 min 8 sec) 
Heartbeat CPU 0 instructions: 520000000 cycles: 663366116 heartbeat IPC: 0.718518 cumulative IPC: 0.677267 (Simulation time: 0 hr 21 min 33 sec) 
Heartbeat CPU 0 instructions: 530000001 cycles: 677316063 heartbeat IPC: 0.716849 cumulative IPC: 0.678138 (Simulation time: 0 hr 21 min 58 sec) 
Heartbeat CPU 0 instructions: 540000000 cycles: 691734141 heartbeat IPC: 0.693574 cumulative IPC: 0.678481 (Simulation time: 0 hr 22 min 24 sec) 
Heartbeat CPU 0 instructions: 550000003 cycles: 705729653 heartbeat IPC: 0.714515 cumulative IPC: 0.679242 (Simulation time: 0 hr 22 min 49 sec) 
Heartbeat CPU 0 instructions: 560000000 cycles: 720147516 heartbeat IPC: 0.693584 cumulative IPC: 0.679548 (Simulation time: 0 hr 23 min 15 sec) 
Heartbeat CPU 0 instructions: 570000001 cycles: 734330347 heartbeat IPC: 0.705078 cumulative IPC: 0.680072 (Simulation time: 0 hr 23 min 40 sec) 
Heartbeat CPU 0 instructions: 580000000 cycles: 748235927 heartbeat IPC: 0.719136 cumulative IPC: 0.680842 (Simulation time: 0 hr 24 min 5 sec) 
Heartbeat CPU 0 instructions: 590000003 cycles: 761661582 heartbeat IPC: 0.744843 cumulative IPC: 0.682038 (Simulation time: 0 hr 24 min 30 sec) 
Heartbeat CPU 0 instructions: 600000000 cycles: 775684532 heartbeat IPC: 0.713117 cumulative IPC: 0.682633 (Simulation time: 0 hr 24 min 55 sec) 
Finished CPU 0 instructions: 500000000 cycles: 732457969 cumulative IPC: 0.682633 (Simulation time: 0 hr 24 min 55 sec) 

CPU 0 Branch Prediction Accuracy: 99.5915% MPKI: 0.037126
Number of Branches: 4544106 Number of Mispredictions: 18563
Number of LOAD Instructions: 149787067
Number of LOAD Instructions (ROI): 149787067
Number of STORE Instructions: 77239062
Number of STORE Instructions (ROI): 77239062
Total Destination Memory Operands: 77239062
Total Destination Memory Operands (ROI): 77239062
Total Source Memory Operands: 149787067
Total Source Memory Operands (ROI): 149787067
Number of DEPENDED LOADS: 19248673
Number of DEPENDED LOADS (ROI): 19248673
Number of SQ_ADDED: 77239036
Number of SQ_ADDED (ROI): 77239036
Number of LQ_ADDED: 149787020
Number of LQ_ADDED (ROI): 149787020
Number of Instructions read from trace: 600000256

ChampSim completed all CPUs

Region of Interest Statistics

CPU 0 cumulative IPC: 0.682633 instructions: 500000000 cycles: 732457969
ITLB TOTAL     ACCESS:   86451773  HIT:   86451772  MISS:          1
ITLB LOAD      ACCESS:   86451773  HIT:   86451772  MISS:          1
ITLB RFO       ACCESS:          0  HIT:          0  MISS:          0
ITLB PREFETCH  ACCESS:          0  HIT:          0  MISS:          0
ITLB WRITEBACK ACCESS:          0  HIT:          0  MISS:          0
ITLB PREFETCH  REQUESTED:          0  ISSUED:          0  USEFUL:          0  USELESS:          0
ITLB TOTAL MSHR MERGED:          1
ITLB LOAD MSHR MERGED:          1
ITLB RFO MSHR MERGED:          0
ITLB PREFETCH MSHR MERGED:          0
ITLB WRITEBACK MSHR MERGED:          0
ITLB TOTAL ACCESSES:   86451774 HITS:   86451772 MISSES:          2
ITLB LOAD ACCESSES:   86451774 HITS:   86451772 MISSES:          2
ITLB RFO ACCESSES:          0 HITS:          0 MISSES:          0
ITLB PREFETCH ACCESSES:          0 HITS:          0 MISSES:          0
ITLB WRITEBACK ACCESSES:          0 HITS:          0 MISSES:          0
ITLB RQ ACCESS:  500000002
ITLB RQ TO_CACHE:   86451774
ITLB RQ MERGED:  413548228
ITLB RQ FORWARD:          0
ITLB WQ ACCESS:          0
ITLB WQ TO_CACHE:          0
ITLB WQ MERGED:          0
ITLB WQ FORWARD:          0
DTLB TOTAL     ACCESS:   98104837  HIT:   97919576  MISS:     185261
DTLB LOAD      ACCESS:   55039857  HIT:   54993546  MISS:      46311
DTLB RFO       ACCESS:   43064980  HIT:   42926030  MISS:     138950
DTLB PREFETCH  ACCESS:          0  HIT:          0  MISS:          0
DTLB WRITEBACK ACCESS:          0  HIT:          0  MISS:          0
DTLB PREFETCH  REQUESTED:          0  ISSUED:          0  USEFUL:          0  USELESS:          0
DTLB TOTAL MSHR MERGED:      83559
DTLB LOAD MSHR MERGED:      83554
DTLB RFO MSHR MERGED:          5
DTLB PREFETCH MSHR MERGED:          0
DTLB WRITEBACK MSHR MERGED:          0
DTLB TOTAL ACCESSES:   98188396 HITS:   97919576 MISSES:     268820
DTLB LOAD ACCESSES:   55123411 HITS:   54993546 MISSES:     129865
DTLB RFO ACCESSES:   43064985 HITS:   42926030 MISSES:     138955
DTLB PREFETCH ACCESSES:          0 HITS:          0 MISSES:          0
DTLB WRITEBACK ACCESSES:          0 HITS:          0 MISSES:          0
DTLB RQ ACCESS:  173633854
DTLB RQ TO_CACHE:   98188396
DTLB RQ MERGED:   75445458
DTLB RQ FORWARD:          0
DTLB WQ ACCESS:          0
DTLB WQ TO_CACHE:          0
DTLB WQ MERGED:          0
DTLB WQ FORWARD:          0
L1D TOTAL     ACCESS:  164552675  HIT:  144980115  MISS:   19572560
L1D LOAD      ACCESS:   60522383  HIT:   58670878  MISS:    1851505
L1D RFO       ACCESS:   64513556  HIT:   47911434  MISS:   16602122
L1D PREFETCH  ACCESS:   39516736  HIT:   38397803  MISS:    1118933
L1D WRITEBACK ACCESS:          0  HIT:          0  MISS:          0
L1D PREFETCH  REQUESTED:   61694291  ISSUED:   61402208  USEFUL:    1117014  USELESS:       1920
L1D TOTAL MSHR MERGED:    3508318
L1D LOAD MSHR MERGED:    1242339
L1D RFO MSHR MERGED:      11309
L1D PREFETCH MSHR MERGED:    2254670
L1D WRITEBACK MSHR MERGED:          0
L1D TOTAL ACCESSES:  168634337 HITS:  145553456 MISSES:   23080881
L1D LOAD ACCESSES:   61960720 HITS:   58937307 MISSES:    3023413
L1D RFO ACCESSES:   64524828 HITS:   47911434 MISSES:   16613394
L1D PREFETCH ACCESSES:   42148789 HITS:   38704715 MISSES:    3444074
L1D WRITEBACK ACCESSES:          0 HITS:          0 MISSES:          0
L1D RQ ACCESS:  109092539
L1D RQ TO_CACHE:   61694291
L1D RQ MERGED:   47131819
L1D RQ FORWARD:          0
L1D WQ ACCESS:   64541313
L1D WQ TO_CACHE:   64524828
L1D WQ MERGED:      16485
L1D WQ FORWARD:     573341
L1I TOTAL     ACCESS:  107761662  HIT:  107761654  MISS:          8
L1I LOAD      ACCESS:  107761662  HIT:  107761654  MISS:          8
L1I RFO       ACCESS:          0  HIT:          0  MISS:          0
L1I PREFETCH  ACCESS:          0  HIT:          0  MISS:          0
L1I WRITEBACK ACCESS:          0  HIT:          0  MISS:          0
L1I PREFETCH  REQUESTED:          0  ISSUED:          0  USEFUL:          0  USELESS:          0
L1I TOTAL MSHR MERGED:          3
L1I LOAD MSHR MERGED:          3
L1I RFO MSHR MERGED:          0
L1I PREFETCH MSHR MERGED:          0
L1I WRITEBACK MSHR MERGED:          0
L1I TOTAL ACCESSES:  107761665 HITS:  107761654 MISSES:         11
L1I LOAD ACCESSES:  107761665 HITS:  107761654 MISSES:         11
L1I RFO ACCESSES:          0 HITS:          0 MISSES:          0
L1I PREFETCH ACCESSES:          0 HITS:          0 MISSES:          0
L1I WRITEBACK ACCESSES:          0 HITS:          0 MISSES:          0
L1I RQ ACCESS:  500000007
L1I RQ TO_CACHE:  107761665
L1I RQ MERGED:  392238342
L1I RQ FORWARD:          0
L1I WQ ACCESS:          0
L1I WQ TO_CACHE:          0
L1I WQ MERGED:          0
L1I WQ FORWARD:          0
L2C TOTAL     ACCESS:   36801681  HIT:   24844129  MISS:   11957552
L2C LOAD      ACCESS:    1781082  HIT:     253416  MISS:    1527666
L2C RFO       ACCESS:   16602080  HIT:    7610739  MISS:    8991341
L2C PREFETCH  ACCESS:    1816334  HIT:     379018  MISS:    1437316
L2C WRITEBACK ACCESS:   16602185  HIT:   16600956  MISS:       1229
L2C PREFETCH  REQUESTED:     816400  ISSUED:     816400  USEFUL:     251087  USELESS:    1186511
L2C TOTAL MSHR MERGED:       2788
L2C LOAD MSHR MERGED:        662
L2C RFO MSHR MERGED:          0
L2C PREFETCH MSHR MERGED:       2126
L2C WRITEBACK MSHR MERGED:          0
L2C TOTAL ACCESSES:   36991100 HITS:   24844132 MISSES:   12146968
L2C LOAD ACCESSES:    1781082 HITS:     253416 MISSES:    1527666
L2C RFO ACCESSES:   16602085 HITS:    7610742 MISSES:    8991343
L2C PREFETCH ACCESSES:    2005748 HITS:     379018 MISSES:    1626730
L2C WRITEBACK ACCESSES:   16602185 HITS:   16600956 MISSES:       1229
L2C RQ ACCESS:   18383167
L2C RQ TO_CACHE:   18383164
L2C RQ MERGED:          0
L2C RQ FORWARD:          0
L2C WQ ACCESS:   16602186
L2C WQ TO_CACHE:   16602186
L2C WQ MERGED:          0
L2C WQ FORWARD:          3
LLC TOTAL     ACCESS:   21132080  HIT:    1529363  MISS:   19602717
LLC LOAD      ACCESS:    1527004  HIT:      67574  MISS:    1459430
LLC RFO       ACCESS:    8991327  HIT:     580727  MISS:    8410600
LLC PREFETCH  ACCESS:    1621579  HIT:     116086  MISS:    1505493
LLC WRITEBACK ACCESS:    8992170  HIT:     764976  MISS:    8227194
LLC PREFETCH  REQUESTED:          0  ISSUED:          0  USEFUL:      67176  USELESS:    1437863
LLC TOTAL MSHR MERGED:       2643
LLC LOAD MSHR MERGED:        210
LLC RFO MSHR MERGED:          0
LLC PREFETCH MSHR MERGED:       2433
LLC WRITEBACK MSHR MERGED:          0
LLC TOTAL ACCESSES:   21134740 HITS:    1529377 MISSES:   19605363
LLC LOAD ACCESSES:    1527004 HITS:      67574 MISSES:    1459430
LLC RFO ACCESSES:    8991343 HITS:     580741 MISSES:    8410602
LLC PREFETCH ACCESSES:    1624223 HITS:     116086 MISSES:    1508137
LLC WRITEBACK ACCESSES:    8992170 HITS:     764976 MISSES:    8227194
LLC 0 RQ ACCESS:   10518347
LLC 0 RQ TO_CACHE:   10518333
LLC 0 RQ MERGED:          0
LLC 0 RQ FORWARD:          0
LLC WQ ACCESS:    8992171
LLC WQ TO_CACHE:    8992171
LLC WQ MERGED:          0
LLC WQ FORWARD:         14
Major fault: 0 Minor fault: 102360
CPU 0 L1D next line prefetcher final stats
CPU 0 L2C PC-based stride prefetcher final stats
All Misses: 23323717
All Hits: 1783875
SD Algo Stats - Switches: 0 SRR-Repls: 1637994 BRR-Repls: 0

DRAM Statistics
 CHANNEL 0
 RQ ROW_BUFFER_HIT:    3715940  ROW_BUFFER_MISS:    7657642
 DBUS_CONGESTED:   13572636
 WQ ROW_BUFFER_HIT:    1434199  ROW_BUFFER_MISS:    6976484  FULL:          0

 AVG_CONGESTED_CYCLE: 13
LOADS RETIRED: 124982196
INSTR RETIRED: 500000000
