
*** ChampSim Multicore Out-of-Order Simulator ***

Warmup Instructions: 100000000
Simulation Instructions: 500000000
Number of CPUs: 1
LLC sets: 2048
LLC ways: 16
Clean RRIP Policies: 323031103230311 Dirty RRIP Policies: 2323131123231311 PSEL Width: 10 Track Set: 4294967295 PSEL Mask: 1 Demote Mask: 2000141020001410DS Algo: 0Window size: 0
Off-chip DRAM Size: 4096 MB Channels: 1 Width: 64-bit Data Rate: 1600 MT/s

CPU 0 runs /mnt/beegfs/iconst01/spec2017/Gcc.trace.gz
NOT SORTED
TRACE STRING: /mnt/beegfs/iconst01/spec2017/Gcc.trace.gz
SORTED
TRACE STRING: /mnt/beegfs/iconst01/spec2017/Gcc.trace.gz
INITIAL
TRACE STRING: /mnt/beegfs/iconst01/spec2017/Gcc.trace.gz

champsim_seed used: 269

CPU 0 L1D next line prefetcher
CPU 0 L2C IP-based stride prefetcher
Initialize DRRIP state
Assign rand_sets[0]: 454  LLC: 2048
rand_sets[0]: 454
Assign rand_sets[1]: 1662  LLC: 2048
rand_sets[1]: 1662
Assign rand_sets[2]: 1921  LLC: 2048
rand_sets[2]: 1921
Assign rand_sets[3]: 1131  LLC: 2048
rand_sets[3]: 1131
Assign rand_sets[4]: 331  LLC: 2048
rand_sets[4]: 331
Assign rand_sets[5]: 1531  LLC: 2048
rand_sets[5]: 1531
Assign rand_sets[6]: 482  LLC: 2048
rand_sets[6]: 482
Assign rand_sets[7]: 1275  LLC: 2048
rand_sets[7]: 1275
Assign rand_sets[8]: 1876  LLC: 2048
rand_sets[8]: 1876
Assign rand_sets[9]: 2038  LLC: 2048
rand_sets[9]: 2038
Assign rand_sets[10]: 701  LLC: 2048
rand_sets[10]: 701
Assign rand_sets[11]: 479  LLC: 2048
rand_sets[11]: 479
Assign rand_sets[12]: 892  LLC: 2048
rand_sets[12]: 892
Assign rand_sets[13]: 1820  LLC: 2048
rand_sets[13]: 1820
Assign rand_sets[14]: 1505  LLC: 2048
rand_sets[14]: 1505
Assign rand_sets[15]: 1159  LLC: 2048
rand_sets[15]: 1159
Assign rand_sets[16]: 513  LLC: 2048
rand_sets[16]: 513
Assign rand_sets[17]: 703  LLC: 2048
rand_sets[17]: 703
Assign rand_sets[18]: 561  LLC: 2048
rand_sets[18]: 561
Assign rand_sets[19]: 990  LLC: 2048
rand_sets[19]: 990
Assign rand_sets[20]: 342  LLC: 2048
rand_sets[20]: 342
Assign rand_sets[21]: 882  LLC: 2048
rand_sets[21]: 882
Assign rand_sets[22]: 15  LLC: 2048
rand_sets[22]: 15
Assign rand_sets[23]: 71  LLC: 2048
rand_sets[23]: 71
Assign rand_sets[24]: 1127  LLC: 2048
rand_sets[24]: 1127
Assign rand_sets[25]: 1382  LLC: 2048
rand_sets[25]: 1382
Assign rand_sets[26]: 647  LLC: 2048
rand_sets[26]: 647
Assign rand_sets[27]: 857  LLC: 2048
rand_sets[27]: 857
Assign rand_sets[28]: 1450  LLC: 2048
rand_sets[28]: 1450
Assign rand_sets[29]: 1160  LLC: 2048
rand_sets[29]: 1160
Assign rand_sets[30]: 1852  LLC: 2048
rand_sets[30]: 1852
Assign rand_sets[31]: 1881  LLC: 2048
rand_sets[31]: 1881
Assign rand_sets[32]: 1770  LLC: 2048
rand_sets[32]: 1770
Assign rand_sets[33]: 1622  LLC: 2048
rand_sets[33]: 1622
Assign rand_sets[34]: 275  LLC: 2048
rand_sets[34]: 275
Assign rand_sets[35]: 635  LLC: 2048
rand_sets[35]: 635
Assign rand_sets[36]: 466  LLC: 2048
rand_sets[36]: 466
Assign rand_sets[37]: 1413  LLC: 2048
rand_sets[37]: 1413
Assign rand_sets[38]: 417  LLC: 2048
rand_sets[38]: 417
Assign rand_sets[39]: 472  LLC: 2048
rand_sets[39]: 472
Assign rand_sets[40]: 1340  LLC: 2048
rand_sets[40]: 1340
Assign rand_sets[41]: 852  LLC: 2048
rand_sets[41]: 852
Assign rand_sets[42]: 1365  LLC: 2048
rand_sets[42]: 1365
Assign rand_sets[43]: 47  LLC: 2048
rand_sets[43]: 47
Assign rand_sets[44]: 823  LLC: 2048
rand_sets[44]: 823
Assign rand_sets[45]: 686  LLC: 2048
rand_sets[45]: 686
Assign rand_sets[46]: 1637  LLC: 2048
rand_sets[46]: 1637
Assign rand_sets[47]: 1115  LLC: 2048
rand_sets[47]: 1115
Assign rand_sets[48]: 986  LLC: 2048
rand_sets[48]: 986
Assign rand_sets[49]: 258  LLC: 2048
rand_sets[49]: 258
Assign rand_sets[50]: 633  LLC: 2048
rand_sets[50]: 633
Assign rand_sets[51]: 920  LLC: 2048
rand_sets[51]: 920
Assign rand_sets[52]: 204  LLC: 2048
rand_sets[52]: 204
Assign rand_sets[53]: 227  LLC: 2048
rand_sets[53]: 227
Assign rand_sets[54]: 1818  LLC: 2048
rand_sets[54]: 1818
Assign rand_sets[55]: 886  LLC: 2048
rand_sets[55]: 886
Assign rand_sets[56]: 1422  LLC: 2048
rand_sets[56]: 1422
Assign rand_sets[57]: 607  LLC: 2048
rand_sets[57]: 607
Assign rand_sets[58]: 217  LLC: 2048
rand_sets[58]: 217
Assign rand_sets[59]: 1945  LLC: 2048
rand_sets[59]: 1945
Assign rand_sets[60]: 143  LLC: 2048
rand_sets[60]: 143
Assign rand_sets[61]: 1311  LLC: 2048
rand_sets[61]: 1311
Assign rand_sets[62]: 319  LLC: 2048
rand_sets[62]: 319
Assign rand_sets[63]: 1846  LLC: 2048
rand_sets[63]: 1846
 CLEAN-RRIP-POLICY-1: 0-3-2-3-0-3-1-1- CLEAN-RRIP-POLICY-2: 0-3-2-3-0-3-1-1-
 DIRTY-RRIP-POLICY-1: 2-3-2-3-1-3-1-1- DIRTY-RRIP-POLICY-2: 2-3-2-3-1-3-1-1-
 PSEL width: 10
Heartbeat CPU 0 instructions: 10000001 cycles: 7316031 heartbeat IPC: 1.36686 cumulative IPC: 1.36686 (Simulation time: 0 hr 0 min 14 sec) 
Heartbeat CPU 0 instructions: 20000000 cycles: 14307534 heartbeat IPC: 1.43031 cumulative IPC: 1.39786 (Simulation time: 0 hr 0 min 29 sec) 
Heartbeat CPU 0 instructions: 30000001 cycles: 21020503 heartbeat IPC: 1.48965 cumulative IPC: 1.42718 (Simulation time: 0 hr 0 min 45 sec) 
Heartbeat CPU 0 instructions: 40000000 cycles: 27481401 heartbeat IPC: 1.54777 cumulative IPC: 1.45553 (Simulation time: 0 hr 1 min 1 sec) 
Heartbeat CPU 0 instructions: 50000001 cycles: 33583049 heartbeat IPC: 1.6389 cumulative IPC: 1.48885 (Simulation time: 0 hr 1 min 17 sec) 
Heartbeat CPU 0 instructions: 60000000 cycles: 40064157 heartbeat IPC: 1.54295 cumulative IPC: 1.4976 (Simulation time: 0 hr 1 min 33 sec) 
Heartbeat CPU 0 instructions: 70000000 cycles: 47101872 heartbeat IPC: 1.42092 cumulative IPC: 1.48614 (Simulation time: 0 hr 1 min 48 sec) 
Heartbeat CPU 0 instructions: 80000000 cycles: 54191329 heartbeat IPC: 1.41055 cumulative IPC: 1.47625 (Simulation time: 0 hr 2 min 3 sec) 
Heartbeat CPU 0 instructions: 90000003 cycles: 61195528 heartbeat IPC: 1.42772 cumulative IPC: 1.4707 (Simulation time: 0 hr 2 min 17 sec) 
Heartbeat CPU 0 instructions: 100000000 cycles: 68362698 heartbeat IPC: 1.39525 cumulative IPC: 1.46279 (Simulation time: 0 hr 2 min 32 sec) 

Warmup complete CPU 0 instructions: 100000004 cycles: 68362699 (Simulation time: 0 hr 2 min 32 sec) 

Heartbeat CPU 0 instructions: 110000003 cycles: 96034489 heartbeat IPC: 0.361379 cumulative IPC: 0.361379 (Simulation time: 0 hr 3 min 1 sec) 
Heartbeat CPU 0 instructions: 120000000 cycles: 123552898 heartbeat IPC: 0.363393 cumulative IPC: 0.362383 (Simulation time: 0 hr 3 min 30 sec) 
Heartbeat CPU 0 instructions: 130000000 cycles: 148587011 heartbeat IPC: 0.399455 cumulative IPC: 0.373951 (Simulation time: 0 hr 3 min 58 sec) 
Heartbeat CPU 0 instructions: 140000000 cycles: 178022769 heartbeat IPC: 0.339723 cumulative IPC: 0.364764 (Simulation time: 0 hr 4 min 26 sec) 
Heartbeat CPU 0 instructions: 150000000 cycles: 207872749 heartbeat IPC: 0.335009 cumulative IPC: 0.358397 (Simulation time: 0 hr 4 min 55 sec) 
Heartbeat CPU 0 instructions: 160000000 cycles: 235280529 heartbeat IPC: 0.36486 cumulative IPC: 0.359458 (Simulation time: 0 hr 5 min 23 sec) 
Heartbeat CPU 0 instructions: 170000001 cycles: 263348287 heartbeat IPC: 0.356281 cumulative IPC: 0.359001 (Simulation time: 0 hr 5 min 53 sec) 
Heartbeat CPU 0 instructions: 180000000 cycles: 291804313 heartbeat IPC: 0.351419 cumulative IPC: 0.358035 (Simulation time: 0 hr 6 min 22 sec) 
Heartbeat CPU 0 instructions: 190000002 cycles: 319816090 heartbeat IPC: 0.356993 cumulative IPC: 0.357919 (Simulation time: 0 hr 6 min 50 sec) 
Heartbeat CPU 0 instructions: 200000000 cycles: 348139979 heartbeat IPC: 0.353059 cumulative IPC: 0.357427 (Simulation time: 0 hr 7 min 20 sec) 
Heartbeat CPU 0 instructions: 210000002 cycles: 375949784 heartbeat IPC: 0.359585 cumulative IPC: 0.357622 (Simulation time: 0 hr 7 min 48 sec) 
Heartbeat CPU 0 instructions: 220000000 cycles: 405023976 heartbeat IPC: 0.343948 cumulative IPC: 0.356441 (Simulation time: 0 hr 8 min 16 sec) 
Heartbeat CPU 0 instructions: 230000000 cycles: 432603167 heartbeat IPC: 0.362592 cumulative IPC: 0.356907 (Simulation time: 0 hr 8 min 44 sec) 
Heartbeat CPU 0 instructions: 240000000 cycles: 458584942 heartbeat IPC: 0.384885 cumulative IPC: 0.35877 (Simulation time: 0 hr 9 min 11 sec) 
Heartbeat CPU 0 instructions: 250000000 cycles: 488751713 heartbeat IPC: 0.331491 cumulative IPC: 0.356812 (Simulation time: 0 hr 9 min 41 sec) 
Heartbeat CPU 0 instructions: 260000000 cycles: 515870429 heartbeat IPC: 0.368749 cumulative IPC: 0.357536 (Simulation time: 0 hr 10 min 9 sec) 
Heartbeat CPU 0 instructions: 270000003 cycles: 544348817 heartbeat IPC: 0.351144 cumulative IPC: 0.357153 (Simulation time: 0 hr 10 min 39 sec) 
Heartbeat CPU 0 instructions: 280000000 cycles: 572568393 heartbeat IPC: 0.354364 cumulative IPC: 0.356997 (Simulation time: 0 hr 11 min 9 sec) 
Heartbeat CPU 0 instructions: 290000000 cycles: 601433501 heartbeat IPC: 0.346439 cumulative IPC: 0.356425 (Simulation time: 0 hr 11 min 39 sec) 
Heartbeat CPU 0 instructions: 300000000 cycles: 631298521 heartbeat IPC: 0.33484 cumulative IPC: 0.35528 (Simulation time: 0 hr 12 min 7 sec) 
Heartbeat CPU 0 instructions: 310000001 cycles: 660653653 heartbeat IPC: 0.340656 cumulative IPC: 0.354555 (Simulation time: 0 hr 12 min 35 sec) 
Heartbeat CPU 0 instructions: 320000000 cycles: 688847311 heartbeat IPC: 0.35469 cumulative IPC: 0.354562 (Simulation time: 0 hr 13 min 3 sec) 
Heartbeat CPU 0 instructions: 330000000 cycles: 717474507 heartbeat IPC: 0.349318 cumulative IPC: 0.35433 (Simulation time: 0 hr 13 min 32 sec) 
Heartbeat CPU 0 instructions: 340000000 cycles: 746750299 heartbeat IPC: 0.341579 cumulative IPC: 0.35378 (Simulation time: 0 hr 14 min 0 sec) 
Heartbeat CPU 0 instructions: 350000003 cycles: 773730694 heartbeat IPC: 0.37064 cumulative IPC: 0.354425 (Simulation time: 0 hr 14 min 28 sec) 
Heartbeat CPU 0 instructions: 360000000 cycles: 801846244 heartbeat IPC: 0.355675 cumulative IPC: 0.354473 (Simulation time: 0 hr 14 min 56 sec) 
Heartbeat CPU 0 instructions: 370000000 cycles: 830058096 heartbeat IPC: 0.354461 cumulative IPC: 0.354472 (Simulation time: 0 hr 15 min 23 sec) 
Heartbeat CPU 0 instructions: 380000000 cycles: 858609362 heartbeat IPC: 0.350247 cumulative IPC: 0.35432 (Simulation time: 0 hr 15 min 50 sec) 
Heartbeat CPU 0 instructions: 390000001 cycles: 886234523 heartbeat IPC: 0.361989 cumulative IPC: 0.354579 (Simulation time: 0 hr 16 min 17 sec) 
Heartbeat CPU 0 instructions: 400000000 cycles: 914870263 heartbeat IPC: 0.349214 cumulative IPC: 0.354397 (Simulation time: 0 hr 16 min 45 sec) 
Heartbeat CPU 0 instructions: 410000001 cycles: 942182176 heartbeat IPC: 0.366141 cumulative IPC: 0.354764 (Simulation time: 0 hr 17 min 12 sec) 
Heartbeat CPU 0 instructions: 420000000 cycles: 969506144 heartbeat IPC: 0.365979 cumulative IPC: 0.355104 (Simulation time: 0 hr 17 min 39 sec) 
Heartbeat CPU 0 instructions: 430000002 cycles: 997210735 heartbeat IPC: 0.360951 cumulative IPC: 0.355279 (Simulation time: 0 hr 18 min 6 sec) 
Heartbeat CPU 0 instructions: 440000000 cycles: 1026743502 heartbeat IPC: 0.338607 cumulative IPC: 0.354765 (Simulation time: 0 hr 18 min 34 sec) 
Heartbeat CPU 0 instructions: 450000002 cycles: 1055970419 heartbeat IPC: 0.34215 cumulative IPC: 0.354392 (Simulation time: 0 hr 19 min 1 sec) 
Heartbeat CPU 0 instructions: 460000000 cycles: 1083680686 heartbeat IPC: 0.360877 cumulative IPC: 0.354569 (Simulation time: 0 hr 19 min 28 sec) 
Heartbeat CPU 0 instructions: 470000000 cycles: 1111336879 heartbeat IPC: 0.361583 cumulative IPC: 0.354755 (Simulation time: 0 hr 19 min 55 sec) 
Heartbeat CPU 0 instructions: 480000000 cycles: 1139241837 heartbeat IPC: 0.358359 cumulative IPC: 0.354849 (Simulation time: 0 hr 20 min 22 sec) 
Heartbeat CPU 0 instructions: 490000000 cycles: 1166848407 heartbeat IPC: 0.362233 cumulative IPC: 0.355034 (Simulation time: 0 hr 20 min 49 sec) 
Heartbeat CPU 0 instructions: 500000000 cycles: 1195153109 heartbeat IPC: 0.353298 cumulative IPC: 0.354991 (Simulation time: 0 hr 21 min 16 sec) 
Heartbeat CPU 0 instructions: 510000000 cycles: 1230057852 heartbeat IPC: 0.286494 cumulative IPC: 0.352933 (Simulation time: 0 hr 21 min 47 sec) 
Heartbeat CPU 0 instructions: 520000000 cycles: 1258037734 heartbeat IPC: 0.3574 cumulative IPC: 0.353038 (Simulation time: 0 hr 22 min 15 sec) 
Heartbeat CPU 0 instructions: 530000001 cycles: 1287269100 heartbeat IPC: 0.342098 cumulative IPC: 0.352775 (Simulation time: 0 hr 22 min 43 sec) 
Heartbeat CPU 0 instructions: 540000000 cycles: 1315283397 heartbeat IPC: 0.356961 cumulative IPC: 0.352869 (Simulation time: 0 hr 23 min 11 sec) 
Heartbeat CPU 0 instructions: 550000001 cycles: 1344515522 heartbeat IPC: 0.342089 cumulative IPC: 0.352622 (Simulation time: 0 hr 23 min 41 sec) 
Heartbeat CPU 0 instructions: 560000000 cycles: 1369890822 heartbeat IPC: 0.394084 cumulative IPC: 0.353431 (Simulation time: 0 hr 24 min 8 sec) 
Heartbeat CPU 0 instructions: 570000000 cycles: 1399358043 heartbeat IPC: 0.33936 cumulative IPC: 0.353119 (Simulation time: 0 hr 24 min 37 sec) 
Heartbeat CPU 0 instructions: 580000000 cycles: 1427355832 heartbeat IPC: 0.357171 cumulative IPC: 0.353203 (Simulation time: 0 hr 25 min 5 sec) 
Heartbeat CPU 0 instructions: 590000001 cycles: 1452240863 heartbeat IPC: 0.401848 cumulative IPC: 0.354077 (Simulation time: 0 hr 25 min 31 sec) 
Heartbeat CPU 0 instructions: 600000000 cycles: 1478472179 heartbeat IPC: 0.381224 cumulative IPC: 0.354582 (Simulation time: 0 hr 25 min 59 sec) 
Finished CPU 0 instructions: 500000000 cycles: 1410109502 cumulative IPC: 0.354582 (Simulation time: 0 hr 25 min 59 sec) 

CPU 0 Branch Prediction Accuracy: 86.4311% MPKI: 26.2662
Number of Branches: 96788573 Number of Mispredictions: 13133102
Number of LOAD Instructions: 164682285
Number of LOAD Instructions (ROI): 164682285
Number of STORE Instructions: 78194750
Number of STORE Instructions (ROI): 78194750
Total Destination Memory Operands: 83268534
Total Destination Memory Operands (ROI): 83268534
Total Source Memory Operands: 164712438
Total Source Memory Operands (ROI): 164712438
Number of DEPENDED LOADS: 7063622
Number of DEPENDED LOADS (ROI): 7063622
Number of SQ_ADDED: 83268522
Number of SQ_ADDED (ROI): 83268522
Number of LQ_ADDED: 236807082
Number of LQ_ADDED (ROI): 236807082
Number of Instructions read from trace: 600000066

ChampSim completed all CPUs

Region of Interest Statistics

CPU 0 cumulative IPC: 0.354582 instructions: 500000000 cycles: 1410109502
ITLB TOTAL     ACCESS:  100512977  HIT:  100308531  MISS:     204446
ITLB LOAD      ACCESS:  100512977  HIT:  100308531  MISS:     204446
ITLB RFO       ACCESS:          0  HIT:          0  MISS:          0
ITLB PREFETCH  ACCESS:          0  HIT:          0  MISS:          0
ITLB WRITEBACK ACCESS:          0  HIT:          0  MISS:          0
ITLB PREFETCH  REQUESTED:          0  ISSUED:          0  USEFUL:          0  USELESS:          0
ITLB TOTAL MSHR MERGED:     172422
ITLB LOAD MSHR MERGED:     172422
ITLB RFO MSHR MERGED:          0
ITLB PREFETCH MSHR MERGED:          0
ITLB WRITEBACK MSHR MERGED:          0
ITLB TOTAL ACCESSES:  100685399 HITS:  100308531 MISSES:     376868
ITLB LOAD ACCESSES:  100685399 HITS:  100308531 MISSES:     376868
ITLB RFO ACCESSES:          0 HITS:          0 MISSES:          0
ITLB PREFETCH ACCESSES:          0 HITS:          0 MISSES:          0
ITLB WRITEBACK ACCESSES:          0 HITS:          0 MISSES:          0
ITLB RQ ACCESS:  500000057
ITLB RQ TO_CACHE:  100685399
ITLB RQ MERGED:  399314658
ITLB RQ FORWARD:          0
ITLB WQ ACCESS:          0
ITLB WQ TO_CACHE:          0
ITLB WQ MERGED:          0
ITLB WQ FORWARD:          0
DTLB TOTAL     ACCESS:  165332214  HIT:  164697862  MISS:     634352
DTLB LOAD      ACCESS:  106288758  HIT:  105718783  MISS:     569975
DTLB RFO       ACCESS:   59043456  HIT:   58979079  MISS:      64377
DTLB PREFETCH  ACCESS:          0  HIT:          0  MISS:          0
DTLB WRITEBACK ACCESS:          0  HIT:          0  MISS:          0
DTLB PREFETCH  REQUESTED:          0  ISSUED:          0  USEFUL:          0  USELESS:          0
DTLB TOTAL MSHR MERGED:      99921
DTLB LOAD MSHR MERGED:      59428
DTLB RFO MSHR MERGED:      40493
DTLB PREFETCH MSHR MERGED:          0
DTLB WRITEBACK MSHR MERGED:          0
DTLB TOTAL ACCESSES:  165432135 HITS:  164697862 MISSES:     734273
DTLB LOAD ACCESSES:  106348186 HITS:  105718783 MISSES:     629403
DTLB RFO ACCESSES:   59083949 HITS:   58979079 MISSES:     104870
DTLB PREFETCH ACCESSES:          0 HITS:          0 MISSES:          0
DTLB WRITEBACK ACCESSES:          0 HITS:          0 MISSES:          0
DTLB RQ ACCESS:  200307283
DTLB RQ TO_CACHE:  165432135
DTLB RQ MERGED:   34875148
DTLB RQ FORWARD:          0
DTLB WQ ACCESS:          0
DTLB WQ TO_CACHE:          0
DTLB WQ MERGED:          0
DTLB WQ FORWARD:          0
L1D TOTAL     ACCESS:  281767991  HIT:  273858780  MISS:    7909211
L1D LOAD      ACCESS:  110406848  HIT:  107124687  MISS:    3282161
L1D RFO       ACCESS:   67096860  HIT:   66205268  MISS:     891592
L1D PREFETCH  ACCESS:  104264283  HIT:  100528825  MISS:    3735458
L1D WRITEBACK ACCESS:          0  HIT:          0  MISS:          0
L1D PREFETCH  REQUESTED:  110814381  ISSUED:  109115108  USEFUL:    1656327  USELESS:    2079095
L1D TOTAL MSHR MERGED:    2931315
L1D LOAD MSHR MERGED:     509224
L1D RFO MSHR MERGED:    1890010
L1D PREFETCH MSHR MERGED:     532081
L1D WRITEBACK MSHR MERGED:          0
L1D TOTAL ACCESSES:  284726887 HITS:  273886361 MISSES:   10840526
L1D LOAD ACCESSES:  110815958 HITS:  107126264 MISSES:    3689694
L1D RFO ACCESSES:   68974063 HITS:   66205268 MISSES:    2768795
L1D PREFETCH ACCESSES:  104936866 HITS:  100554829 MISSES:    4382037
L1D WRITEBACK ACCESSES:          0 HITS:          0 MISSES:          0
L1D RQ ACCESS:  130754680
L1D RQ TO_CACHE:  110814384
L1D RQ MERGED:   19938719
L1D RQ FORWARD:          0
L1D WQ ACCESS:   69552603
L1D WQ TO_CACHE:   68974064
L1D WQ MERGED:     578539
L1D WQ FORWARD:      27581
L1I TOTAL     ACCESS:  126559994  HIT:  122321441  MISS:    4238553
L1I LOAD      ACCESS:  126559994  HIT:  122321441  MISS:    4238553
L1I RFO       ACCESS:          0  HIT:          0  MISS:          0
L1I PREFETCH  ACCESS:          0  HIT:          0  MISS:          0
L1I WRITEBACK ACCESS:          0  HIT:          0  MISS:          0
L1I PREFETCH  REQUESTED:          0  ISSUED:          0  USEFUL:          0  USELESS:          0
L1I TOTAL MSHR MERGED:    1834516
L1I LOAD MSHR MERGED:    1834516
L1I RFO MSHR MERGED:          0
L1I PREFETCH MSHR MERGED:          0
L1I WRITEBACK MSHR MERGED:          0
L1I TOTAL ACCESSES:  128394513 HITS:  122321441 MISSES:    6073072
L1I LOAD ACCESSES:  128394513 HITS:  122321441 MISSES:    6073072
L1I RFO ACCESSES:          0 HITS:          0 MISSES:          0
L1I PREFETCH ACCESSES:          0 HITS:          0 MISSES:          0
L1I WRITEBACK ACCESSES:          0 HITS:          0 MISSES:          0
L1I RQ ACCESS:  500000057
L1I RQ TO_CACHE:  128394513
L1I RQ MERGED:  371605544
L1I RQ FORWARD:          0
L1I WQ ACCESS:          0
L1I WQ TO_CACHE:          0
L1I WQ MERGED:          0
L1I WQ FORWARD:          0
L2C TOTAL     ACCESS:   14903230  HIT:   11156907  MISS:    3746323
L2C LOAD      ACCESS:    7418815  HIT:    5098348  MISS:    2320467
L2C RFO       ACCESS:     878685  HIT:     409909  MISS:     468776
L2C PREFETCH  ACCESS:    4566506  HIT:    3626679  MISS:     939827
L2C WRITEBACK ACCESS:    2039224  HIT:    2021971  MISS:      17253
L2C PREFETCH  REQUESTED:     842468  ISSUED:     842468  USEFUL:     202858  USELESS:     736675
L2C TOTAL MSHR MERGED:       8743
L2C LOAD MSHR MERGED:       1284
L2C RFO MSHR MERGED:          0
L2C PREFETCH MSHR MERGED:       7459
L2C WRITEBACK MSHR MERGED:          0
L2C TOTAL ACCESSES:   14912904 HITS:   11157356 MISSES:    3755548
L2C LOAD ACCESSES:    7419023 HITS:    5098556 MISSES:    2320467
L2C RFO ACCESSES:     878785 HITS:     410009 MISSES:     468776
L2C PREFETCH ACCESSES:    4575872 HITS:    3626820 MISSES:     949052
L2C WRITEBACK ACCESSES:    2039224 HITS:    2021971 MISSES:      17253
L2C RQ ACCESS:    8297811
L2C RQ TO_CACHE:    8297503
L2C RQ MERGED:          0
L2C RQ FORWARD:          0
L2C WQ ACCESS:    2039224
L2C WQ TO_CACHE:    2039224
L2C WQ MERGED:          0
L2C WQ FORWARD:        449
LLC TOTAL     ACCESS:    4609652  HIT:    3807603  MISS:     802049
LLC LOAD      ACCESS:    2319171  HIT:    2085881  MISS:     233290
LLC RFO       ACCESS:     468764  HIT:     361263  MISS:     107501
LLC PREFETCH  ACCESS:     941471  HIT:     581917  MISS:     359554
LLC WRITEBACK ACCESS:     880246  HIT:     778542  MISS:     101704
LLC PREFETCH  REQUESTED:          0  ISSUED:          0  USEFUL:      17657  USELESS:     342333
LLC TOTAL MSHR MERGED:        105
LLC LOAD MSHR MERGED:         40
LLC RFO MSHR MERGED:          0
LLC PREFETCH MSHR MERGED:         65
LLC WRITEBACK MSHR MERGED:          0
LLC TOTAL ACCESSES:    4609791 HITS:    3807637 MISSES:     802154
LLC LOAD ACCESSES:    2319183 HITS:    2085893 MISSES:     233290
LLC RFO ACCESSES:     468776 HITS:     361275 MISSES:     107501
LLC PREFETCH ACCESSES:     941586 HITS:     581927 MISSES:     359659
LLC WRITEBACK ACCESSES:     880246 HITS:     778542 MISSES:     101704
LLC 0 RQ ACCESS:    2787959
LLC 0 RQ TO_CACHE:    2787935
LLC 0 RQ MERGED:          0
LLC 0 RQ FORWARD:          0
LLC WQ ACCESS:     880246
LLC WQ TO_CACHE:     880246
LLC WQ MERGED:          0
LLC WQ FORWARD:         34
Major fault: 0 Minor fault: 12862
CPU 0 L1D next line prefetcher final stats
CPU 0 L2C PC-based stride prefetcher final stats
All Misses: 965623
All Hits: 4461035
SD Algo Stats - Switches: 0 SRR-Repls: 272402 BRR-Repls: 0

DRAM Statistics
 CHANNEL 0
 RQ ROW_BUFFER_HIT:     144282  ROW_BUFFER_MISS:     552564
 DBUS_CONGESTED:     429035
 WQ ROW_BUFFER_HIT:      23999  ROW_BUFFER_MISS:     232703  FULL:          0

 AVG_CONGESTED_CYCLE: 13
LOADS RETIRED: 136549171
INSTR RETIRED: 500000000
