
*** ChampSim Multicore Out-of-Order Simulator ***

Warmup Instructions: 100000000
Simulation Instructions: 500000000
Number of CPUs: 1
LLC sets: 2048
LLC ways: 16
Clean RRIP Policies: 323110303231103 Dirty RRIP Policies: 2303210323032103 PSEL Width: 10 Track Set: 4294967295 PSEL Mask: 1 Demote Mask: 4300143343001433DS Algo: 0Window size: 0
Off-chip DRAM Size: 4096 MB Channels: 1 Width: 64-bit Data Rate: 1600 MT/s

CPU 0 runs /mnt/beegfs/iconst01/spec2017/Gcc.trace.gz
NOT SORTED
TRACE STRING: /mnt/beegfs/iconst01/spec2017/Gcc.trace.gz
SORTED
TRACE STRING: /mnt/beegfs/iconst01/spec2017/Gcc.trace.gz
INITIAL
TRACE STRING: /mnt/beegfs/iconst01/spec2017/Gcc.trace.gz

champsim_seed used: 269

CPU 0 L1D next line prefetcher
CPU 0 L2C IP-based stride prefetcher
Initialize DRRIP state
Assign rand_sets[0]: 454  LLC: 2048
rand_sets[0]: 454
Assign rand_sets[1]: 1662  LLC: 2048
rand_sets[1]: 1662
Assign rand_sets[2]: 1921  LLC: 2048
rand_sets[2]: 1921
Assign rand_sets[3]: 1131  LLC: 2048
rand_sets[3]: 1131
Assign rand_sets[4]: 331  LLC: 2048
rand_sets[4]: 331
Assign rand_sets[5]: 1531  LLC: 2048
rand_sets[5]: 1531
Assign rand_sets[6]: 482  LLC: 2048
rand_sets[6]: 482
Assign rand_sets[7]: 1275  LLC: 2048
rand_sets[7]: 1275
Assign rand_sets[8]: 1876  LLC: 2048
rand_sets[8]: 1876
Assign rand_sets[9]: 2038  LLC: 2048
rand_sets[9]: 2038
Assign rand_sets[10]: 701  LLC: 2048
rand_sets[10]: 701
Assign rand_sets[11]: 479  LLC: 2048
rand_sets[11]: 479
Assign rand_sets[12]: 892  LLC: 2048
rand_sets[12]: 892
Assign rand_sets[13]: 1820  LLC: 2048
rand_sets[13]: 1820
Assign rand_sets[14]: 1505  LLC: 2048
rand_sets[14]: 1505
Assign rand_sets[15]: 1159  LLC: 2048
rand_sets[15]: 1159
Assign rand_sets[16]: 513  LLC: 2048
rand_sets[16]: 513
Assign rand_sets[17]: 703  LLC: 2048
rand_sets[17]: 703
Assign rand_sets[18]: 561  LLC: 2048
rand_sets[18]: 561
Assign rand_sets[19]: 990  LLC: 2048
rand_sets[19]: 990
Assign rand_sets[20]: 342  LLC: 2048
rand_sets[20]: 342
Assign rand_sets[21]: 882  LLC: 2048
rand_sets[21]: 882
Assign rand_sets[22]: 15  LLC: 2048
rand_sets[22]: 15
Assign rand_sets[23]: 71  LLC: 2048
rand_sets[23]: 71
Assign rand_sets[24]: 1127  LLC: 2048
rand_sets[24]: 1127
Assign rand_sets[25]: 1382  LLC: 2048
rand_sets[25]: 1382
Assign rand_sets[26]: 647  LLC: 2048
rand_sets[26]: 647
Assign rand_sets[27]: 857  LLC: 2048
rand_sets[27]: 857
Assign rand_sets[28]: 1450  LLC: 2048
rand_sets[28]: 1450
Assign rand_sets[29]: 1160  LLC: 2048
rand_sets[29]: 1160
Assign rand_sets[30]: 1852  LLC: 2048
rand_sets[30]: 1852
Assign rand_sets[31]: 1881  LLC: 2048
rand_sets[31]: 1881
Assign rand_sets[32]: 1770  LLC: 2048
rand_sets[32]: 1770
Assign rand_sets[33]: 1622  LLC: 2048
rand_sets[33]: 1622
Assign rand_sets[34]: 275  LLC: 2048
rand_sets[34]: 275
Assign rand_sets[35]: 635  LLC: 2048
rand_sets[35]: 635
Assign rand_sets[36]: 466  LLC: 2048
rand_sets[36]: 466
Assign rand_sets[37]: 1413  LLC: 2048
rand_sets[37]: 1413
Assign rand_sets[38]: 417  LLC: 2048
rand_sets[38]: 417
Assign rand_sets[39]: 472  LLC: 2048
rand_sets[39]: 472
Assign rand_sets[40]: 1340  LLC: 2048
rand_sets[40]: 1340
Assign rand_sets[41]: 852  LLC: 2048
rand_sets[41]: 852
Assign rand_sets[42]: 1365  LLC: 2048
rand_sets[42]: 1365
Assign rand_sets[43]: 47  LLC: 2048
rand_sets[43]: 47
Assign rand_sets[44]: 823  LLC: 2048
rand_sets[44]: 823
Assign rand_sets[45]: 686  LLC: 2048
rand_sets[45]: 686
Assign rand_sets[46]: 1637  LLC: 2048
rand_sets[46]: 1637
Assign rand_sets[47]: 1115  LLC: 2048
rand_sets[47]: 1115
Assign rand_sets[48]: 986  LLC: 2048
rand_sets[48]: 986
Assign rand_sets[49]: 258  LLC: 2048
rand_sets[49]: 258
Assign rand_sets[50]: 633  LLC: 2048
rand_sets[50]: 633
Assign rand_sets[51]: 920  LLC: 2048
rand_sets[51]: 920
Assign rand_sets[52]: 204  LLC: 2048
rand_sets[52]: 204
Assign rand_sets[53]: 227  LLC: 2048
rand_sets[53]: 227
Assign rand_sets[54]: 1818  LLC: 2048
rand_sets[54]: 1818
Assign rand_sets[55]: 886  LLC: 2048
rand_sets[55]: 886
Assign rand_sets[56]: 1422  LLC: 2048
rand_sets[56]: 1422
Assign rand_sets[57]: 607  LLC: 2048
rand_sets[57]: 607
Assign rand_sets[58]: 217  LLC: 2048
rand_sets[58]: 217
Assign rand_sets[59]: 1945  LLC: 2048
rand_sets[59]: 1945
Assign rand_sets[60]: 143  LLC: 2048
rand_sets[60]: 143
Assign rand_sets[61]: 1311  LLC: 2048
rand_sets[61]: 1311
Assign rand_sets[62]: 319  LLC: 2048
rand_sets[62]: 319
Assign rand_sets[63]: 1846  LLC: 2048
rand_sets[63]: 1846
 CLEAN-RRIP-POLICY-1: 0-3-2-3-1-1-0-3- CLEAN-RRIP-POLICY-2: 0-3-2-3-1-1-0-3-
 DIRTY-RRIP-POLICY-1: 2-3-0-3-2-1-0-3- DIRTY-RRIP-POLICY-2: 2-3-0-3-2-1-0-3-
 PSEL width: 10
Heartbeat CPU 0 instructions: 10000001 cycles: 7321625 heartbeat IPC: 1.36582 cumulative IPC: 1.36582 (Simulation time: 0 hr 0 min 15 sec) 
Heartbeat CPU 0 instructions: 20000000 cycles: 14328006 heartbeat IPC: 1.42727 cumulative IPC: 1.39587 (Simulation time: 0 hr 0 min 29 sec) 
Heartbeat CPU 0 instructions: 30000001 cycles: 21045401 heartbeat IPC: 1.48867 cumulative IPC: 1.42549 (Simulation time: 0 hr 0 min 45 sec) 
Heartbeat CPU 0 instructions: 40000000 cycles: 27507827 heartbeat IPC: 1.54741 cumulative IPC: 1.45413 (Simulation time: 0 hr 1 min 2 sec) 
Heartbeat CPU 0 instructions: 50000001 cycles: 33610820 heartbeat IPC: 1.63854 cumulative IPC: 1.48762 (Simulation time: 0 hr 1 min 17 sec) 
Heartbeat CPU 0 instructions: 60000000 cycles: 40093185 heartbeat IPC: 1.54265 cumulative IPC: 1.49651 (Simulation time: 0 hr 1 min 33 sec) 
Heartbeat CPU 0 instructions: 70000000 cycles: 47136505 heartbeat IPC: 1.41979 cumulative IPC: 1.48505 (Simulation time: 0 hr 1 min 49 sec) 
Heartbeat CPU 0 instructions: 80000000 cycles: 54232076 heartbeat IPC: 1.40933 cumulative IPC: 1.47514 (Simulation time: 0 hr 2 min 4 sec) 
Heartbeat CPU 0 instructions: 90000003 cycles: 61242413 heartbeat IPC: 1.42647 cumulative IPC: 1.46957 (Simulation time: 0 hr 2 min 19 sec) 
Heartbeat CPU 0 instructions: 100000000 cycles: 68415365 heartbeat IPC: 1.39413 cumulative IPC: 1.46166 (Simulation time: 0 hr 2 min 33 sec) 

Warmup complete CPU 0 instructions: 100000004 cycles: 68415366 (Simulation time: 0 hr 2 min 33 sec) 

Heartbeat CPU 0 instructions: 110000003 cycles: 96879244 heartbeat IPC: 0.351323 cumulative IPC: 0.351322 (Simulation time: 0 hr 3 min 3 sec) 
Heartbeat CPU 0 instructions: 120000000 cycles: 124544553 heartbeat IPC: 0.361463 cumulative IPC: 0.356321 (Simulation time: 0 hr 3 min 32 sec) 
Heartbeat CPU 0 instructions: 130000000 cycles: 149737640 heartbeat IPC: 0.396934 cumulative IPC: 0.368903 (Simulation time: 0 hr 4 min 1 sec) 
Heartbeat CPU 0 instructions: 140000000 cycles: 180612100 heartbeat IPC: 0.323892 cumulative IPC: 0.356517 (Simulation time: 0 hr 4 min 31 sec) 
Heartbeat CPU 0 instructions: 150000000 cycles: 211360949 heartbeat IPC: 0.325215 cumulative IPC: 0.349783 (Simulation time: 0 hr 5 min 0 sec) 
Heartbeat CPU 0 instructions: 160000000 cycles: 239056361 heartbeat IPC: 0.361071 cumulative IPC: 0.351615 (Simulation time: 0 hr 5 min 29 sec) 
Heartbeat CPU 0 instructions: 170000001 cycles: 267397422 heartbeat IPC: 0.352845 cumulative IPC: 0.35179 (Simulation time: 0 hr 5 min 59 sec) 
Heartbeat CPU 0 instructions: 180000000 cycles: 296178704 heartbeat IPC: 0.347448 cumulative IPC: 0.351242 (Simulation time: 0 hr 6 min 29 sec) 
Heartbeat CPU 0 instructions: 190000002 cycles: 324621298 heartbeat IPC: 0.351585 cumulative IPC: 0.35128 (Simulation time: 0 hr 6 min 58 sec) 
Heartbeat CPU 0 instructions: 200000000 cycles: 353364199 heartbeat IPC: 0.347912 cumulative IPC: 0.35094 (Simulation time: 0 hr 7 min 28 sec) 
Heartbeat CPU 0 instructions: 210000002 cycles: 381630025 heartbeat IPC: 0.353784 cumulative IPC: 0.351197 (Simulation time: 0 hr 7 min 58 sec) 
Heartbeat CPU 0 instructions: 220000000 cycles: 411886018 heartbeat IPC: 0.330513 cumulative IPC: 0.349375 (Simulation time: 0 hr 8 min 26 sec) 
Heartbeat CPU 0 instructions: 230000000 cycles: 439904525 heartbeat IPC: 0.356907 cumulative IPC: 0.349943 (Simulation time: 0 hr 8 min 55 sec) 
Heartbeat CPU 0 instructions: 240000000 cycles: 466150473 heartbeat IPC: 0.381011 cumulative IPC: 0.351993 (Simulation time: 0 hr 9 min 23 sec) 
Heartbeat CPU 0 instructions: 250000000 cycles: 496309043 heartbeat IPC: 0.331581 cumulative IPC: 0.350554 (Simulation time: 0 hr 9 min 53 sec) 
Heartbeat CPU 0 instructions: 260000000 cycles: 523484583 heartbeat IPC: 0.367978 cumulative IPC: 0.351595 (Simulation time: 0 hr 10 min 22 sec) 
Heartbeat CPU 0 instructions: 270000003 cycles: 552033789 heartbeat IPC: 0.350273 cumulative IPC: 0.351517 (Simulation time: 0 hr 10 min 52 sec) 
Heartbeat CPU 0 instructions: 280000000 cycles: 580393227 heartbeat IPC: 0.352616 cumulative IPC: 0.351578 (Simulation time: 0 hr 11 min 23 sec) 
Heartbeat CPU 0 instructions: 290000000 cycles: 609460751 heartbeat IPC: 0.344027 cumulative IPC: 0.351172 (Simulation time: 0 hr 11 min 53 sec) 
Heartbeat CPU 0 instructions: 300000000 cycles: 640032423 heartbeat IPC: 0.3271 cumulative IPC: 0.349885 (Simulation time: 0 hr 12 min 22 sec) 
Heartbeat CPU 0 instructions: 310000001 cycles: 669903384 heartbeat IPC: 0.334773 cumulative IPC: 0.349134 (Simulation time: 0 hr 12 min 51 sec) 
Heartbeat CPU 0 instructions: 320000000 cycles: 698698205 heartbeat IPC: 0.347285 cumulative IPC: 0.34905 (Simulation time: 0 hr 13 min 20 sec) 
Heartbeat CPU 0 instructions: 330000000 cycles: 727733621 heartbeat IPC: 0.344407 cumulative IPC: 0.348845 (Simulation time: 0 hr 13 min 49 sec) 
Heartbeat CPU 0 instructions: 340000000 cycles: 757456648 heartbeat IPC: 0.336439 cumulative IPC: 0.34831 (Simulation time: 0 hr 14 min 18 sec) 
Heartbeat CPU 0 instructions: 350000003 cycles: 784794183 heartbeat IPC: 0.365798 cumulative IPC: 0.348977 (Simulation time: 0 hr 14 min 47 sec) 
Heartbeat CPU 0 instructions: 360000000 cycles: 814801710 heartbeat IPC: 0.33325 cumulative IPC: 0.348345 (Simulation time: 0 hr 15 min 16 sec) 
Heartbeat CPU 0 instructions: 370000000 cycles: 844951292 heartbeat IPC: 0.33168 cumulative IPC: 0.347698 (Simulation time: 0 hr 15 min 44 sec) 
Heartbeat CPU 0 instructions: 380000000 cycles: 875410811 heartbeat IPC: 0.328305 cumulative IPC: 0.346966 (Simulation time: 0 hr 16 min 13 sec) 
Heartbeat CPU 0 instructions: 390000001 cycles: 905043279 heartbeat IPC: 0.337468 cumulative IPC: 0.34663 (Simulation time: 0 hr 16 min 41 sec) 
Heartbeat CPU 0 instructions: 400000000 cycles: 935533614 heartbeat IPC: 0.327973 cumulative IPC: 0.345974 (Simulation time: 0 hr 17 min 10 sec) 
Heartbeat CPU 0 instructions: 410000001 cycles: 964886014 heartbeat IPC: 0.340688 cumulative IPC: 0.3458 (Simulation time: 0 hr 17 min 38 sec) 
Heartbeat CPU 0 instructions: 420000000 cycles: 994257619 heartbeat IPC: 0.340465 cumulative IPC: 0.345631 (Simulation time: 0 hr 18 min 7 sec) 
Heartbeat CPU 0 instructions: 430000002 cycles: 1024012626 heartbeat IPC: 0.336078 cumulative IPC: 0.345334 (Simulation time: 0 hr 18 min 35 sec) 
Heartbeat CPU 0 instructions: 440000000 cycles: 1054977314 heartbeat IPC: 0.322948 cumulative IPC: 0.344631 (Simulation time: 0 hr 19 min 4 sec) 
Heartbeat CPU 0 instructions: 450000002 cycles: 1085754194 heartbeat IPC: 0.324919 cumulative IPC: 0.344035 (Simulation time: 0 hr 19 min 32 sec) 
Heartbeat CPU 0 instructions: 460000000 cycles: 1115438650 heartbeat IPC: 0.336877 cumulative IPC: 0.343832 (Simulation time: 0 hr 20 min 0 sec) 
Heartbeat CPU 0 instructions: 470000000 cycles: 1144829723 heartbeat IPC: 0.340239 cumulative IPC: 0.343734 (Simulation time: 0 hr 20 min 27 sec) 
Heartbeat CPU 0 instructions: 480000000 cycles: 1174455357 heartbeat IPC: 0.337546 cumulative IPC: 0.343568 (Simulation time: 0 hr 20 min 55 sec) 
Heartbeat CPU 0 instructions: 490000000 cycles: 1203798996 heartbeat IPC: 0.340789 cumulative IPC: 0.343496 (Simulation time: 0 hr 21 min 23 sec) 
Heartbeat CPU 0 instructions: 500000000 cycles: 1233555176 heartbeat IPC: 0.336065 cumulative IPC: 0.343306 (Simulation time: 0 hr 21 min 51 sec) 
Heartbeat CPU 0 instructions: 510000000 cycles: 1268366197 heartbeat IPC: 0.287265 cumulative IPC: 0.341681 (Simulation time: 0 hr 22 min 21 sec) 
Heartbeat CPU 0 instructions: 520000000 cycles: 1296252722 heartbeat IPC: 0.358596 cumulative IPC: 0.342065 (Simulation time: 0 hr 22 min 49 sec) 
Heartbeat CPU 0 instructions: 530000001 cycles: 1326258359 heartbeat IPC: 0.333271 cumulative IPC: 0.341855 (Simulation time: 0 hr 23 min 18 sec) 
Heartbeat CPU 0 instructions: 540000000 cycles: 1354820020 heartbeat IPC: 0.35012 cumulative IPC: 0.342039 (Simulation time: 0 hr 23 min 46 sec) 
Heartbeat CPU 0 instructions: 550000001 cycles: 1384080299 heartbeat IPC: 0.34176 cumulative IPC: 0.342032 (Simulation time: 0 hr 24 min 15 sec) 
Heartbeat CPU 0 instructions: 560000000 cycles: 1409617703 heartbeat IPC: 0.391582 cumulative IPC: 0.342976 (Simulation time: 0 hr 24 min 43 sec) 
Heartbeat CPU 0 instructions: 570000000 cycles: 1439452529 heartbeat IPC: 0.335179 cumulative IPC: 0.342806 (Simulation time: 0 hr 25 min 12 sec) 
Heartbeat CPU 0 instructions: 580000000 cycles: 1467824469 heartbeat IPC: 0.352461 cumulative IPC: 0.343002 (Simulation time: 0 hr 25 min 40 sec) 
Heartbeat CPU 0 instructions: 590000001 cycles: 1492769484 heartbeat IPC: 0.400882 cumulative IPC: 0.344016 (Simulation time: 0 hr 26 min 7 sec) 
Heartbeat CPU 0 instructions: 600000000 cycles: 1519308939 heartbeat IPC: 0.376797 cumulative IPC: 0.344615 (Simulation time: 0 hr 26 min 34 sec) 
Finished CPU 0 instructions: 500000000 cycles: 1450893595 cumulative IPC: 0.344615 (Simulation time: 0 hr 26 min 34 sec) 

CPU 0 Branch Prediction Accuracy: 86.4311% MPKI: 26.2662
Number of Branches: 96788573 Number of Mispredictions: 13133102
Number of LOAD Instructions: 164682285
Number of LOAD Instructions (ROI): 164682285
Number of STORE Instructions: 78194750
Number of STORE Instructions (ROI): 78194750
Total Destination Memory Operands: 83268534
Total Destination Memory Operands (ROI): 83268534
Total Source Memory Operands: 164712438
Total Source Memory Operands (ROI): 164712438
Number of DEPENDED LOADS: 7056563
Number of DEPENDED LOADS (ROI): 7056563
Number of SQ_ADDED: 83268522
Number of SQ_ADDED (ROI): 83268522
Number of LQ_ADDED: 236628083
Number of LQ_ADDED (ROI): 236628083
Number of Instructions read from trace: 600000066

ChampSim completed all CPUs

Region of Interest Statistics

CPU 0 cumulative IPC: 0.344615 instructions: 500000000 cycles: 1450893595
ITLB TOTAL     ACCESS:  100522947  HIT:  100318501  MISS:     204446
ITLB LOAD      ACCESS:  100522947  HIT:  100318501  MISS:     204446
ITLB RFO       ACCESS:          0  HIT:          0  MISS:          0
ITLB PREFETCH  ACCESS:          0  HIT:          0  MISS:          0
ITLB WRITEBACK ACCESS:          0  HIT:          0  MISS:          0
ITLB PREFETCH  REQUESTED:          0  ISSUED:          0  USEFUL:          0  USELESS:          0
ITLB TOTAL MSHR MERGED:     172424
ITLB LOAD MSHR MERGED:     172424
ITLB RFO MSHR MERGED:          0
ITLB PREFETCH MSHR MERGED:          0
ITLB WRITEBACK MSHR MERGED:          0
ITLB TOTAL ACCESSES:  100695371 HITS:  100318501 MISSES:     376870
ITLB LOAD ACCESSES:  100695371 HITS:  100318501 MISSES:     376870
ITLB RFO ACCESSES:          0 HITS:          0 MISSES:          0
ITLB PREFETCH ACCESSES:          0 HITS:          0 MISSES:          0
ITLB WRITEBACK ACCESSES:          0 HITS:          0 MISSES:          0
ITLB RQ ACCESS:  500000057
ITLB RQ TO_CACHE:  100695371
ITLB RQ MERGED:  399304686
ITLB RQ FORWARD:          0
ITLB WQ ACCESS:          0
ITLB WQ TO_CACHE:          0
ITLB WQ MERGED:          0
ITLB WQ FORWARD:          0
DTLB TOTAL     ACCESS:  165349547  HIT:  164715188  MISS:     634359
DTLB LOAD      ACCESS:  106300695  HIT:  105730678  MISS:     570017
DTLB RFO       ACCESS:   59048852  HIT:   58984510  MISS:      64342
DTLB PREFETCH  ACCESS:          0  HIT:          0  MISS:          0
DTLB WRITEBACK ACCESS:          0  HIT:          0  MISS:          0
DTLB PREFETCH  REQUESTED:          0  ISSUED:          0  USEFUL:          0  USELESS:          0
DTLB TOTAL MSHR MERGED:      99665
DTLB LOAD MSHR MERGED:      59321
DTLB RFO MSHR MERGED:      40344
DTLB PREFETCH MSHR MERGED:          0
DTLB WRITEBACK MSHR MERGED:          0
DTLB TOTAL ACCESSES:  165449212 HITS:  164715188 MISSES:     734024
DTLB LOAD ACCESSES:  106360016 HITS:  105730678 MISSES:     629338
DTLB RFO ACCESSES:   59089196 HITS:   58984510 MISSES:     104686
DTLB PREFETCH ACCESSES:          0 HITS:          0 MISSES:          0
DTLB WRITEBACK ACCESSES:          0 HITS:          0 MISSES:          0
DTLB RQ ACCESS:  200314350
DTLB RQ TO_CACHE:  165449212
DTLB RQ MERGED:   34865138
DTLB RQ FORWARD:          0
DTLB WQ ACCESS:          0
DTLB WQ TO_CACHE:          0
DTLB WQ MERGED:          0
DTLB WQ FORWARD:          0
L1D TOTAL     ACCESS:  281873047  HIT:  273963602  MISS:    7909445
L1D LOAD      ACCESS:  110429239  HIT:  107151198  MISS:    3278041
L1D RFO       ACCESS:   67130251  HIT:   66240136  MISS:     890115
L1D PREFETCH  ACCESS:  104313557  HIT:  100572268  MISS:    3741289
L1D WRITEBACK ACCESS:          0  HIT:          0  MISS:          0
L1D PREFETCH  REQUESTED:  110827320  ISSUED:  109127961  USEFUL:    1661883  USELESS:    2079370
L1D TOTAL MSHR MERGED:    2856306
L1D LOAD MSHR MERGED:     495770
L1D RFO MSHR MERGED:    1855256
L1D PREFETCH MSHR MERGED:     505280
L1D WRITEBACK MSHR MERGED:          0
L1D TOTAL ACCESSES:  284756758 HITS:  273991007 MISSES:   10765751
L1D LOAD ACCESSES:  110828763 HITS:  107152641 MISSES:    3676122
L1D RFO ACCESSES:   68974094 HITS:   66240136 MISSES:    2733958
L1D PREFETCH ACCESSES:  104953901 HITS:  100598230 MISSES:    4355671
L1D WRITEBACK ACCESSES:          0 HITS:          0 MISSES:          0
L1D RQ ACCESS:  130761747
L1D RQ TO_CACHE:  110827323
L1D RQ MERGED:   19932981
L1D RQ FORWARD:          0
L1D WQ ACCESS:   69552603
L1D WQ TO_CACHE:   68974095
L1D WQ MERGED:     578508
L1D WQ FORWARD:      27405
L1I TOTAL     ACCESS:  126567060  HIT:  122328510  MISS:    4238550
L1I LOAD      ACCESS:  126567060  HIT:  122328510  MISS:    4238550
L1I RFO       ACCESS:          0  HIT:          0  MISS:          0
L1I PREFETCH  ACCESS:          0  HIT:          0  MISS:          0
L1I WRITEBACK ACCESS:          0  HIT:          0  MISS:          0
L1I PREFETCH  REQUESTED:          0  ISSUED:          0  USEFUL:          0  USELESS:          0
L1I TOTAL MSHR MERGED:    1838088
L1I LOAD MSHR MERGED:    1838088
L1I RFO MSHR MERGED:          0
L1I PREFETCH MSHR MERGED:          0
L1I WRITEBACK MSHR MERGED:          0
L1I TOTAL ACCESSES:  128405151 HITS:  122328510 MISSES:    6076641
L1I LOAD ACCESSES:  128405151 HITS:  122328510 MISSES:    6076641
L1I RFO ACCESSES:          0 HITS:          0 MISSES:          0
L1I PREFETCH ACCESSES:          0 HITS:          0 MISSES:          0
L1I WRITEBACK ACCESSES:          0 HITS:          0 MISSES:          0
L1I RQ ACCESS:  500000057
L1I RQ TO_CACHE:  128405151
L1I RQ MERGED:  371594906
L1I RQ FORWARD:          0
L1I WQ ACCESS:          0
L1I WQ TO_CACHE:          0
L1I WQ MERGED:          0
L1I WQ FORWARD:          0
L2C TOTAL     ACCESS:   14905734  HIT:   11159273  MISS:    3746461
L2C LOAD      ACCESS:    7418692  HIT:    5098881  MISS:    2319811
L2C RFO       ACCESS:     878604  HIT:     409913  MISS:     468691
L2C PREFETCH  ACCESS:    4569180  HIT:    3628481  MISS:     940699
L2C WRITEBACK ACCESS:    2039258  HIT:    2021998  MISS:      17260
L2C PREFETCH  REQUESTED:     842891  ISSUED:     842891  USEFUL:     203572  USELESS:     736833
L2C TOTAL MSHR MERGED:       6743
L2C LOAD MSHR MERGED:        712
L2C RFO MSHR MERGED:          0
L2C PREFETCH MSHR MERGED:       6031
L2C WRITEBACK MSHR MERGED:          0
L2C TOTAL ACCESSES:   14913388 HITS:   11159725 MISSES:    3753663
L2C LOAD ACCESSES:    7418902 HITS:    5099091 MISSES:    2319811
L2C RFO ACCESSES:     878702 HITS:     410011 MISSES:     468691
L2C PREFETCH ACCESSES:    4576526 HITS:    3628625 MISSES:     947901
L2C WRITEBACK ACCESSES:    2039258 HITS:    2021998 MISSES:      17260
L2C RQ ACCESS:    8297607
L2C RQ TO_CACHE:    8297299
L2C RQ MERGED:          0
L2C RQ FORWARD:          0
L2C WQ ACCESS:    2039258
L2C WQ TO_CACHE:    2039258
L2C WQ MERGED:          0
L2C WQ FORWARD:        452
LLC TOTAL     ACCESS:    4609828  HIT:    3482558  MISS:    1127270
LLC LOAD      ACCESS:    2319086  HIT:    1630429  MISS:     688657
LLC RFO       ACCESS:     468680  HIT:     417232  MISS:      51448
LLC PREFETCH  ACCESS:     941757  HIT:     623764  MISS:     317993
LLC WRITEBACK ACCESS:     880305  HIT:     811133  MISS:      69172
LLC PREFETCH  REQUESTED:          0  ISSUED:          0  USEFUL:      13731  USELESS:     302964
LLC TOTAL MSHR MERGED:         96
LLC LOAD MSHR MERGED:         32
LLC RFO MSHR MERGED:          0
LLC PREFETCH MSHR MERGED:         64
LLC WRITEBACK MSHR MERGED:          0
LLC TOTAL ACCESSES:    4609962 HITS:    3482596 MISSES:    1127366
LLC LOAD ACCESSES:    2319099 HITS:    1630442 MISSES:     688657
LLC RFO ACCESSES:     468691 HITS:     417243 MISSES:      51448
LLC PREFETCH ACCESSES:     941867 HITS:     623778 MISSES:     318089
LLC WRITEBACK ACCESSES:     880305 HITS:     811133 MISSES:      69172
LLC 0 RQ ACCESS:    2787790
LLC 0 RQ TO_CACHE:    2787766
LLC 0 RQ MERGED:          0
LLC 0 RQ FORWARD:          0
LLC WQ ACCESS:     880305
LLC WQ TO_CACHE:     880305
LLC WQ MERGED:          0
LLC WQ FORWARD:         38
Major fault: 0 Minor fault: 12862
CPU 0 L1D next line prefetcher final stats
CPU 0 L2C PC-based stride prefetcher final stats
All Misses: 1372950
All Hits: 4053884
SD Algo Stats - Switches: 0 SRR-Repls: 833942 BRR-Repls: 0

DRAM Statistics
 CHANNEL 0
 RQ ROW_BUFFER_HIT:     318912  ROW_BUFFER_MISS:     737375
 DBUS_CONGESTED:     440317
 WQ ROW_BUFFER_HIT:       9119  ROW_BUFFER_MISS:     169600  FULL:          0

 AVG_CONGESTED_CYCLE: 13
LOADS RETIRED: 136549171
INSTR RETIRED: 500000000
