
*** ChampSim Multicore Out-of-Order Simulator ***

Warmup Instructions: 100000000
Simulation Instructions: 500000000
Number of CPUs: 1
LLC sets: 2048
LLC ways: 16
Clean RRIP Policies: 1213030112130301 Dirty RRIP Policies: 2213130122131301 PSEL Width: 10 Track Set: 4294967295 PSEL Mask: 1 Demote Mask: 3340001033400010DS Algo: 0Window size: 0
Off-chip DRAM Size: 4096 MB Channels: 1 Width: 64-bit Data Rate: 1600 MT/s

CPU 0 runs /mnt/beegfs/iconst01/spec2017/Gcc.trace.gz
NOT SORTED
TRACE STRING: /mnt/beegfs/iconst01/spec2017/Gcc.trace.gz
SORTED
TRACE STRING: /mnt/beegfs/iconst01/spec2017/Gcc.trace.gz
INITIAL
TRACE STRING: /mnt/beegfs/iconst01/spec2017/Gcc.trace.gz

champsim_seed used: 269

CPU 0 L1D next line prefetcher
CPU 0 L2C IP-based stride prefetcher
Initialize DRRIP state
Assign rand_sets[0]: 454  LLC: 2048
rand_sets[0]: 454
Assign rand_sets[1]: 1662  LLC: 2048
rand_sets[1]: 1662
Assign rand_sets[2]: 1921  LLC: 2048
rand_sets[2]: 1921
Assign rand_sets[3]: 1131  LLC: 2048
rand_sets[3]: 1131
Assign rand_sets[4]: 331  LLC: 2048
rand_sets[4]: 331
Assign rand_sets[5]: 1531  LLC: 2048
rand_sets[5]: 1531
Assign rand_sets[6]: 482  LLC: 2048
rand_sets[6]: 482
Assign rand_sets[7]: 1275  LLC: 2048
rand_sets[7]: 1275
Assign rand_sets[8]: 1876  LLC: 2048
rand_sets[8]: 1876
Assign rand_sets[9]: 2038  LLC: 2048
rand_sets[9]: 2038
Assign rand_sets[10]: 701  LLC: 2048
rand_sets[10]: 701
Assign rand_sets[11]: 479  LLC: 2048
rand_sets[11]: 479
Assign rand_sets[12]: 892  LLC: 2048
rand_sets[12]: 892
Assign rand_sets[13]: 1820  LLC: 2048
rand_sets[13]: 1820
Assign rand_sets[14]: 1505  LLC: 2048
rand_sets[14]: 1505
Assign rand_sets[15]: 1159  LLC: 2048
rand_sets[15]: 1159
Assign rand_sets[16]: 513  LLC: 2048
rand_sets[16]: 513
Assign rand_sets[17]: 703  LLC: 2048
rand_sets[17]: 703
Assign rand_sets[18]: 561  LLC: 2048
rand_sets[18]: 561
Assign rand_sets[19]: 990  LLC: 2048
rand_sets[19]: 990
Assign rand_sets[20]: 342  LLC: 2048
rand_sets[20]: 342
Assign rand_sets[21]: 882  LLC: 2048
rand_sets[21]: 882
Assign rand_sets[22]: 15  LLC: 2048
rand_sets[22]: 15
Assign rand_sets[23]: 71  LLC: 2048
rand_sets[23]: 71
Assign rand_sets[24]: 1127  LLC: 2048
rand_sets[24]: 1127
Assign rand_sets[25]: 1382  LLC: 2048
rand_sets[25]: 1382
Assign rand_sets[26]: 647  LLC: 2048
rand_sets[26]: 647
Assign rand_sets[27]: 857  LLC: 2048
rand_sets[27]: 857
Assign rand_sets[28]: 1450  LLC: 2048
rand_sets[28]: 1450
Assign rand_sets[29]: 1160  LLC: 2048
rand_sets[29]: 1160
Assign rand_sets[30]: 1852  LLC: 2048
rand_sets[30]: 1852
Assign rand_sets[31]: 1881  LLC: 2048
rand_sets[31]: 1881
Assign rand_sets[32]: 1770  LLC: 2048
rand_sets[32]: 1770
Assign rand_sets[33]: 1622  LLC: 2048
rand_sets[33]: 1622
Assign rand_sets[34]: 275  LLC: 2048
rand_sets[34]: 275
Assign rand_sets[35]: 635  LLC: 2048
rand_sets[35]: 635
Assign rand_sets[36]: 466  LLC: 2048
rand_sets[36]: 466
Assign rand_sets[37]: 1413  LLC: 2048
rand_sets[37]: 1413
Assign rand_sets[38]: 417  LLC: 2048
rand_sets[38]: 417
Assign rand_sets[39]: 472  LLC: 2048
rand_sets[39]: 472
Assign rand_sets[40]: 1340  LLC: 2048
rand_sets[40]: 1340
Assign rand_sets[41]: 852  LLC: 2048
rand_sets[41]: 852
Assign rand_sets[42]: 1365  LLC: 2048
rand_sets[42]: 1365
Assign rand_sets[43]: 47  LLC: 2048
rand_sets[43]: 47
Assign rand_sets[44]: 823  LLC: 2048
rand_sets[44]: 823
Assign rand_sets[45]: 686  LLC: 2048
rand_sets[45]: 686
Assign rand_sets[46]: 1637  LLC: 2048
rand_sets[46]: 1637
Assign rand_sets[47]: 1115  LLC: 2048
rand_sets[47]: 1115
Assign rand_sets[48]: 986  LLC: 2048
rand_sets[48]: 986
Assign rand_sets[49]: 258  LLC: 2048
rand_sets[49]: 258
Assign rand_sets[50]: 633  LLC: 2048
rand_sets[50]: 633
Assign rand_sets[51]: 920  LLC: 2048
rand_sets[51]: 920
Assign rand_sets[52]: 204  LLC: 2048
rand_sets[52]: 204
Assign rand_sets[53]: 227  LLC: 2048
rand_sets[53]: 227
Assign rand_sets[54]: 1818  LLC: 2048
rand_sets[54]: 1818
Assign rand_sets[55]: 886  LLC: 2048
rand_sets[55]: 886
Assign rand_sets[56]: 1422  LLC: 2048
rand_sets[56]: 1422
Assign rand_sets[57]: 607  LLC: 2048
rand_sets[57]: 607
Assign rand_sets[58]: 217  LLC: 2048
rand_sets[58]: 217
Assign rand_sets[59]: 1945  LLC: 2048
rand_sets[59]: 1945
Assign rand_sets[60]: 143  LLC: 2048
rand_sets[60]: 143
Assign rand_sets[61]: 1311  LLC: 2048
rand_sets[61]: 1311
Assign rand_sets[62]: 319  LLC: 2048
rand_sets[62]: 319
Assign rand_sets[63]: 1846  LLC: 2048
rand_sets[63]: 1846
 CLEAN-RRIP-POLICY-1: 1-2-1-3-0-3-0-1- CLEAN-RRIP-POLICY-2: 1-2-1-3-0-3-0-1-
 DIRTY-RRIP-POLICY-1: 2-2-1-3-1-3-0-1- DIRTY-RRIP-POLICY-2: 2-2-1-3-1-3-0-1-
 PSEL width: 10
Heartbeat CPU 0 instructions: 10000001 cycles: 7315979 heartbeat IPC: 1.36687 cumulative IPC: 1.36687 (Simulation time: 0 hr 0 min 14 sec) 
Heartbeat CPU 0 instructions: 20000000 cycles: 14307550 heartbeat IPC: 1.43029 cumulative IPC: 1.39786 (Simulation time: 0 hr 0 min 28 sec) 
Heartbeat CPU 0 instructions: 30000001 cycles: 21020588 heartbeat IPC: 1.48964 cumulative IPC: 1.42717 (Simulation time: 0 hr 0 min 43 sec) 
Heartbeat CPU 0 instructions: 40000000 cycles: 27481439 heartbeat IPC: 1.54778 cumulative IPC: 1.45553 (Simulation time: 0 hr 0 min 59 sec) 
Heartbeat CPU 0 instructions: 50000001 cycles: 33583356 heartbeat IPC: 1.63883 cumulative IPC: 1.48883 (Simulation time: 0 hr 1 min 14 sec) 
Heartbeat CPU 0 instructions: 60000000 cycles: 40064641 heartbeat IPC: 1.5429 cumulative IPC: 1.49758 (Simulation time: 0 hr 1 min 29 sec) 
Heartbeat CPU 0 instructions: 70000000 cycles: 47103966 heartbeat IPC: 1.42059 cumulative IPC: 1.48607 (Simulation time: 0 hr 1 min 43 sec) 
Heartbeat CPU 0 instructions: 80000000 cycles: 54193760 heartbeat IPC: 1.41048 cumulative IPC: 1.47618 (Simulation time: 0 hr 1 min 58 sec) 
Heartbeat CPU 0 instructions: 90000003 cycles: 61198257 heartbeat IPC: 1.42765 cumulative IPC: 1.47063 (Simulation time: 0 hr 2 min 12 sec) 
Heartbeat CPU 0 instructions: 100000000 cycles: 68365797 heartbeat IPC: 1.39518 cumulative IPC: 1.46272 (Simulation time: 0 hr 2 min 26 sec) 

Warmup complete CPU 0 instructions: 100000004 cycles: 68365798 (Simulation time: 0 hr 2 min 26 sec) 

Heartbeat CPU 0 instructions: 110000003 cycles: 96042748 heartbeat IPC: 0.361312 cumulative IPC: 0.361311 (Simulation time: 0 hr 2 min 53 sec) 
Heartbeat CPU 0 instructions: 120000000 cycles: 123521101 heartbeat IPC: 0.363923 cumulative IPC: 0.362612 (Simulation time: 0 hr 3 min 20 sec) 
Heartbeat CPU 0 instructions: 130000000 cycles: 148538940 heartbeat IPC: 0.399715 cumulative IPC: 0.37419 (Simulation time: 0 hr 3 min 48 sec) 
Heartbeat CPU 0 instructions: 140000000 cycles: 178100178 heartbeat IPC: 0.338281 cumulative IPC: 0.364517 (Simulation time: 0 hr 4 min 14 sec) 
Heartbeat CPU 0 instructions: 150000000 cycles: 207979867 heartbeat IPC: 0.334675 cumulative IPC: 0.35813 (Simulation time: 0 hr 4 min 41 sec) 
Heartbeat CPU 0 instructions: 160000000 cycles: 235413549 heartbeat IPC: 0.364515 cumulative IPC: 0.359179 (Simulation time: 0 hr 5 min 8 sec) 
Heartbeat CPU 0 instructions: 170000001 cycles: 263486540 heartbeat IPC: 0.356214 cumulative IPC: 0.358752 (Simulation time: 0 hr 5 min 36 sec) 
Heartbeat CPU 0 instructions: 180000000 cycles: 291974555 heartbeat IPC: 0.351025 cumulative IPC: 0.357768 (Simulation time: 0 hr 6 min 4 sec) 
Heartbeat CPU 0 instructions: 190000002 cycles: 320041124 heartbeat IPC: 0.356296 cumulative IPC: 0.357604 (Simulation time: 0 hr 6 min 31 sec) 
Heartbeat CPU 0 instructions: 200000000 cycles: 348396462 heartbeat IPC: 0.352667 cumulative IPC: 0.357104 (Simulation time: 0 hr 6 min 59 sec) 
Heartbeat CPU 0 instructions: 210000002 cycles: 376288976 heartbeat IPC: 0.358519 cumulative IPC: 0.357232 (Simulation time: 0 hr 7 min 27 sec) 
Heartbeat CPU 0 instructions: 220000000 cycles: 405479093 heartbeat IPC: 0.342582 cumulative IPC: 0.355963 (Simulation time: 0 hr 7 min 53 sec) 
Heartbeat CPU 0 instructions: 230000000 cycles: 433041508 heartbeat IPC: 0.362813 cumulative IPC: 0.356481 (Simulation time: 0 hr 8 min 19 sec) 
Heartbeat CPU 0 instructions: 240000000 cycles: 458950650 heartbeat IPC: 0.385964 cumulative IPC: 0.358437 (Simulation time: 0 hr 8 min 45 sec) 
Heartbeat CPU 0 instructions: 250000000 cycles: 489117007 heartbeat IPC: 0.331495 cumulative IPC: 0.356505 (Simulation time: 0 hr 9 min 14 sec) 
Heartbeat CPU 0 instructions: 260000000 cycles: 516250294 heartbeat IPC: 0.368551 cumulative IPC: 0.357235 (Simulation time: 0 hr 9 min 41 sec) 
Heartbeat CPU 0 instructions: 270000003 cycles: 544750920 heartbeat IPC: 0.35087 cumulative IPC: 0.356854 (Simulation time: 0 hr 10 min 9 sec) 
Heartbeat CPU 0 instructions: 280000000 cycles: 572982384 heartbeat IPC: 0.354215 cumulative IPC: 0.356706 (Simulation time: 0 hr 10 min 37 sec) 
Heartbeat CPU 0 instructions: 290000000 cycles: 601930283 heartbeat IPC: 0.345448 cumulative IPC: 0.356096 (Simulation time: 0 hr 11 min 6 sec) 
Heartbeat CPU 0 instructions: 300000000 cycles: 631947944 heartbeat IPC: 0.333137 cumulative IPC: 0.354873 (Simulation time: 0 hr 11 min 33 sec) 
Heartbeat CPU 0 instructions: 310000001 cycles: 661351437 heartbeat IPC: 0.340096 cumulative IPC: 0.35414 (Simulation time: 0 hr 12 min 0 sec) 
Heartbeat CPU 0 instructions: 320000000 cycles: 689613028 heartbeat IPC: 0.353837 cumulative IPC: 0.354126 (Simulation time: 0 hr 12 min 26 sec) 
Heartbeat CPU 0 instructions: 330000000 cycles: 718272952 heartbeat IPC: 0.348919 cumulative IPC: 0.353897 (Simulation time: 0 hr 12 min 53 sec) 
Heartbeat CPU 0 instructions: 340000000 cycles: 747574904 heartbeat IPC: 0.341274 cumulative IPC: 0.353352 (Simulation time: 0 hr 13 min 20 sec) 
Heartbeat CPU 0 instructions: 350000003 cycles: 774649664 heartbeat IPC: 0.369348 cumulative IPC: 0.353965 (Simulation time: 0 hr 13 min 46 sec) 
Heartbeat CPU 0 instructions: 360000000 cycles: 802789948 heartbeat IPC: 0.355362 cumulative IPC: 0.354019 (Simulation time: 0 hr 14 min 11 sec) 
Heartbeat CPU 0 instructions: 370000000 cycles: 830969106 heartbeat IPC: 0.354872 cumulative IPC: 0.35405 (Simulation time: 0 hr 14 min 36 sec) 
Heartbeat CPU 0 instructions: 380000000 cycles: 859485757 heartbeat IPC: 0.350672 cumulative IPC: 0.353929 (Simulation time: 0 hr 15 min 2 sec) 
Heartbeat CPU 0 instructions: 390000001 cycles: 887100044 heartbeat IPC: 0.362131 cumulative IPC: 0.354205 (Simulation time: 0 hr 15 min 27 sec) 
Heartbeat CPU 0 instructions: 400000000 cycles: 915731843 heartbeat IPC: 0.349262 cumulative IPC: 0.354038 (Simulation time: 0 hr 15 min 52 sec) 
Heartbeat CPU 0 instructions: 410000001 cycles: 943022272 heartbeat IPC: 0.366429 cumulative IPC: 0.354425 (Simulation time: 0 hr 16 min 17 sec) 
Heartbeat CPU 0 instructions: 420000000 cycles: 970324341 heartbeat IPC: 0.366273 cumulative IPC: 0.354783 (Simulation time: 0 hr 16 min 42 sec) 
Heartbeat CPU 0 instructions: 430000002 cycles: 998036699 heartbeat IPC: 0.36085 cumulative IPC: 0.354964 (Simulation time: 0 hr 17 min 7 sec) 
Heartbeat CPU 0 instructions: 440000000 cycles: 1027652309 heartbeat IPC: 0.33766 cumulative IPC: 0.35443 (Simulation time: 0 hr 17 min 32 sec) 
Heartbeat CPU 0 instructions: 450000002 cycles: 1056903034 heartbeat IPC: 0.341872 cumulative IPC: 0.354058 (Simulation time: 0 hr 17 min 58 sec) 
Heartbeat CPU 0 instructions: 460000000 cycles: 1084611087 heartbeat IPC: 0.360906 cumulative IPC: 0.354245 (Simulation time: 0 hr 18 min 22 sec) 
Heartbeat CPU 0 instructions: 470000000 cycles: 1112243212 heartbeat IPC: 0.361898 cumulative IPC: 0.354448 (Simulation time: 0 hr 18 min 47 sec) 
Heartbeat CPU 0 instructions: 480000000 cycles: 1140126674 heartbeat IPC: 0.358636 cumulative IPC: 0.354557 (Simulation time: 0 hr 19 min 12 sec) 
Heartbeat CPU 0 instructions: 490000000 cycles: 1167716058 heartbeat IPC: 0.362458 cumulative IPC: 0.354755 (Simulation time: 0 hr 19 min 37 sec) 
Heartbeat CPU 0 instructions: 500000000 cycles: 1196055005 heartbeat IPC: 0.352871 cumulative IPC: 0.354708 (Simulation time: 0 hr 20 min 2 sec) 
Heartbeat CPU 0 instructions: 510000000 cycles: 1230327619 heartbeat IPC: 0.291778 cumulative IPC: 0.352852 (Simulation time: 0 hr 20 min 30 sec) 
Heartbeat CPU 0 instructions: 520000000 cycles: 1258353238 heartbeat IPC: 0.356816 cumulative IPC: 0.352945 (Simulation time: 0 hr 20 min 56 sec) 
Heartbeat CPU 0 instructions: 530000001 cycles: 1287693305 heartbeat IPC: 0.340831 cumulative IPC: 0.352653 (Simulation time: 0 hr 21 min 22 sec) 
Heartbeat CPU 0 instructions: 540000000 cycles: 1315743153 heartbeat IPC: 0.356508 cumulative IPC: 0.35274 (Simulation time: 0 hr 21 min 48 sec) 
Heartbeat CPU 0 instructions: 550000001 cycles: 1344943978 heartbeat IPC: 0.342456 cumulative IPC: 0.352505 (Simulation time: 0 hr 22 min 15 sec) 
Heartbeat CPU 0 instructions: 560000000 cycles: 1370353221 heartbeat IPC: 0.393558 cumulative IPC: 0.353306 (Simulation time: 0 hr 22 min 41 sec) 
Heartbeat CPU 0 instructions: 570000000 cycles: 1399945623 heartbeat IPC: 0.337925 cumulative IPC: 0.352964 (Simulation time: 0 hr 23 min 7 sec) 
Heartbeat CPU 0 instructions: 580000000 cycles: 1427931416 heartbeat IPC: 0.357324 cumulative IPC: 0.353054 (Simulation time: 0 hr 23 min 33 sec) 
Heartbeat CPU 0 instructions: 590000001 cycles: 1452659237 heartbeat IPC: 0.404403 cumulative IPC: 0.353971 (Simulation time: 0 hr 23 min 58 sec) 
Heartbeat CPU 0 instructions: 600000000 cycles: 1478710820 heartbeat IPC: 0.383854 cumulative IPC: 0.354523 (Simulation time: 0 hr 24 min 23 sec) 
Finished CPU 0 instructions: 500000000 cycles: 1410345044 cumulative IPC: 0.354523 (Simulation time: 0 hr 24 min 23 sec) 

CPU 0 Branch Prediction Accuracy: 86.4311% MPKI: 26.2662
Number of Branches: 96788573 Number of Mispredictions: 13133102
Number of LOAD Instructions: 164682285
Number of LOAD Instructions (ROI): 164682285
Number of STORE Instructions: 78194750
Number of STORE Instructions (ROI): 78194750
Total Destination Memory Operands: 83268534
Total Destination Memory Operands (ROI): 83268534
Total Source Memory Operands: 164712438
Total Source Memory Operands (ROI): 164712438
Number of DEPENDED LOADS: 7056541
Number of DEPENDED LOADS (ROI): 7056541
Number of SQ_ADDED: 83268522
Number of SQ_ADDED (ROI): 83268522
Number of LQ_ADDED: 236786875
Number of LQ_ADDED (ROI): 236786875
Number of Instructions read from trace: 600000066

ChampSim completed all CPUs

Region of Interest Statistics

CPU 0 cumulative IPC: 0.354523 instructions: 500000000 cycles: 1410345044
ITLB TOTAL     ACCESS:  100522064  HIT:  100317618  MISS:     204446
ITLB LOAD      ACCESS:  100522064  HIT:  100317618  MISS:     204446
ITLB RFO       ACCESS:          0  HIT:          0  MISS:          0
ITLB PREFETCH  ACCESS:          0  HIT:          0  MISS:          0
ITLB WRITEBACK ACCESS:          0  HIT:          0  MISS:          0
ITLB PREFETCH  REQUESTED:          0  ISSUED:          0  USEFUL:          0  USELESS:          0
ITLB TOTAL MSHR MERGED:     172424
ITLB LOAD MSHR MERGED:     172424
ITLB RFO MSHR MERGED:          0
ITLB PREFETCH MSHR MERGED:          0
ITLB WRITEBACK MSHR MERGED:          0
ITLB TOTAL ACCESSES:  100694488 HITS:  100317618 MISSES:     376870
ITLB LOAD ACCESSES:  100694488 HITS:  100317618 MISSES:     376870
ITLB RFO ACCESSES:          0 HITS:          0 MISSES:          0
ITLB PREFETCH ACCESSES:          0 HITS:          0 MISSES:          0
ITLB WRITEBACK ACCESSES:          0 HITS:          0 MISSES:          0
ITLB RQ ACCESS:  500000057
ITLB RQ TO_CACHE:  100694488
ITLB RQ MERGED:  399305569
ITLB RQ FORWARD:          0
ITLB WQ ACCESS:          0
ITLB WQ TO_CACHE:          0
ITLB WQ MERGED:          0
ITLB WQ FORWARD:          0
DTLB TOTAL     ACCESS:  165339859  HIT:  164705508  MISS:     634351
DTLB LOAD      ACCESS:  106294920  HIT:  105725007  MISS:     569913
DTLB RFO       ACCESS:   59044939  HIT:   58980501  MISS:      64438
DTLB PREFETCH  ACCESS:          0  HIT:          0  MISS:          0
DTLB WRITEBACK ACCESS:          0  HIT:          0  MISS:          0
DTLB PREFETCH  REQUESTED:          0  ISSUED:          0  USEFUL:          0  USELESS:          0
DTLB TOTAL MSHR MERGED:      99946
DTLB LOAD MSHR MERGED:      59450
DTLB RFO MSHR MERGED:      40496
DTLB PREFETCH MSHR MERGED:          0
DTLB WRITEBACK MSHR MERGED:          0
DTLB TOTAL ACCESSES:  165439805 HITS:  164705508 MISSES:     734297
DTLB LOAD ACCESSES:  106354370 HITS:  105725007 MISSES:     629363
DTLB RFO ACCESSES:   59085435 HITS:   58980501 MISSES:     104934
DTLB PREFETCH ACCESSES:          0 HITS:          0 MISSES:          0
DTLB WRITEBACK ACCESSES:          0 HITS:          0 MISSES:          0
DTLB RQ ACCESS:  200314335
DTLB RQ TO_CACHE:  165439805
DTLB RQ MERGED:   34874530
DTLB RQ FORWARD:          0
DTLB WQ ACCESS:          0
DTLB WQ TO_CACHE:          0
DTLB WQ MERGED:          0
DTLB WQ FORWARD:          0
L1D TOTAL     ACCESS:  281839402  HIT:  273930047  MISS:    7909355
L1D LOAD      ACCESS:  110420243  HIT:  107142006  MISS:    3278237
L1D RFO       ACCESS:   67120276  HIT:   66229755  MISS:     890521
L1D PREFETCH  ACCESS:  104298883  HIT:  100558286  MISS:    3740597
L1D WRITEBACK ACCESS:          0  HIT:          0  MISS:          0
L1D PREFETCH  REQUESTED:  110820399  ISSUED:  109121105  USEFUL:    1661287  USELESS:    2079274
L1D TOTAL MSHR MERGED:    2871308
L1D LOAD MSHR MERGED:     497870
L1D RFO MSHR MERGED:    1865657
L1D PREFETCH MSHR MERGED:     507781
L1D WRITEBACK MSHR MERGED:          0
L1D TOTAL ACCESSES:  284738158 HITS:  273957495 MISSES:   10780663
L1D LOAD ACCESSES:  110821854 HITS:  107143461 MISSES:    3678393
L1D RFO ACCESSES:   68974204 HITS:   66229755 MISSES:    2744449
L1D PREFETCH ACCESSES:  104942100 HITS:  100584279 MISSES:    4357821
L1D WRITEBACK ACCESSES:          0 HITS:          0 MISSES:          0
L1D RQ ACCESS:  130761732
L1D RQ TO_CACHE:  110820402
L1D RQ MERGED:   19939875
L1D RQ FORWARD:          0
L1D WQ ACCESS:   69552603
L1D WQ TO_CACHE:   68974205
L1D WQ MERGED:     578398
L1D WQ FORWARD:      27448
L1I TOTAL     ACCESS:  126569195  HIT:  122330642  MISS:    4238553
L1I LOAD      ACCESS:  126569195  HIT:  122330642  MISS:    4238553
L1I RFO       ACCESS:          0  HIT:          0  MISS:          0
L1I PREFETCH  ACCESS:          0  HIT:          0  MISS:          0
L1I WRITEBACK ACCESS:          0  HIT:          0  MISS:          0
L1I PREFETCH  REQUESTED:          0  ISSUED:          0  USEFUL:          0  USELESS:          0
L1I TOTAL MSHR MERGED:    1834772
L1I LOAD MSHR MERGED:    1834772
L1I RFO MSHR MERGED:          0
L1I PREFETCH MSHR MERGED:          0
L1I WRITEBACK MSHR MERGED:          0
L1I TOTAL ACCESSES:  128403970 HITS:  122330642 MISSES:    6073328
L1I LOAD ACCESSES:  128403970 HITS:  122330642 MISSES:    6073328
L1I RFO ACCESSES:          0 HITS:          0 MISSES:          0
L1I PREFETCH ACCESSES:          0 HITS:          0 MISSES:          0
L1I WRITEBACK ACCESSES:          0 HITS:          0 MISSES:          0
L1I RQ ACCESS:  500000057
L1I RQ TO_CACHE:  128403970
L1I RQ MERGED:  371596087
L1I RQ FORWARD:          0
L1I WQ ACCESS:          0
L1I WQ TO_CACHE:          0
L1I WQ MERGED:          0
L1I WQ FORWARD:          0
L2C TOTAL     ACCESS:   14905219  HIT:   11158685  MISS:    3746534
L2C LOAD      ACCESS:    7418867  HIT:    5098844  MISS:    2320023
L2C RFO       ACCESS:     878694  HIT:     409895  MISS:     468799
L2C PREFETCH  ACCESS:    4568417  HIT:    3627960  MISS:     940457
L2C WRITEBACK ACCESS:    2039241  HIT:    2021986  MISS:      17255
L2C PREFETCH  REQUESTED:     842804  ISSUED:     842804  USEFUL:     203366  USELESS:     736797
L2C TOTAL MSHR MERGED:       7112
L2C LOAD MSHR MERGED:        797
L2C RFO MSHR MERGED:          0
L2C PREFETCH MSHR MERGED:       6315
L2C WRITEBACK MSHR MERGED:          0
L2C TOTAL ACCESSES:   14913214 HITS:   11159138 MISSES:    3754076
L2C LOAD ACCESSES:    7419076 HITS:    5099053 MISSES:    2320023
L2C RFO ACCESSES:     878792 HITS:     409993 MISSES:     468799
L2C PREFETCH ACCESSES:    4576105 HITS:    3628106 MISSES:     947999
L2C WRITEBACK ACCESSES:    2039241 HITS:    2021986 MISSES:      17255
L2C RQ ACCESS:    8297871
L2C RQ TO_CACHE:    8297564
L2C RQ MERGED:          0
L2C RQ FORWARD:          0
L2C WQ ACCESS:    2039241
L2C WQ TO_CACHE:    2039241
L2C WQ MERGED:          0
L2C WQ FORWARD:        453
LLC TOTAL     ACCESS:    4609873  HIT:    3956279  MISS:     653594
LLC LOAD      ACCESS:    2319210  HIT:    2065367  MISS:     253843
LLC RFO       ACCESS:     468789  HIT:     405316  MISS:      63473
LLC PREFETCH  ACCESS:     941570  HIT:     656901  MISS:     284669
LLC WRITEBACK ACCESS:     880304  HIT:     828695  MISS:      51609
LLC PREFETCH  REQUESTED:          0  ISSUED:          0  USEFUL:      15345  USELESS:     269325
LLC TOTAL MSHR MERGED:         93
LLC LOAD MSHR MERGED:         33
LLC RFO MSHR MERGED:          0
LLC PREFETCH MSHR MERGED:         60
LLC WRITEBACK MSHR MERGED:          0
LLC TOTAL ACCESSES:    4610002 HITS:    3956315 MISSES:     653687
LLC LOAD ACCESSES:    2319226 HITS:    2065383 MISSES:     253843
LLC RFO ACCESSES:     468799 HITS:     405326 MISSES:      63473
LLC PREFETCH ACCESSES:     941673 HITS:     656911 MISSES:     284762
LLC WRITEBACK ACCESSES:     880304 HITS:     828695 MISSES:      51609
LLC 0 RQ ACCESS:    2788025
LLC 0 RQ TO_CACHE:    2787999
LLC 0 RQ MERGED:          0
LLC 0 RQ FORWARD:          0
LLC WQ ACCESS:     880304
LLC WQ TO_CACHE:     880304
LLC WQ MERGED:          0
LLC WQ FORWARD:         36
Major fault: 0 Minor fault: 12862
CPU 0 L1D next line prefetcher final stats
CPU 0 L2C PC-based stride prefetcher final stats
All Misses: 781287
All Hits: 4645592
SD Algo Stats - Switches: 0 SRR-Repls: 299289 BRR-Repls: 0

DRAM Statistics
 CHANNEL 0
 RQ ROW_BUFFER_HIT:     126435  ROW_BUFFER_MISS:     474443
 DBUS_CONGESTED:     328542
 WQ ROW_BUFFER_HIT:      11266  ROW_BUFFER_MISS:     158498  FULL:          0

 AVG_CONGESTED_CYCLE: 13
LOADS RETIRED: 136549171
INSTR RETIRED: 500000000
