
*** ChampSim Multicore Out-of-Order Simulator ***

Warmup Instructions: 100000000
Simulation Instructions: 500000000
Number of CPUs: 1
LLC sets: 2048
LLC ways: 16
Clean RRIP Policies: 1213030112130301 Dirty RRIP Policies: 2213130122131301 PSEL Width: 10 Track Set: 4294967295 PSEL Mask: 1 Demote Mask: 3340001033400010DS Algo: 0Window size: 0
Off-chip DRAM Size: 4096 MB Channels: 1 Width: 64-bit Data Rate: 1600 MT/s

CPU 0 runs /mnt/beegfs/iconst01/spec2017/Xalancbmk.trace.gz
NOT SORTED
TRACE STRING: /mnt/beegfs/iconst01/spec2017/Xalancbmk.trace.gz
SORTED
TRACE STRING: /mnt/beegfs/iconst01/spec2017/Xalancbmk.trace.gz
INITIAL
TRACE STRING: /mnt/beegfs/iconst01/spec2017/Xalancbmk.trace.gz

champsim_seed used: 913

CPU 0 L1D next line prefetcher
CPU 0 L2C IP-based stride prefetcher
Initialize DRRIP state
Assign rand_sets[0]: 454  LLC: 2048
rand_sets[0]: 454
Assign rand_sets[1]: 1662  LLC: 2048
rand_sets[1]: 1662
Assign rand_sets[2]: 1921  LLC: 2048
rand_sets[2]: 1921
Assign rand_sets[3]: 1131  LLC: 2048
rand_sets[3]: 1131
Assign rand_sets[4]: 331  LLC: 2048
rand_sets[4]: 331
Assign rand_sets[5]: 1531  LLC: 2048
rand_sets[5]: 1531
Assign rand_sets[6]: 482  LLC: 2048
rand_sets[6]: 482
Assign rand_sets[7]: 1275  LLC: 2048
rand_sets[7]: 1275
Assign rand_sets[8]: 1876  LLC: 2048
rand_sets[8]: 1876
Assign rand_sets[9]: 2038  LLC: 2048
rand_sets[9]: 2038
Assign rand_sets[10]: 701  LLC: 2048
rand_sets[10]: 701
Assign rand_sets[11]: 479  LLC: 2048
rand_sets[11]: 479
Assign rand_sets[12]: 892  LLC: 2048
rand_sets[12]: 892
Assign rand_sets[13]: 1820  LLC: 2048
rand_sets[13]: 1820
Assign rand_sets[14]: 1505  LLC: 2048
rand_sets[14]: 1505
Assign rand_sets[15]: 1159  LLC: 2048
rand_sets[15]: 1159
Assign rand_sets[16]: 513  LLC: 2048
rand_sets[16]: 513
Assign rand_sets[17]: 703  LLC: 2048
rand_sets[17]: 703
Assign rand_sets[18]: 561  LLC: 2048
rand_sets[18]: 561
Assign rand_sets[19]: 990  LLC: 2048
rand_sets[19]: 990
Assign rand_sets[20]: 342  LLC: 2048
rand_sets[20]: 342
Assign rand_sets[21]: 882  LLC: 2048
rand_sets[21]: 882
Assign rand_sets[22]: 15  LLC: 2048
rand_sets[22]: 15
Assign rand_sets[23]: 71  LLC: 2048
rand_sets[23]: 71
Assign rand_sets[24]: 1127  LLC: 2048
rand_sets[24]: 1127
Assign rand_sets[25]: 1382  LLC: 2048
rand_sets[25]: 1382
Assign rand_sets[26]: 647  LLC: 2048
rand_sets[26]: 647
Assign rand_sets[27]: 857  LLC: 2048
rand_sets[27]: 857
Assign rand_sets[28]: 1450  LLC: 2048
rand_sets[28]: 1450
Assign rand_sets[29]: 1160  LLC: 2048
rand_sets[29]: 1160
Assign rand_sets[30]: 1852  LLC: 2048
rand_sets[30]: 1852
Assign rand_sets[31]: 1881  LLC: 2048
rand_sets[31]: 1881
Assign rand_sets[32]: 1770  LLC: 2048
rand_sets[32]: 1770
Assign rand_sets[33]: 1622  LLC: 2048
rand_sets[33]: 1622
Assign rand_sets[34]: 275  LLC: 2048
rand_sets[34]: 275
Assign rand_sets[35]: 635  LLC: 2048
rand_sets[35]: 635
Assign rand_sets[36]: 466  LLC: 2048
rand_sets[36]: 466
Assign rand_sets[37]: 1413  LLC: 2048
rand_sets[37]: 1413
Assign rand_sets[38]: 417  LLC: 2048
rand_sets[38]: 417
Assign rand_sets[39]: 472  LLC: 2048
rand_sets[39]: 472
Assign rand_sets[40]: 1340  LLC: 2048
rand_sets[40]: 1340
Assign rand_sets[41]: 852  LLC: 2048
rand_sets[41]: 852
Assign rand_sets[42]: 1365  LLC: 2048
rand_sets[42]: 1365
Assign rand_sets[43]: 47  LLC: 2048
rand_sets[43]: 47
Assign rand_sets[44]: 823  LLC: 2048
rand_sets[44]: 823
Assign rand_sets[45]: 686  LLC: 2048
rand_sets[45]: 686
Assign rand_sets[46]: 1637  LLC: 2048
rand_sets[46]: 1637
Assign rand_sets[47]: 1115  LLC: 2048
rand_sets[47]: 1115
Assign rand_sets[48]: 986  LLC: 2048
rand_sets[48]: 986
Assign rand_sets[49]: 258  LLC: 2048
rand_sets[49]: 258
Assign rand_sets[50]: 633  LLC: 2048
rand_sets[50]: 633
Assign rand_sets[51]: 920  LLC: 2048
rand_sets[51]: 920
Assign rand_sets[52]: 204  LLC: 2048
rand_sets[52]: 204
Assign rand_sets[53]: 227  LLC: 2048
rand_sets[53]: 227
Assign rand_sets[54]: 1818  LLC: 2048
rand_sets[54]: 1818
Assign rand_sets[55]: 886  LLC: 2048
rand_sets[55]: 886
Assign rand_sets[56]: 1422  LLC: 2048
rand_sets[56]: 1422
Assign rand_sets[57]: 607  LLC: 2048
rand_sets[57]: 607
Assign rand_sets[58]: 217  LLC: 2048
rand_sets[58]: 217
Assign rand_sets[59]: 1945  LLC: 2048
rand_sets[59]: 1945
Assign rand_sets[60]: 143  LLC: 2048
rand_sets[60]: 143
Assign rand_sets[61]: 1311  LLC: 2048
rand_sets[61]: 1311
Assign rand_sets[62]: 319  LLC: 2048
rand_sets[62]: 319
Assign rand_sets[63]: 1846  LLC: 2048
rand_sets[63]: 1846
 CLEAN-RRIP-POLICY-1: 1-2-1-3-0-3-0-1- CLEAN-RRIP-POLICY-2: 1-2-1-3-0-3-0-1-
 DIRTY-RRIP-POLICY-1: 2-2-1-3-1-3-0-1- DIRTY-RRIP-POLICY-2: 2-2-1-3-1-3-0-1-
 PSEL width: 10
Heartbeat CPU 0 instructions: 10000003 cycles: 4586467 heartbeat IPC: 2.18033 cumulative IPC: 2.18033 (Simulation time: 0 hr 0 min 15 sec) 
Heartbeat CPU 0 instructions: 20000000 cycles: 8977367 heartbeat IPC: 2.27744 cumulative IPC: 2.22782 (Simulation time: 0 hr 0 min 29 sec) 
Heartbeat CPU 0 instructions: 30000000 cycles: 13386670 heartbeat IPC: 2.26793 cumulative IPC: 2.24104 (Simulation time: 0 hr 0 min 43 sec) 
Heartbeat CPU 0 instructions: 40000000 cycles: 18011987 heartbeat IPC: 2.16201 cumulative IPC: 2.22074 (Simulation time: 0 hr 0 min 59 sec) 
Heartbeat CPU 0 instructions: 50000002 cycles: 22423819 heartbeat IPC: 2.26663 cumulative IPC: 2.22977 (Simulation time: 0 hr 1 min 13 sec) 
Heartbeat CPU 0 instructions: 60000000 cycles: 27075631 heartbeat IPC: 2.1497 cumulative IPC: 2.21601 (Simulation time: 0 hr 1 min 30 sec) 
Heartbeat CPU 0 instructions: 70000003 cycles: 31478517 heartbeat IPC: 2.27124 cumulative IPC: 2.22374 (Simulation time: 0 hr 1 min 44 sec) 
Heartbeat CPU 0 instructions: 80000000 cycles: 35902815 heartbeat IPC: 2.26024 cumulative IPC: 2.22824 (Simulation time: 0 hr 1 min 58 sec) 
Heartbeat CPU 0 instructions: 90000002 cycles: 40359687 heartbeat IPC: 2.24373 cumulative IPC: 2.22995 (Simulation time: 0 hr 2 min 13 sec) 
Heartbeat CPU 0 instructions: 100000000 cycles: 44833946 heartbeat IPC: 2.23501 cumulative IPC: 2.23045 (Simulation time: 0 hr 2 min 27 sec) 

Warmup complete CPU 0 instructions: 100000003 cycles: 44833947 (Simulation time: 0 hr 2 min 27 sec) 

Heartbeat CPU 0 instructions: 110000000 cycles: 71361264 heartbeat IPC: 0.37697 cumulative IPC: 0.37697 (Simulation time: 0 hr 2 min 59 sec) 
Heartbeat CPU 0 instructions: 120000000 cycles: 99596122 heartbeat IPC: 0.354172 cumulative IPC: 0.365216 (Simulation time: 0 hr 3 min 32 sec) 
Heartbeat CPU 0 instructions: 130000000 cycles: 123146401 heartbeat IPC: 0.424623 cumulative IPC: 0.383081 (Simulation time: 0 hr 4 min 2 sec) 
Heartbeat CPU 0 instructions: 140000000 cycles: 145683447 heartbeat IPC: 0.443714 cumulative IPC: 0.396631 (Simulation time: 0 hr 4 min 30 sec) 
Heartbeat CPU 0 instructions: 150000000 cycles: 170094264 heartbeat IPC: 0.409654 cumulative IPC: 0.399169 (Simulation time: 0 hr 5 min 0 sec) 
Heartbeat CPU 0 instructions: 160000000 cycles: 194881473 heartbeat IPC: 0.403434 cumulative IPC: 0.399873 (Simulation time: 0 hr 5 min 31 sec) 
Heartbeat CPU 0 instructions: 170000002 cycles: 216139166 heartbeat IPC: 0.470418 cumulative IPC: 0.408627 (Simulation time: 0 hr 5 min 58 sec) 
Heartbeat CPU 0 instructions: 180000000 cycles: 239101644 heartbeat IPC: 0.435493 cumulative IPC: 0.411803 (Simulation time: 0 hr 6 min 27 sec) 
Heartbeat CPU 0 instructions: 190000000 cycles: 258170899 heartbeat IPC: 0.524404 cumulative IPC: 0.421868 (Simulation time: 0 hr 6 min 54 sec) 
Heartbeat CPU 0 instructions: 200000000 cycles: 279437028 heartbeat IPC: 0.470231 cumulative IPC: 0.426252 (Simulation time: 0 hr 7 min 21 sec) 
Heartbeat CPU 0 instructions: 210000001 cycles: 305737956 heartbeat IPC: 0.380215 cumulative IPC: 0.421611 (Simulation time: 0 hr 7 min 53 sec) 
Heartbeat CPU 0 instructions: 220000000 cycles: 331546659 heartbeat IPC: 0.387466 cumulative IPC: 0.418537 (Simulation time: 0 hr 8 min 24 sec) 
Heartbeat CPU 0 instructions: 230000000 cycles: 353776663 heartbeat IPC: 0.449842 cumulative IPC: 0.42079 (Simulation time: 0 hr 8 min 52 sec) 
Heartbeat CPU 0 instructions: 240000000 cycles: 379363300 heartbeat IPC: 0.390829 cumulative IPC: 0.418498 (Simulation time: 0 hr 9 min 24 sec) 
Heartbeat CPU 0 instructions: 250000001 cycles: 404225430 heartbeat IPC: 0.402218 cumulative IPC: 0.417372 (Simulation time: 0 hr 9 min 54 sec) 
Heartbeat CPU 0 instructions: 260000000 cycles: 425250664 heartbeat IPC: 0.475619 cumulative IPC: 0.420591 (Simulation time: 0 hr 10 min 22 sec) 
Heartbeat CPU 0 instructions: 270000000 cycles: 447228978 heartbeat IPC: 0.454994 cumulative IPC: 0.42247 (Simulation time: 0 hr 10 min 50 sec) 
Heartbeat CPU 0 instructions: 280000000 cycles: 474710039 heartbeat IPC: 0.363887 cumulative IPC: 0.418725 (Simulation time: 0 hr 11 min 22 sec) 
Heartbeat CPU 0 instructions: 290000000 cycles: 495935839 heartbeat IPC: 0.471125 cumulative IPC: 0.421191 (Simulation time: 0 hr 11 min 50 sec) 
Heartbeat CPU 0 instructions: 300000000 cycles: 516584178 heartbeat IPC: 0.4843 cumulative IPC: 0.423953 (Simulation time: 0 hr 12 min 17 sec) 
Heartbeat CPU 0 instructions: 310000000 cycles: 535873227 heartbeat IPC: 0.518429 cumulative IPC: 0.427664 (Simulation time: 0 hr 12 min 43 sec) 
Heartbeat CPU 0 instructions: 320000000 cycles: 565074492 heartbeat IPC: 0.342451 cumulative IPC: 0.422881 (Simulation time: 0 hr 13 min 16 sec) 
Heartbeat CPU 0 instructions: 330000001 cycles: 584439784 heartbeat IPC: 0.516388 cumulative IPC: 0.426237 (Simulation time: 0 hr 13 min 42 sec) 
Heartbeat CPU 0 instructions: 340000000 cycles: 603817762 heartbeat IPC: 0.51605 cumulative IPC: 0.429351 (Simulation time: 0 hr 14 min 8 sec) 
Heartbeat CPU 0 instructions: 350000001 cycles: 628653703 heartbeat IPC: 0.402642 cumulative IPC: 0.428214 (Simulation time: 0 hr 14 min 38 sec) 
Heartbeat CPU 0 instructions: 360000000 cycles: 650937555 heartbeat IPC: 0.448755 cumulative IPC: 0.42897 (Simulation time: 0 hr 15 min 6 sec) 
Heartbeat CPU 0 instructions: 370000001 cycles: 676043475 heartbeat IPC: 0.398312 cumulative IPC: 0.42775 (Simulation time: 0 hr 15 min 36 sec) 
Heartbeat CPU 0 instructions: 380000000 cycles: 699017893 heartbeat IPC: 0.435267 cumulative IPC: 0.428014 (Simulation time: 0 hr 16 min 4 sec) 
Heartbeat CPU 0 instructions: 390000000 cycles: 717779080 heartbeat IPC: 0.533015 cumulative IPC: 0.430942 (Simulation time: 0 hr 16 min 30 sec) 
Heartbeat CPU 0 instructions: 400000000 cycles: 737654649 heartbeat IPC: 0.50313 cumulative IPC: 0.433012 (Simulation time: 0 hr 16 min 56 sec) 
Heartbeat CPU 0 instructions: 410000001 cycles: 763541747 heartbeat IPC: 0.386293 cumulative IPC: 0.43133 (Simulation time: 0 hr 17 min 26 sec) 
Heartbeat CPU 0 instructions: 420000000 cycles: 788129646 heartbeat IPC: 0.406704 cumulative IPC: 0.430515 (Simulation time: 0 hr 17 min 55 sec) 
Heartbeat CPU 0 instructions: 430000002 cycles: 809492855 heartbeat IPC: 0.468095 cumulative IPC: 0.431565 (Simulation time: 0 hr 18 min 22 sec) 
Heartbeat CPU 0 instructions: 440000000 cycles: 829906267 heartbeat IPC: 0.489874 cumulative IPC: 0.433081 (Simulation time: 0 hr 18 min 48 sec) 
Heartbeat CPU 0 instructions: 450000002 cycles: 856405502 heartbeat IPC: 0.377369 cumulative IPC: 0.431262 (Simulation time: 0 hr 19 min 18 sec) 
Heartbeat CPU 0 instructions: 460000000 cycles: 882291694 heartbeat IPC: 0.386306 cumulative IPC: 0.429872 (Simulation time: 0 hr 19 min 48 sec) 
Heartbeat CPU 0 instructions: 470000002 cycles: 908159023 heartbeat IPC: 0.386588 cumulative IPC: 0.428576 (Simulation time: 0 hr 20 min 18 sec) 
Heartbeat CPU 0 instructions: 480000000 cycles: 932821145 heartbeat IPC: 0.40548 cumulative IPC: 0.427934 (Simulation time: 0 hr 20 min 47 sec) 
Heartbeat CPU 0 instructions: 490000000 cycles: 953686239 heartbeat IPC: 0.479269 cumulative IPC: 0.429113 (Simulation time: 0 hr 21 min 14 sec) 
Heartbeat CPU 0 instructions: 500000000 cycles: 978436360 heartbeat IPC: 0.404038 cumulative IPC: 0.428448 (Simulation time: 0 hr 21 min 43 sec) 
Heartbeat CPU 0 instructions: 510000000 cycles: 1003474707 heartbeat IPC: 0.399387 cumulative IPC: 0.427689 (Simulation time: 0 hr 22 min 12 sec) 
Heartbeat CPU 0 instructions: 520000000 cycles: 1024615390 heartbeat IPC: 0.473022 cumulative IPC: 0.428667 (Simulation time: 0 hr 22 min 39 sec) 
Heartbeat CPU 0 instructions: 530000003 cycles: 1050152749 heartbeat IPC: 0.391583 cumulative IPC: 0.427725 (Simulation time: 0 hr 23 min 9 sec) 
Heartbeat CPU 0 instructions: 540000000 cycles: 1073013649 heartbeat IPC: 0.437428 cumulative IPC: 0.427941 (Simulation time: 0 hr 23 min 37 sec) 
Heartbeat CPU 0 instructions: 550000000 cycles: 1098286715 heartbeat IPC: 0.395678 cumulative IPC: 0.427167 (Simulation time: 0 hr 24 min 6 sec) 
Heartbeat CPU 0 instructions: 560000000 cycles: 1121938319 heartbeat IPC: 0.422804 cumulative IPC: 0.427071 (Simulation time: 0 hr 24 min 35 sec) 
Heartbeat CPU 0 instructions: 570000002 cycles: 1145357626 heartbeat IPC: 0.426998 cumulative IPC: 0.427069 (Simulation time: 0 hr 25 min 3 sec) 
Heartbeat CPU 0 instructions: 580000000 cycles: 1166519901 heartbeat IPC: 0.472539 cumulative IPC: 0.427927 (Simulation time: 0 hr 25 min 30 sec) 
Heartbeat CPU 0 instructions: 590000001 cycles: 1190402182 heartbeat IPC: 0.418721 cumulative IPC: 0.427735 (Simulation time: 0 hr 25 min 58 sec) 
Heartbeat CPU 0 instructions: 600000000 cycles: 1209608704 heartbeat IPC: 0.520656 cumulative IPC: 0.429268 (Simulation time: 0 hr 26 min 23 sec) 
Finished CPU 0 instructions: 500000000 cycles: 1164774778 cumulative IPC: 0.429268 (Simulation time: 0 hr 26 min 23 sec) 

CPU 0 Branch Prediction Accuracy: 99.5434% MPKI: 1.33026
Number of Branches: 145676990 Number of Mispredictions: 665128
Number of LOAD Instructions: 188863207
Number of LOAD Instructions (ROI): 188863207
Number of STORE Instructions: 7332002
Number of STORE Instructions (ROI): 7332002
Total Destination Memory Operands: 10029285
Total Destination Memory Operands (ROI): 10029285
Total Source Memory Operands: 188863207
Total Source Memory Operands (ROI): 188863207
Number of DEPENDED LOADS: 291229
Number of DEPENDED LOADS (ROI): 291229
Number of SQ_ADDED: 10029285
Number of SQ_ADDED (ROI): 10029285
Number of LQ_ADDED: 200623211
Number of LQ_ADDED (ROI): 200623211
Number of Instructions read from trace: 600000010

ChampSim completed all CPUs

Region of Interest Statistics

CPU 0 cumulative IPC: 0.429268 instructions: 500000000 cycles: 1164774778
ITLB TOTAL     ACCESS:  145807578  HIT:  145768051  MISS:      39527
ITLB LOAD      ACCESS:  145807578  HIT:  145768051  MISS:      39527
ITLB RFO       ACCESS:          0  HIT:          0  MISS:          0
ITLB PREFETCH  ACCESS:          0  HIT:          0  MISS:          0
ITLB WRITEBACK ACCESS:          0  HIT:          0  MISS:          0
ITLB PREFETCH  REQUESTED:          0  ISSUED:          0  USEFUL:          0  USELESS:          0
ITLB TOTAL MSHR MERGED:      57380
ITLB LOAD MSHR MERGED:      57380
ITLB RFO MSHR MERGED:          0
ITLB PREFETCH MSHR MERGED:          0
ITLB WRITEBACK MSHR MERGED:          0
ITLB TOTAL ACCESSES:  145864958 HITS:  145768051 MISSES:      96907
ITLB LOAD ACCESSES:  145864958 HITS:  145768051 MISSES:      96907
ITLB RFO ACCESSES:          0 HITS:          0 MISSES:          0
ITLB PREFETCH ACCESSES:          0 HITS:          0 MISSES:          0
ITLB WRITEBACK ACCESSES:          0 HITS:          0 MISSES:          0
ITLB RQ ACCESS:  499999754
ITLB RQ TO_CACHE:  145864958
ITLB RQ MERGED:  354134796
ITLB RQ FORWARD:          0
ITLB WQ ACCESS:          0
ITLB WQ TO_CACHE:          0
ITLB WQ MERGED:          0
ITLB WQ FORWARD:          0
DTLB TOTAL     ACCESS:  135190403  HIT:  134022042  MISS:    1168361
DTLB LOAD      ACCESS:  127149470  HIT:  125990213  MISS:    1159257
DTLB RFO       ACCESS:    8040933  HIT:    8031829  MISS:       9104
DTLB PREFETCH  ACCESS:          0  HIT:          0  MISS:          0
DTLB WRITEBACK ACCESS:          0  HIT:          0  MISS:          0
DTLB PREFETCH  REQUESTED:          0  ISSUED:          0  USEFUL:          0  USELESS:          0
DTLB TOTAL MSHR MERGED:     581496
DTLB LOAD MSHR MERGED:     577119
DTLB RFO MSHR MERGED:       4377
DTLB PREFETCH MSHR MERGED:          0
DTLB WRITEBACK MSHR MERGED:          0
DTLB TOTAL ACCESSES:  135771899 HITS:  134022042 MISSES:    1749857
DTLB LOAD ACCESSES:  127726589 HITS:  125990213 MISSES:    1736376
DTLB RFO ACCESSES:    8045310 HITS:    8031829 MISSES:      13481
DTLB PREFETCH ACCESSES:          0 HITS:          0 MISSES:          0
DTLB WRITEBACK ACCESSES:          0 HITS:          0 MISSES:          0
DTLB RQ ACCESS:  165763108
DTLB RQ TO_CACHE:  135771899
DTLB RQ MERGED:   29991209
DTLB RQ FORWARD:          0
DTLB WQ ACCESS:          0
DTLB WQ TO_CACHE:          0
DTLB WQ MERGED:          0
DTLB WQ FORWARD:          0
L1D TOTAL     ACCESS:  156955618  HIT:  139639920  MISS:   17315698
L1D LOAD      ACCESS:   89977966  HIT:   78834613  MISS:   11143353
L1D RFO       ACCESS:    8499514  HIT:    8412368  MISS:      87146
L1D PREFETCH  ACCESS:   58478138  HIT:   52392939  MISS:    6085199
L1D WRITEBACK ACCESS:          0  HIT:          0  MISS:          0
L1D PREFETCH  REQUESTED:   93718814  ISSUED:   92851307  USEFUL:    2003772  USELESS:    4081501
L1D TOTAL MSHR MERGED:   15105172
L1D LOAD MSHR MERGED:    7140530
L1D RFO MSHR MERGED:     125017
L1D PREFETCH MSHR MERGED:    7839625
L1D WRITEBACK MSHR MERGED:          0
L1D TOTAL ACCESSES:  172060948 HITS:  139640077 MISSES:   32420871
L1D LOAD ACCESSES:   93718817 HITS:   78834616 MISSES:   14884201
L1D RFO ACCESSES:    8622695 HITS:    8412368 MISSES:     210327
L1D PREFETCH ACCESSES:   69719436 HITS:   52393093 MISSES:   17326343
L1D WRITEBACK ACCESSES:          0 HITS:          0 MISSES:          0
L1D RQ ACCESS:  157123902
L1D RQ TO_CACHE:   93718814
L1D RQ MERGED:   63405085
L1D RQ FORWARD:          0
L1D WQ ACCESS:    8639208
L1D WQ TO_CACHE:    8622695
L1D WQ MERGED:      16513
L1D WQ FORWARD:        157
L1I TOTAL     ACCESS:  178795938  HIT:  178132269  MISS:     663669
L1I LOAD      ACCESS:  178795938  HIT:  178132269  MISS:     663669
L1I RFO       ACCESS:          0  HIT:          0  MISS:          0
L1I PREFETCH  ACCESS:          0  HIT:          0  MISS:          0
L1I WRITEBACK ACCESS:          0  HIT:          0  MISS:          0
L1I PREFETCH  REQUESTED:          0  ISSUED:          0  USEFUL:          0  USELESS:          0
L1I TOTAL MSHR MERGED:     597461
L1I LOAD MSHR MERGED:     597461
L1I RFO MSHR MERGED:          0
L1I PREFETCH MSHR MERGED:          0
L1I WRITEBACK MSHR MERGED:          0
L1I TOTAL ACCESSES:  179393399 HITS:  178132269 MISSES:    1261130
L1I LOAD ACCESSES:  179393399 HITS:  178132269 MISSES:    1261130
L1I RFO ACCESSES:          0 HITS:          0 MISSES:          0
L1I PREFETCH ACCESSES:          0 HITS:          0 MISSES:          0
L1I WRITEBACK ACCESSES:          0 HITS:          0 MISSES:          0
L1I RQ ACCESS:  499999757
L1I RQ TO_CACHE:  179393399
L1I RQ MERGED:  320606358
L1I RQ FORWARD:          0
L1I WQ ACCESS:          0
L1I WQ TO_CACHE:          0
L1I WQ MERGED:          0
L1I WQ FORWARD:          0
L2C TOTAL     ACCESS:   19276775  HIT:    2057275  MISS:   17219500
L2C LOAD      ACCESS:    8407237  HIT:     951138  MISS:    7456099
L2C RFO       ACCESS:      85287  HIT:      53727  MISS:      31560
L2C PREFETCH  ACCESS:   10499242  HIT:     770211  MISS:    9729031
L2C WRITEBACK ACCESS:     285009  HIT:     282199  MISS:       2810
L2C PREFETCH  REQUESTED:    1016900  ISSUED:    1016900  USEFUL:     274775  USELESS:    9453351
L2C TOTAL MSHR MERGED:       1062
L2C LOAD MSHR MERGED:        219
L2C RFO MSHR MERGED:          1
L2C PREFETCH MSHR MERGED:        842
L2C WRITEBACK MSHR MERGED:          0
L2C TOTAL ACCESSES:   19280016 HITS:    2057467 MISSES:   17222549
L2C LOAD ACCESSES:    8407340 HITS:     951241 MISSES:    7456099
L2C RFO ACCESSES:      85310 HITS:      53750 MISSES:      31560
L2C PREFETCH ACCESSES:   10502357 HITS:     770277 MISSES:    9732080
L2C WRITEBACK ACCESSES:     285009 HITS:     282199 MISSES:       2810
L2C RQ ACCESS:    8492650
L2C RQ TO_CACHE:    8492524
L2C RQ MERGED:          0
L2C RQ FORWARD:          0
L2C WQ ACCESS:     285009
L2C WQ TO_CACHE:     285009
L2C WQ MERGED:          0
L2C WQ FORWARD:        192
LLC TOTAL     ACCESS:   17324734  HIT:    4857955  MISS:   12466779
LLC LOAD      ACCESS:    7455880  HIT:    3989217  MISS:    3466663
LLC RFO       ACCESS:      31559  HIT:      16757  MISS:      14802
LLC PREFETCH  ACCESS:    9731236  HIT:     768280  MISS:    8962956
LLC WRITEBACK ACCESS:     106059  HIT:      83701  MISS:      22358
LLC PREFETCH  REQUESTED:          0  ISSUED:          0  USEFUL:       2123  USELESS:    8960112
LLC TOTAL MSHR MERGED:          1
LLC LOAD MSHR MERGED:          0
LLC RFO MSHR MERGED:          0
LLC PREFETCH MSHR MERGED:          1
LLC WRITEBACK MSHR MERGED:          0
LLC TOTAL ACCESSES:   17324736 HITS:    4857955 MISSES:   12466781
LLC LOAD ACCESSES:    7455880 HITS:    3989217 MISSES:    3466663
LLC RFO ACCESSES:      31559 HITS:      16757 MISSES:      14802
LLC PREFETCH ACCESSES:    9731238 HITS:     768280 MISSES:    8962958
LLC WRITEBACK ACCESSES:     106059 HITS:      83701 MISSES:      22358
LLC 0 RQ ACCESS:    7487439
LLC 0 RQ TO_CACHE:    7487439
LLC 0 RQ MERGED:          0
LLC 0 RQ FORWARD:          0
LLC WQ ACCESS:     106059
LLC WQ TO_CACHE:     106059
LLC WQ MERGED:          0
LLC WQ FORWARD:          0
Major fault: 0 Minor fault: 6432
CPU 0 L1D next line prefetcher final stats
CPU 0 L2C PC-based stride prefetcher final stats
All Misses: 14699955
All Hits: 5844439
SD Algo Stats - Switches: 0 SRR-Repls: 3694801 BRR-Repls: 0

DRAM Statistics
 CHANNEL 0
 RQ ROW_BUFFER_HIT:    9406912  ROW_BUFFER_MISS:    3032154
 DBUS_CONGESTED:    5795915
 WQ ROW_BUFFER_HIT:       1363  ROW_BUFFER_MISS:      41223  FULL:          0

 AVG_CONGESTED_CYCLE: 12
LOADS RETIRED: 157382665
INSTR RETIRED: 500000000
