
*** ChampSim Multicore Out-of-Order Simulator ***

Warmup Instructions: 100000000
Simulation Instructions: 500000000
Number of CPUs: 1
LLC sets: 2048
LLC ways: 16
Clean RRIP Policies: 213230202132302 Dirty RRIP Policies: 1203130212031302 PSEL Width: 10 Track Set: 4294967295 PSEL Mask: 1 Demote Mask: 1440100014401000DS Algo: 0Window size: 0
Off-chip DRAM Size: 4096 MB Channels: 1 Width: 64-bit Data Rate: 1600 MT/s

CPU 0 runs /mnt/beegfs/iconst01/spec2017/Fotonik3d.trace.gz
NOT SORTED
TRACE STRING: /mnt/beegfs/iconst01/spec2017/Fotonik3d.trace.gz
SORTED
TRACE STRING: /mnt/beegfs/iconst01/spec2017/Fotonik3d.trace.gz
INITIAL
TRACE STRING: /mnt/beegfs/iconst01/spec2017/Fotonik3d.trace.gz

champsim_seed used: 881

CPU 0 L1D next line prefetcher
CPU 0 L2C IP-based stride prefetcher
Initialize DRRIP state
Assign rand_sets[0]: 454  LLC: 2048
rand_sets[0]: 454
Assign rand_sets[1]: 1662  LLC: 2048
rand_sets[1]: 1662
Assign rand_sets[2]: 1921  LLC: 2048
rand_sets[2]: 1921
Assign rand_sets[3]: 1131  LLC: 2048
rand_sets[3]: 1131
Assign rand_sets[4]: 331  LLC: 2048
rand_sets[4]: 331
Assign rand_sets[5]: 1531  LLC: 2048
rand_sets[5]: 1531
Assign rand_sets[6]: 482  LLC: 2048
rand_sets[6]: 482
Assign rand_sets[7]: 1275  LLC: 2048
rand_sets[7]: 1275
Assign rand_sets[8]: 1876  LLC: 2048
rand_sets[8]: 1876
Assign rand_sets[9]: 2038  LLC: 2048
rand_sets[9]: 2038
Assign rand_sets[10]: 701  LLC: 2048
rand_sets[10]: 701
Assign rand_sets[11]: 479  LLC: 2048
rand_sets[11]: 479
Assign rand_sets[12]: 892  LLC: 2048
rand_sets[12]: 892
Assign rand_sets[13]: 1820  LLC: 2048
rand_sets[13]: 1820
Assign rand_sets[14]: 1505  LLC: 2048
rand_sets[14]: 1505
Assign rand_sets[15]: 1159  LLC: 2048
rand_sets[15]: 1159
Assign rand_sets[16]: 513  LLC: 2048
rand_sets[16]: 513
Assign rand_sets[17]: 703  LLC: 2048
rand_sets[17]: 703
Assign rand_sets[18]: 561  LLC: 2048
rand_sets[18]: 561
Assign rand_sets[19]: 990  LLC: 2048
rand_sets[19]: 990
Assign rand_sets[20]: 342  LLC: 2048
rand_sets[20]: 342
Assign rand_sets[21]: 882  LLC: 2048
rand_sets[21]: 882
Assign rand_sets[22]: 15  LLC: 2048
rand_sets[22]: 15
Assign rand_sets[23]: 71  LLC: 2048
rand_sets[23]: 71
Assign rand_sets[24]: 1127  LLC: 2048
rand_sets[24]: 1127
Assign rand_sets[25]: 1382  LLC: 2048
rand_sets[25]: 1382
Assign rand_sets[26]: 647  LLC: 2048
rand_sets[26]: 647
Assign rand_sets[27]: 857  LLC: 2048
rand_sets[27]: 857
Assign rand_sets[28]: 1450  LLC: 2048
rand_sets[28]: 1450
Assign rand_sets[29]: 1160  LLC: 2048
rand_sets[29]: 1160
Assign rand_sets[30]: 1852  LLC: 2048
rand_sets[30]: 1852
Assign rand_sets[31]: 1881  LLC: 2048
rand_sets[31]: 1881
Assign rand_sets[32]: 1770  LLC: 2048
rand_sets[32]: 1770
Assign rand_sets[33]: 1622  LLC: 2048
rand_sets[33]: 1622
Assign rand_sets[34]: 275  LLC: 2048
rand_sets[34]: 275
Assign rand_sets[35]: 635  LLC: 2048
rand_sets[35]: 635
Assign rand_sets[36]: 466  LLC: 2048
rand_sets[36]: 466
Assign rand_sets[37]: 1413  LLC: 2048
rand_sets[37]: 1413
Assign rand_sets[38]: 417  LLC: 2048
rand_sets[38]: 417
Assign rand_sets[39]: 472  LLC: 2048
rand_sets[39]: 472
Assign rand_sets[40]: 1340  LLC: 2048
rand_sets[40]: 1340
Assign rand_sets[41]: 852  LLC: 2048
rand_sets[41]: 852
Assign rand_sets[42]: 1365  LLC: 2048
rand_sets[42]: 1365
Assign rand_sets[43]: 47  LLC: 2048
rand_sets[43]: 47
Assign rand_sets[44]: 823  LLC: 2048
rand_sets[44]: 823
Assign rand_sets[45]: 686  LLC: 2048
rand_sets[45]: 686
Assign rand_sets[46]: 1637  LLC: 2048
rand_sets[46]: 1637
Assign rand_sets[47]: 1115  LLC: 2048
rand_sets[47]: 1115
Assign rand_sets[48]: 986  LLC: 2048
rand_sets[48]: 986
Assign rand_sets[49]: 258  LLC: 2048
rand_sets[49]: 258
Assign rand_sets[50]: 633  LLC: 2048
rand_sets[50]: 633
Assign rand_sets[51]: 920  LLC: 2048
rand_sets[51]: 920
Assign rand_sets[52]: 204  LLC: 2048
rand_sets[52]: 204
Assign rand_sets[53]: 227  LLC: 2048
rand_sets[53]: 227
Assign rand_sets[54]: 1818  LLC: 2048
rand_sets[54]: 1818
Assign rand_sets[55]: 886  LLC: 2048
rand_sets[55]: 886
Assign rand_sets[56]: 1422  LLC: 2048
rand_sets[56]: 1422
Assign rand_sets[57]: 607  LLC: 2048
rand_sets[57]: 607
Assign rand_sets[58]: 217  LLC: 2048
rand_sets[58]: 217
Assign rand_sets[59]: 1945  LLC: 2048
rand_sets[59]: 1945
Assign rand_sets[60]: 143  LLC: 2048
rand_sets[60]: 143
Assign rand_sets[61]: 1311  LLC: 2048
rand_sets[61]: 1311
Assign rand_sets[62]: 319  LLC: 2048
rand_sets[62]: 319
Assign rand_sets[63]: 1846  LLC: 2048
rand_sets[63]: 1846
 CLEAN-RRIP-POLICY-1: 0-2-1-3-2-3-0-2- CLEAN-RRIP-POLICY-2: 0-2-1-3-2-3-0-2-
 DIRTY-RRIP-POLICY-1: 1-2-0-3-1-3-0-2- DIRTY-RRIP-POLICY-2: 1-2-0-3-1-3-0-2-
 PSEL width: 10
Heartbeat CPU 0 instructions: 10000002 cycles: 7306839 heartbeat IPC: 1.36858 cumulative IPC: 1.36858 (Simulation time: 0 hr 0 min 24 sec) 
Heartbeat CPU 0 instructions: 20000000 cycles: 14613834 heartbeat IPC: 1.36855 cumulative IPC: 1.36857 (Simulation time: 0 hr 0 min 49 sec) 
Heartbeat CPU 0 instructions: 30000001 cycles: 21920711 heartbeat IPC: 1.36857 cumulative IPC: 1.36857 (Simulation time: 0 hr 1 min 13 sec) 
Heartbeat CPU 0 instructions: 40000000 cycles: 29227501 heartbeat IPC: 1.36859 cumulative IPC: 1.36857 (Simulation time: 0 hr 1 min 37 sec) 
Heartbeat CPU 0 instructions: 50000001 cycles: 36534255 heartbeat IPC: 1.3686 cumulative IPC: 1.36858 (Simulation time: 0 hr 2 min 2 sec) 
Heartbeat CPU 0 instructions: 60000000 cycles: 43841248 heartbeat IPC: 1.36855 cumulative IPC: 1.36857 (Simulation time: 0 hr 2 min 26 sec) 
Heartbeat CPU 0 instructions: 70000002 cycles: 51148049 heartbeat IPC: 1.36859 cumulative IPC: 1.36858 (Simulation time: 0 hr 2 min 50 sec) 
Heartbeat CPU 0 instructions: 80000000 cycles: 58454825 heartbeat IPC: 1.36859 cumulative IPC: 1.36858 (Simulation time: 0 hr 3 min 15 sec) 
Heartbeat CPU 0 instructions: 90000003 cycles: 65765411 heartbeat IPC: 1.36788 cumulative IPC: 1.3685 (Simulation time: 0 hr 3 min 39 sec) 
Heartbeat CPU 0 instructions: 100000000 cycles: 73076093 heartbeat IPC: 1.36786 cumulative IPC: 1.36844 (Simulation time: 0 hr 4 min 4 sec) 

Warmup complete CPU 0 instructions: 100000002 cycles: 73076105 (Simulation time: 0 hr 4 min 4 sec) 

Heartbeat CPU 0 instructions: 110000001 cycles: 85581626 heartbeat IPC: 0.799646 cumulative IPC: 0.799647 (Simulation time: 0 hr 4 min 33 sec) 
Heartbeat CPU 0 instructions: 120000000 cycles: 98020814 heartbeat IPC: 0.803911 cumulative IPC: 0.801773 (Simulation time: 0 hr 5 min 2 sec) 
Heartbeat CPU 0 instructions: 130000000 cycles: 110539561 heartbeat IPC: 0.798802 cumulative IPC: 0.80078 (Simulation time: 0 hr 5 min 32 sec) 
Heartbeat CPU 0 instructions: 140000000 cycles: 123009980 heartbeat IPC: 0.801898 cumulative IPC: 0.801059 (Simulation time: 0 hr 6 min 1 sec) 
Heartbeat CPU 0 instructions: 150000000 cycles: 135436351 heartbeat IPC: 0.80474 cumulative IPC: 0.801793 (Simulation time: 0 hr 6 min 31 sec) 
Heartbeat CPU 0 instructions: 160000000 cycles: 147902274 heartbeat IPC: 0.802187 cumulative IPC: 0.801858 (Simulation time: 0 hr 7 min 0 sec) 
Heartbeat CPU 0 instructions: 170000001 cycles: 160375221 heartbeat IPC: 0.801735 cumulative IPC: 0.801841 (Simulation time: 0 hr 7 min 30 sec) 
Heartbeat CPU 0 instructions: 180000000 cycles: 172856764 heartbeat IPC: 0.801183 cumulative IPC: 0.801759 (Simulation time: 0 hr 8 min 0 sec) 
Heartbeat CPU 0 instructions: 190000000 cycles: 185369485 heartbeat IPC: 0.799187 cumulative IPC: 0.801472 (Simulation time: 0 hr 8 min 29 sec) 
Heartbeat CPU 0 instructions: 200000000 cycles: 197843495 heartbeat IPC: 0.801667 cumulative IPC: 0.801491 (Simulation time: 0 hr 8 min 58 sec) 
Heartbeat CPU 0 instructions: 210000002 cycles: 210355720 heartbeat IPC: 0.799219 cumulative IPC: 0.801284 (Simulation time: 0 hr 9 min 27 sec) 
Heartbeat CPU 0 instructions: 220000000 cycles: 222886803 heartbeat IPC: 0.798015 cumulative IPC: 0.801011 (Simulation time: 0 hr 9 min 57 sec) 
Heartbeat CPU 0 instructions: 230000002 cycles: 235357554 heartbeat IPC: 0.801876 cumulative IPC: 0.801077 (Simulation time: 0 hr 10 min 26 sec) 
Heartbeat CPU 0 instructions: 240000000 cycles: 248557204 heartbeat IPC: 0.757596 cumulative IPC: 0.797807 (Simulation time: 0 hr 10 min 55 sec) 
Heartbeat CPU 0 instructions: 250000001 cycles: 266074074 heartbeat IPC: 0.570878 cumulative IPC: 0.77721 (Simulation time: 0 hr 11 min 27 sec) 
Heartbeat CPU 0 instructions: 260000000 cycles: 283577503 heartbeat IPC: 0.571317 cumulative IPC: 0.76009 (Simulation time: 0 hr 11 min 59 sec) 
Heartbeat CPU 0 instructions: 270000000 cycles: 301127505 heartbeat IPC: 0.5698 cumulative IPC: 0.745446 (Simulation time: 0 hr 12 min 31 sec) 
Heartbeat CPU 0 instructions: 280000000 cycles: 318642797 heartbeat IPC: 0.57093 cumulative IPC: 0.732998 (Simulation time: 0 hr 13 min 3 sec) 
Heartbeat CPU 0 instructions: 290000001 cycles: 347548086 heartbeat IPC: 0.345957 cumulative IPC: 0.692238 (Simulation time: 0 hr 13 min 43 sec) 
Heartbeat CPU 0 instructions: 300000000 cycles: 384994134 heartbeat IPC: 0.267051 cumulative IPC: 0.641194 (Simulation time: 0 hr 14 min 29 sec) 
Heartbeat CPU 0 instructions: 310000000 cycles: 401921568 heartbeat IPC: 0.590757 cumulative IPC: 0.638598 (Simulation time: 0 hr 15 min 0 sec) 
Heartbeat CPU 0 instructions: 320000000 cycles: 418835243 heartbeat IPC: 0.591238 cumulative IPC: 0.636281 (Simulation time: 0 hr 15 min 31 sec) 
Heartbeat CPU 0 instructions: 330000003 cycles: 435830792 heartbeat IPC: 0.58839 cumulative IPC: 0.634037 (Simulation time: 0 hr 16 min 3 sec) 
Heartbeat CPU 0 instructions: 340000000 cycles: 452752278 heartbeat IPC: 0.590964 cumulative IPC: 0.632118 (Simulation time: 0 hr 16 min 34 sec) 
Heartbeat CPU 0 instructions: 350000001 cycles: 467821982 heartbeat IPC: 0.663583 cumulative IPC: 0.633319 (Simulation time: 0 hr 17 min 4 sec) 
Heartbeat CPU 0 instructions: 360000000 cycles: 479699231 heartbeat IPC: 0.841946 cumulative IPC: 0.639413 (Simulation time: 0 hr 17 min 31 sec) 
Heartbeat CPU 0 instructions: 370000002 cycles: 491342354 heartbeat IPC: 0.858876 cumulative IPC: 0.645522 (Simulation time: 0 hr 17 min 58 sec) 
Heartbeat CPU 0 instructions: 380000000 cycles: 503203462 heartbeat IPC: 0.843091 cumulative IPC: 0.65097 (Simulation time: 0 hr 18 min 25 sec) 
Heartbeat CPU 0 instructions: 390000003 cycles: 516521869 heartbeat IPC: 0.750841 cumulative IPC: 0.653969 (Simulation time: 0 hr 18 min 53 sec) 
Heartbeat CPU 0 instructions: 400000000 cycles: 528771340 heartbeat IPC: 0.816362 cumulative IPC: 0.658335 (Simulation time: 0 hr 19 min 21 sec) 
Heartbeat CPU 0 instructions: 410000003 cycles: 540744366 heartbeat IPC: 0.835211 cumulative IPC: 0.662863 (Simulation time: 0 hr 19 min 49 sec) 
Heartbeat CPU 0 instructions: 420000000 cycles: 553607254 heartbeat IPC: 0.77743 cumulative IPC: 0.66593 (Simulation time: 0 hr 20 min 16 sec) 
Heartbeat CPU 0 instructions: 430000003 cycles: 572237458 heartbeat IPC: 0.536763 cumulative IPC: 0.661109 (Simulation time: 0 hr 20 min 42 sec) 
Heartbeat CPU 0 instructions: 440000000 cycles: 590846495 heartbeat IPC: 0.537373 cumulative IPC: 0.656662 (Simulation time: 0 hr 21 min 7 sec) 
Heartbeat CPU 0 instructions: 450000003 cycles: 609478878 heartbeat IPC: 0.5367 cumulative IPC: 0.652495 (Simulation time: 0 hr 21 min 32 sec) 
Heartbeat CPU 0 instructions: 460000000 cycles: 628089648 heartbeat IPC: 0.537323 cumulative IPC: 0.648633 (Simulation time: 0 hr 21 min 57 sec) 
Heartbeat CPU 0 instructions: 470000003 cycles: 646704184 heartbeat IPC: 0.537215 cumulative IPC: 0.645017 (Simulation time: 0 hr 22 min 23 sec) 
Heartbeat CPU 0 instructions: 480000000 cycles: 665323565 heartbeat IPC: 0.537075 cumulative IPC: 0.641624 (Simulation time: 0 hr 22 min 48 sec) 
Heartbeat CPU 0 instructions: 490000003 cycles: 683984287 heartbeat IPC: 0.535885 cumulative IPC: 0.638394 (Simulation time: 0 hr 23 min 13 sec) 
Heartbeat CPU 0 instructions: 500000000 cycles: 702553170 heartbeat IPC: 0.538535 cumulative IPC: 0.635448 (Simulation time: 0 hr 23 min 38 sec) 
Heartbeat CPU 0 instructions: 510000003 cycles: 721167861 heartbeat IPC: 0.53721 cumulative IPC: 0.632626 (Simulation time: 0 hr 24 min 4 sec) 
Heartbeat CPU 0 instructions: 520000000 cycles: 739780097 heartbeat IPC: 0.537281 cumulative IPC: 0.629965 (Simulation time: 0 hr 24 min 29 sec) 
Heartbeat CPU 0 instructions: 530000001 cycles: 758397327 heartbeat IPC: 0.537137 cumulative IPC: 0.627443 (Simulation time: 0 hr 24 min 54 sec) 
Heartbeat CPU 0 instructions: 540000000 cycles: 776966904 heartbeat IPC: 0.538515 cumulative IPC: 0.625097 (Simulation time: 0 hr 25 min 20 sec) 
Heartbeat CPU 0 instructions: 550000001 cycles: 795532738 heartbeat IPC: 0.538624 cumulative IPC: 0.622875 (Simulation time: 0 hr 25 min 45 sec) 
Heartbeat CPU 0 instructions: 560000000 cycles: 814118182 heartbeat IPC: 0.538055 cumulative IPC: 0.620747 (Simulation time: 0 hr 26 min 10 sec) 
Heartbeat CPU 0 instructions: 570000001 cycles: 832653652 heartbeat IPC: 0.539506 cumulative IPC: 0.618765 (Simulation time: 0 hr 26 min 35 sec) 
Heartbeat CPU 0 instructions: 580000000 cycles: 851125651 heartbeat IPC: 0.54136 cumulative IPC: 0.616927 (Simulation time: 0 hr 27 min 1 sec) 
Heartbeat CPU 0 instructions: 590000001 cycles: 869687329 heartbeat IPC: 0.538744 cumulative IPC: 0.615106 (Simulation time: 0 hr 27 min 26 sec) 
Heartbeat CPU 0 instructions: 600000000 cycles: 888264221 heartbeat IPC: 0.538303 cumulative IPC: 0.613355 (Simulation time: 0 hr 27 min 51 sec) 
Finished CPU 0 instructions: 500000002 cycles: 815188130 cumulative IPC: 0.613355 (Simulation time: 0 hr 27 min 51 sec) 

CPU 0 Branch Prediction Accuracy: 99.5931% MPKI: 0.08288
Number of Branches: 10184133 Number of Mispredictions: 41440
Number of LOAD Instructions: 261155957
Number of LOAD Instructions (ROI): 261155957
Number of STORE Instructions: 57884062
Number of STORE Instructions (ROI): 57884062
Total Destination Memory Operands: 83293336
Total Destination Memory Operands (ROI): 83293336
Total Source Memory Operands: 261155957
Total Source Memory Operands (ROI): 261155957
Number of DEPENDED LOADS: 22256894
Number of DEPENDED LOADS (ROI): 22256894
Number of SQ_ADDED: 83293300
Number of SQ_ADDED (ROI): 83293300
Number of LQ_ADDED: 1775709385
Number of LQ_ADDED (ROI): 1775709385
Number of Instructions read from trace: 600000257

ChampSim completed all CPUs

Region of Interest Statistics

CPU 0 cumulative IPC: 0.613355 instructions: 500000002 cycles: 815188130
ITLB TOTAL     ACCESS:   94748721  HIT:   94748683  MISS:         38
ITLB LOAD      ACCESS:   94748721  HIT:   94748683  MISS:         38
ITLB RFO       ACCESS:          0  HIT:          0  MISS:          0
ITLB PREFETCH  ACCESS:          0  HIT:          0  MISS:          0
ITLB WRITEBACK ACCESS:          0  HIT:          0  MISS:          0
ITLB PREFETCH  REQUESTED:          0  ISSUED:          0  USEFUL:          0  USELESS:          0
ITLB TOTAL MSHR MERGED:         93
ITLB LOAD MSHR MERGED:         93
ITLB RFO MSHR MERGED:          0
ITLB PREFETCH MSHR MERGED:          0
ITLB WRITEBACK MSHR MERGED:          0
ITLB TOTAL ACCESSES:   94748814 HITS:   94748683 MISSES:        131
ITLB LOAD ACCESSES:   94748814 HITS:   94748683 MISSES:        131
ITLB RFO ACCESSES:          0 HITS:          0 MISSES:          0
ITLB PREFETCH ACCESSES:          0 HITS:          0 MISSES:          0
ITLB WRITEBACK ACCESSES:          0 HITS:          0 MISSES:          0
ITLB RQ ACCESS:  500000001
ITLB RQ TO_CACHE:   94748815
ITLB RQ MERGED:  405251186
ITLB RQ FORWARD:          0
ITLB WQ ACCESS:          0
ITLB WQ TO_CACHE:          0
ITLB WQ MERGED:          0
ITLB WQ FORWARD:          0
DTLB TOTAL     ACCESS:  149200449  HIT:  148603489  MISS:     596960
DTLB LOAD      ACCESS:  107328173  HIT:  106731224  MISS:     596949
DTLB RFO       ACCESS:   41872276  HIT:   41872265  MISS:         11
DTLB PREFETCH  ACCESS:          0  HIT:          0  MISS:          0
DTLB WRITEBACK ACCESS:          0  HIT:          0  MISS:          0
DTLB PREFETCH  REQUESTED:          0  ISSUED:          0  USEFUL:          0  USELESS:          0
DTLB TOTAL MSHR MERGED:     134341
DTLB LOAD MSHR MERGED:     134341
DTLB RFO MSHR MERGED:          0
DTLB PREFETCH MSHR MERGED:          0
DTLB WRITEBACK MSHR MERGED:          0
DTLB TOTAL ACCESSES:  149334790 HITS:  148603489 MISSES:     731301
DTLB LOAD ACCESSES:  107462514 HITS:  106731224 MISSES:     731290
DTLB RFO ACCESSES:   41872276 HITS:   41872265 MISSES:         11
DTLB PREFETCH ACCESSES:          0 HITS:          0 MISSES:          0
DTLB WRITEBACK ACCESSES:          0 HITS:          0 MISSES:          0
DTLB RQ ACCESS:  259758999
DTLB RQ TO_CACHE:  149334790
DTLB RQ MERGED:  110424209
DTLB RQ FORWARD:          0
DTLB WQ ACCESS:          0
DTLB WQ TO_CACHE:          0
DTLB WQ MERGED:          0
DTLB WQ FORWARD:          0
L1D TOTAL     ACCESS:  261125973  HIT:  245715496  MISS:   15410477
L1D LOAD      ACCESS:  118068795  HIT:  112573957  MISS:    5494838
L1D RFO       ACCESS:   68946822  HIT:   68932412  MISS:      14410
L1D PREFETCH  ACCESS:   74110356  HIT:   64209127  MISS:    9901229
L1D WRITEBACK ACCESS:          0  HIT:          0  MISS:          0
L1D PREFETCH  REQUESTED:  120653453  ISSUED:  119140831  USEFUL:    8017703  USELESS:    1883548
L1D TOTAL MSHR MERGED:   16488089
L1D LOAD MSHR MERGED:    4993339
L1D RFO MSHR MERGED:      21750
L1D PREFETCH MSHR MERGED:   11473000
L1D WRITEBACK MSHR MERGED:          0
L1D TOTAL ACCESSES:  277724173 HITS:  245825607 MISSES:   31898566
L1D LOAD ACCESSES:  120660992 HITS:  112581496 MISSES:    8079496
L1D RFO ACCESSES:   68968572 HITS:   68932412 MISSES:      36160
L1D PREFETCH ACCESSES:   88094609 HITS:   64311699 MISSES:   23782910
L1D WRITEBACK ACCESSES:          0 HITS:          0 MISSES:          0
L1D RQ ACCESS:  190684683
L1D RQ TO_CACHE:  120653453
L1D RQ MERGED:   70023691
L1D RQ FORWARD:          0
L1D WQ ACCESS:   69074336
L1D WQ TO_CACHE:   68968574
L1D WQ MERGED:     105762
L1D WQ FORWARD:     110111
L1I TOTAL     ACCESS:  121647826  HIT:  121646753  MISS:       1073
L1I LOAD      ACCESS:  121647826  HIT:  121646753  MISS:       1073
L1I RFO       ACCESS:          0  HIT:          0  MISS:          0
L1I PREFETCH  ACCESS:          0  HIT:          0  MISS:          0
L1I WRITEBACK ACCESS:          0  HIT:          0  MISS:          0
L1I PREFETCH  REQUESTED:          0  ISSUED:          0  USEFUL:          0  USELESS:          0
L1I TOTAL MSHR MERGED:       1027
L1I LOAD MSHR MERGED:       1027
L1I RFO MSHR MERGED:          0
L1I PREFETCH MSHR MERGED:          0
L1I WRITEBACK MSHR MERGED:          0
L1I TOTAL ACCESSES:  121648853 HITS:  121646753 MISSES:       2100
L1I LOAD ACCESSES:  121648853 HITS:  121646753 MISSES:       2100
L1I RFO ACCESSES:          0 HITS:          0 MISSES:          0
L1I PREFETCH ACCESSES:          0 HITS:          0 MISSES:          0
L1I WRITEBACK ACCESSES:          0 HITS:          0 MISSES:          0
L1I RQ ACCESS:  500000000
L1I RQ TO_CACHE:  121648853
L1I RQ MERGED:  378351147
L1I RQ FORWARD:          0
L1I WQ ACCESS:          0
L1I WQ TO_CACHE:          0
L1I WQ MERGED:          0
L1I WQ FORWARD:          0
L2C TOTAL     ACCESS:   22481361  HIT:    9150244  MISS:   13331117
L2C LOAD      ACCESS:    3087200  HIT:     415409  MISS:    2671791
L2C RFO       ACCESS:      14410  HIT:      13994  MISS:        416
L2C PREFETCH  ACCESS:   12749828  HIT:    2092726  MISS:   10657102
L2C WRITEBACK ACCESS:    6629923  HIT:    6628115  MISS:       1808
L2C PREFETCH  REQUESTED:     690171  ISSUED:     690171  USEFUL:     185790  USELESS:   10472106
L2C TOTAL MSHR MERGED:      70448
L2C LOAD MSHR MERGED:      22155
L2C RFO MSHR MERGED:          0
L2C PREFETCH MSHR MERGED:      48293
L2C WRITEBACK MSHR MERGED:          0
L2C TOTAL ACCESSES:   22691860 HITS:    9150283 MISSES:   13541577
L2C LOAD ACCESSES:    3087230 HITS:     415439 MISSES:    2671791
L2C RFO ACCESSES:      14410 HITS:      13994 MISSES:        416
L2C PREFETCH ACCESSES:   12960297 HITS:    2092735 MISSES:   10867562
L2C WRITEBACK ACCESSES:    6629923 HITS:    6628115 MISSES:       1808
L2C RQ ACCESS:    3101640
L2C RQ TO_CACHE:    3101610
L2C RQ MERGED:          0
L2C RQ FORWARD:          0
L2C WQ ACCESS:    6629923
L2C WQ TO_CACHE:    6629923
L2C WQ MERGED:          0
L2C WQ FORWARD:         39
LLC TOTAL     ACCESS:   20037786  HIT:    1718515  MISS:   18319271
LLC LOAD      ACCESS:    2649636  HIT:     315550  MISS:    2334086
LLC RFO       ACCESS:        416  HIT:         19  MISS:        397
LLC PREFETCH  ACCESS:   10796495  HIT:      96482  MISS:   10700013
LLC WRITEBACK ACCESS:    6591239  HIT:    1306464  MISS:    5284775
LLC PREFETCH  REQUESTED:          0  ISSUED:          0  USEFUL:      47032  USELESS:   10655067
LLC TOTAL MSHR MERGED:      21423
LLC LOAD MSHR MERGED:       9869
LLC RFO MSHR MERGED:          0
LLC PREFETCH MSHR MERGED:      11554
LLC WRITEBACK MSHR MERGED:          0
LLC TOTAL ACCESSES:   20059211 HITS:    1718516 MISSES:   18340695
LLC LOAD ACCESSES:    2649636 HITS:     315550 MISSES:    2334086
LLC RFO ACCESSES:        416 HITS:         19 MISSES:        397
LLC PREFETCH ACCESSES:   10817920 HITS:      96483 MISSES:   10721437
LLC WRITEBACK ACCESSES:    6591239 HITS:    1306464 MISSES:    5284775
LLC 0 RQ ACCESS:    2650052
LLC 0 RQ TO_CACHE:    2650052
LLC 0 RQ MERGED:          0
LLC 0 RQ FORWARD:          0
LLC WQ ACCESS:    6591240
LLC WQ TO_CACHE:    6591240
LLC WQ MERGED:          0
LLC WQ FORWARD:          1
Major fault: 0 Minor fault: 183991
CPU 0 L1D next line prefetcher final stats
CPU 0 L2C PC-based stride prefetcher final stats
All Misses: 21205153
All Hits: 1763679
SD Algo Stats - Switches: 80 SRR-Repls: 2200531 BRR-Repls: 194368

DRAM Statistics
 CHANNEL 0
 RQ ROW_BUFFER_HIT:    7236141  ROW_BUFFER_MISS:    5798355
 DBUS_CONGESTED:   11382829
 WQ ROW_BUFFER_HIT:    1034930  ROW_BUFFER_MISS:    5552696  FULL:          0

 AVG_CONGESTED_CYCLE: 13
LOADS RETIRED: 204440772
INSTR RETIRED: 500000000
