
*** ChampSim Multicore Out-of-Order Simulator ***

Warmup Instructions: 100000000
Simulation Instructions: 500000000
Number of CPUs: 1
LLC sets: 2048
LLC ways: 16
Clean RRIP Policies: 2203232122032321 Dirty RRIP Policies: 1203132112031321 PSEL Width: 10 Track Set: 4294967295 PSEL Mask: 1 Demote Mask: 2402204324022043DS Algo: 0Window size: 0
Off-chip DRAM Size: 4096 MB Channels: 1 Width: 64-bit Data Rate: 1600 MT/s

CPU 0 runs /mnt/beegfs/iconst01/spec2017/Roms.trace.gz
NOT SORTED
TRACE STRING: /mnt/beegfs/iconst01/spec2017/Roms.trace.gz
SORTED
TRACE STRING: /mnt/beegfs/iconst01/spec2017/Roms.trace.gz
INITIAL
TRACE STRING: /mnt/beegfs/iconst01/spec2017/Roms.trace.gz

champsim_seed used: 417

CPU 0 L1D next line prefetcher
CPU 0 L2C IP-based stride prefetcher
Initialize DRRIP state
Assign rand_sets[0]: 454  LLC: 2048
rand_sets[0]: 454
Assign rand_sets[1]: 1662  LLC: 2048
rand_sets[1]: 1662
Assign rand_sets[2]: 1921  LLC: 2048
rand_sets[2]: 1921
Assign rand_sets[3]: 1131  LLC: 2048
rand_sets[3]: 1131
Assign rand_sets[4]: 331  LLC: 2048
rand_sets[4]: 331
Assign rand_sets[5]: 1531  LLC: 2048
rand_sets[5]: 1531
Assign rand_sets[6]: 482  LLC: 2048
rand_sets[6]: 482
Assign rand_sets[7]: 1275  LLC: 2048
rand_sets[7]: 1275
Assign rand_sets[8]: 1876  LLC: 2048
rand_sets[8]: 1876
Assign rand_sets[9]: 2038  LLC: 2048
rand_sets[9]: 2038
Assign rand_sets[10]: 701  LLC: 2048
rand_sets[10]: 701
Assign rand_sets[11]: 479  LLC: 2048
rand_sets[11]: 479
Assign rand_sets[12]: 892  LLC: 2048
rand_sets[12]: 892
Assign rand_sets[13]: 1820  LLC: 2048
rand_sets[13]: 1820
Assign rand_sets[14]: 1505  LLC: 2048
rand_sets[14]: 1505
Assign rand_sets[15]: 1159  LLC: 2048
rand_sets[15]: 1159
Assign rand_sets[16]: 513  LLC: 2048
rand_sets[16]: 513
Assign rand_sets[17]: 703  LLC: 2048
rand_sets[17]: 703
Assign rand_sets[18]: 561  LLC: 2048
rand_sets[18]: 561
Assign rand_sets[19]: 990  LLC: 2048
rand_sets[19]: 990
Assign rand_sets[20]: 342  LLC: 2048
rand_sets[20]: 342
Assign rand_sets[21]: 882  LLC: 2048
rand_sets[21]: 882
Assign rand_sets[22]: 15  LLC: 2048
rand_sets[22]: 15
Assign rand_sets[23]: 71  LLC: 2048
rand_sets[23]: 71
Assign rand_sets[24]: 1127  LLC: 2048
rand_sets[24]: 1127
Assign rand_sets[25]: 1382  LLC: 2048
rand_sets[25]: 1382
Assign rand_sets[26]: 647  LLC: 2048
rand_sets[26]: 647
Assign rand_sets[27]: 857  LLC: 2048
rand_sets[27]: 857
Assign rand_sets[28]: 1450  LLC: 2048
rand_sets[28]: 1450
Assign rand_sets[29]: 1160  LLC: 2048
rand_sets[29]: 1160
Assign rand_sets[30]: 1852  LLC: 2048
rand_sets[30]: 1852
Assign rand_sets[31]: 1881  LLC: 2048
rand_sets[31]: 1881
Assign rand_sets[32]: 1770  LLC: 2048
rand_sets[32]: 1770
Assign rand_sets[33]: 1622  LLC: 2048
rand_sets[33]: 1622
Assign rand_sets[34]: 275  LLC: 2048
rand_sets[34]: 275
Assign rand_sets[35]: 635  LLC: 2048
rand_sets[35]: 635
Assign rand_sets[36]: 466  LLC: 2048
rand_sets[36]: 466
Assign rand_sets[37]: 1413  LLC: 2048
rand_sets[37]: 1413
Assign rand_sets[38]: 417  LLC: 2048
rand_sets[38]: 417
Assign rand_sets[39]: 472  LLC: 2048
rand_sets[39]: 472
Assign rand_sets[40]: 1340  LLC: 2048
rand_sets[40]: 1340
Assign rand_sets[41]: 852  LLC: 2048
rand_sets[41]: 852
Assign rand_sets[42]: 1365  LLC: 2048
rand_sets[42]: 1365
Assign rand_sets[43]: 47  LLC: 2048
rand_sets[43]: 47
Assign rand_sets[44]: 823  LLC: 2048
rand_sets[44]: 823
Assign rand_sets[45]: 686  LLC: 2048
rand_sets[45]: 686
Assign rand_sets[46]: 1637  LLC: 2048
rand_sets[46]: 1637
Assign rand_sets[47]: 1115  LLC: 2048
rand_sets[47]: 1115
Assign rand_sets[48]: 986  LLC: 2048
rand_sets[48]: 986
Assign rand_sets[49]: 258  LLC: 2048
rand_sets[49]: 258
Assign rand_sets[50]: 633  LLC: 2048
rand_sets[50]: 633
Assign rand_sets[51]: 920  LLC: 2048
rand_sets[51]: 920
Assign rand_sets[52]: 204  LLC: 2048
rand_sets[52]: 204
Assign rand_sets[53]: 227  LLC: 2048
rand_sets[53]: 227
Assign rand_sets[54]: 1818  LLC: 2048
rand_sets[54]: 1818
Assign rand_sets[55]: 886  LLC: 2048
rand_sets[55]: 886
Assign rand_sets[56]: 1422  LLC: 2048
rand_sets[56]: 1422
Assign rand_sets[57]: 607  LLC: 2048
rand_sets[57]: 607
Assign rand_sets[58]: 217  LLC: 2048
rand_sets[58]: 217
Assign rand_sets[59]: 1945  LLC: 2048
rand_sets[59]: 1945
Assign rand_sets[60]: 143  LLC: 2048
rand_sets[60]: 143
Assign rand_sets[61]: 1311  LLC: 2048
rand_sets[61]: 1311
Assign rand_sets[62]: 319  LLC: 2048
rand_sets[62]: 319
Assign rand_sets[63]: 1846  LLC: 2048
rand_sets[63]: 1846
 CLEAN-RRIP-POLICY-1: 2-2-0-3-2-3-2-1- CLEAN-RRIP-POLICY-2: 2-2-0-3-2-3-2-1-
 DIRTY-RRIP-POLICY-1: 1-2-0-3-1-3-2-1- DIRTY-RRIP-POLICY-2: 1-2-0-3-1-3-2-1-
 PSEL width: 10
Heartbeat CPU 0 instructions: 10000000 cycles: 4688066 heartbeat IPC: 2.13308 cumulative IPC: 2.13308 (Simulation time: 0 hr 0 min 17 sec) 
Heartbeat CPU 0 instructions: 20000000 cycles: 9325334 heartbeat IPC: 2.15644 cumulative IPC: 2.1447 (Simulation time: 0 hr 0 min 34 sec) 
Heartbeat CPU 0 instructions: 30000003 cycles: 14019725 heartbeat IPC: 2.1302 cumulative IPC: 2.13984 (Simulation time: 0 hr 0 min 51 sec) 
Heartbeat CPU 0 instructions: 40000000 cycles: 18670147 heartbeat IPC: 2.15034 cumulative IPC: 2.14246 (Simulation time: 0 hr 1 min 7 sec) 
Heartbeat CPU 0 instructions: 50000003 cycles: 23323540 heartbeat IPC: 2.14897 cumulative IPC: 2.14376 (Simulation time: 0 hr 1 min 24 sec) 
Heartbeat CPU 0 instructions: 60000000 cycles: 27976217 heartbeat IPC: 2.1493 cumulative IPC: 2.14468 (Simulation time: 0 hr 1 min 41 sec) 
Heartbeat CPU 0 instructions: 70000002 cycles: 32367401 heartbeat IPC: 2.27729 cumulative IPC: 2.16267 (Simulation time: 0 hr 1 min 55 sec) 
Heartbeat CPU 0 instructions: 80000000 cycles: 36304285 heartbeat IPC: 2.54008 cumulative IPC: 2.2036 (Simulation time: 0 hr 2 min 7 sec) 
Heartbeat CPU 0 instructions: 90000000 cycles: 40249565 heartbeat IPC: 2.53467 cumulative IPC: 2.23605 (Simulation time: 0 hr 2 min 19 sec) 
Heartbeat CPU 0 instructions: 100000000 cycles: 44211880 heartbeat IPC: 2.52378 cumulative IPC: 2.26184 (Simulation time: 0 hr 2 min 31 sec) 

Warmup complete CPU 0 instructions: 100000002 cycles: 44211881 (Simulation time: 0 hr 2 min 31 sec) 

Heartbeat CPU 0 instructions: 110000000 cycles: 52938198 heartbeat IPC: 1.14596 cumulative IPC: 1.14596 (Simulation time: 0 hr 2 min 49 sec) 
Heartbeat CPU 0 instructions: 120000000 cycles: 61734055 heartbeat IPC: 1.1369 cumulative IPC: 1.14141 (Simulation time: 0 hr 3 min 8 sec) 
Heartbeat CPU 0 instructions: 130000002 cycles: 70572540 heartbeat IPC: 1.13142 cumulative IPC: 1.13806 (Simulation time: 0 hr 3 min 26 sec) 
Heartbeat CPU 0 instructions: 140000000 cycles: 79278571 heartbeat IPC: 1.14863 cumulative IPC: 1.14068 (Simulation time: 0 hr 3 min 44 sec) 
Heartbeat CPU 0 instructions: 150000003 cycles: 88124802 heartbeat IPC: 1.13043 cumulative IPC: 1.13862 (Simulation time: 0 hr 4 min 3 sec) 
Heartbeat CPU 0 instructions: 160000000 cycles: 98500356 heartbeat IPC: 0.963804 cumulative IPC: 1.10521 (Simulation time: 0 hr 4 min 24 sec) 
Heartbeat CPU 0 instructions: 170000000 cycles: 110915603 heartbeat IPC: 0.805461 cumulative IPC: 1.04942 (Simulation time: 0 hr 4 min 47 sec) 
Heartbeat CPU 0 instructions: 180000000 cycles: 123361912 heartbeat IPC: 0.803451 cumulative IPC: 1.01074 (Simulation time: 0 hr 5 min 10 sec) 
Heartbeat CPU 0 instructions: 190000000 cycles: 136058300 heartbeat IPC: 0.787626 cumulative IPC: 0.979897 (Simulation time: 0 hr 5 min 33 sec) 
Heartbeat CPU 0 instructions: 200000000 cycles: 150055467 heartbeat IPC: 0.71443 cumulative IPC: 0.94479 (Simulation time: 0 hr 5 min 56 sec) 
Heartbeat CPU 0 instructions: 210000001 cycles: 163989710 heartbeat IPC: 0.717657 cumulative IPC: 0.918367 (Simulation time: 0 hr 6 min 19 sec) 
Heartbeat CPU 0 instructions: 220000000 cycles: 177765142 heartbeat IPC: 0.72593 cumulative IPC: 0.898518 (Simulation time: 0 hr 6 min 43 sec) 
Heartbeat CPU 0 instructions: 230000000 cycles: 191400384 heartbeat IPC: 0.733394 cumulative IPC: 0.883221 (Simulation time: 0 hr 7 min 7 sec) 
Heartbeat CPU 0 instructions: 240000000 cycles: 205104861 heartbeat IPC: 0.729689 cumulative IPC: 0.870144 (Simulation time: 0 hr 7 min 31 sec) 
Heartbeat CPU 0 instructions: 250000003 cycles: 216265357 heartbeat IPC: 0.896018 cumulative IPC: 0.871822 (Simulation time: 0 hr 7 min 53 sec) 
Heartbeat CPU 0 instructions: 260000000 cycles: 224165814 heartbeat IPC: 1.26575 cumulative IPC: 0.889116 (Simulation time: 0 hr 8 min 13 sec) 
Heartbeat CPU 0 instructions: 270000003 cycles: 232553818 heartbeat IPC: 1.19218 cumulative IPC: 0.902614 (Simulation time: 0 hr 8 min 32 sec) 
Heartbeat CPU 0 instructions: 280000000 cycles: 241107859 heartbeat IPC: 1.16904 cumulative IPC: 0.914188 (Simulation time: 0 hr 8 min 52 sec) 
Heartbeat CPU 0 instructions: 290000000 cycles: 249798598 heartbeat IPC: 1.15065 cumulative IPC: 0.924184 (Simulation time: 0 hr 9 min 13 sec) 
Heartbeat CPU 0 instructions: 300000000 cycles: 258536983 heartbeat IPC: 1.14438 cumulative IPC: 0.933162 (Simulation time: 0 hr 9 min 33 sec) 
Heartbeat CPU 0 instructions: 310000000 cycles: 267360468 heartbeat IPC: 1.13334 cumulative IPC: 0.941077 (Simulation time: 0 hr 9 min 54 sec) 
Heartbeat CPU 0 instructions: 320000000 cycles: 276233770 heartbeat IPC: 1.12698 cumulative IPC: 0.948186 (Simulation time: 0 hr 10 min 15 sec) 
Heartbeat CPU 0 instructions: 330000002 cycles: 285058515 heartbeat IPC: 1.13318 cumulative IPC: 0.954965 (Simulation time: 0 hr 10 min 36 sec) 
Heartbeat CPU 0 instructions: 340000000 cycles: 295266836 heartbeat IPC: 0.979593 cumulative IPC: 0.955966 (Simulation time: 0 hr 10 min 59 sec) 
Heartbeat CPU 0 instructions: 350000001 cycles: 303830129 heartbeat IPC: 1.16778 cumulative IPC: 0.962952 (Simulation time: 0 hr 11 min 19 sec) 
Heartbeat CPU 0 instructions: 360000000 cycles: 312409425 heartbeat IPC: 1.1656 cumulative IPC: 0.969435 (Simulation time: 0 hr 11 min 39 sec) 
Heartbeat CPU 0 instructions: 370000001 cycles: 320975935 heartbeat IPC: 1.16734 cumulative IPC: 0.97556 (Simulation time: 0 hr 11 min 59 sec) 
Heartbeat CPU 0 instructions: 380000000 cycles: 329516423 heartbeat IPC: 1.17089 cumulative IPC: 0.981407 (Simulation time: 0 hr 12 min 20 sec) 
Heartbeat CPU 0 instructions: 390000001 cycles: 337882290 heartbeat IPC: 1.19533 cumulative IPC: 0.987502 (Simulation time: 0 hr 12 min 40 sec) 
Heartbeat CPU 0 instructions: 400000000 cycles: 346317857 heartbeat IPC: 1.18546 cumulative IPC: 0.993029 (Simulation time: 0 hr 13 min 0 sec) 
Heartbeat CPU 0 instructions: 410000003 cycles: 354684026 heartbeat IPC: 1.19529 cumulative IPC: 0.998479 (Simulation time: 0 hr 13 min 20 sec) 
Heartbeat CPU 0 instructions: 420000000 cycles: 363124583 heartbeat IPC: 1.18476 cumulative IPC: 1.00341 (Simulation time: 0 hr 13 min 40 sec) 
Heartbeat CPU 0 instructions: 430000001 cycles: 371495540 heartbeat IPC: 1.19461 cumulative IPC: 1.0083 (Simulation time: 0 hr 14 min 0 sec) 
Heartbeat CPU 0 instructions: 440000000 cycles: 379817094 heartbeat IPC: 1.2017 cumulative IPC: 1.0131 (Simulation time: 0 hr 14 min 20 sec) 
Heartbeat CPU 0 instructions: 450000001 cycles: 389403066 heartbeat IPC: 1.04319 cumulative IPC: 1.01393 (Simulation time: 0 hr 14 min 41 sec) 
Heartbeat CPU 0 instructions: 460000000 cycles: 397768093 heartbeat IPC: 1.19545 cumulative IPC: 1.01823 (Simulation time: 0 hr 15 min 2 sec) 
Heartbeat CPU 0 instructions: 470000003 cycles: 406019874 heartbeat IPC: 1.21186 cumulative IPC: 1.02264 (Simulation time: 0 hr 15 min 21 sec) 
Heartbeat CPU 0 instructions: 480000000 cycles: 414299649 heartbeat IPC: 1.20776 cumulative IPC: 1.02678 (Simulation time: 0 hr 15 min 41 sec) 
Heartbeat CPU 0 instructions: 490000000 cycles: 422555817 heartbeat IPC: 1.21122 cumulative IPC: 1.03081 (Simulation time: 0 hr 16 min 1 sec) 
Heartbeat CPU 0 instructions: 500000000 cycles: 430831655 heartbeat IPC: 1.20834 cumulative IPC: 1.03461 (Simulation time: 0 hr 16 min 21 sec) 
Heartbeat CPU 0 instructions: 510000001 cycles: 439055825 heartbeat IPC: 1.21593 cumulative IPC: 1.03838 (Simulation time: 0 hr 16 min 41 sec) 
Heartbeat CPU 0 instructions: 520000000 cycles: 447313142 heartbeat IPC: 1.21105 cumulative IPC: 1.04192 (Simulation time: 0 hr 17 min 1 sec) 
Heartbeat CPU 0 instructions: 530000001 cycles: 455573145 heartbeat IPC: 1.21065 cumulative IPC: 1.04531 (Simulation time: 0 hr 17 min 21 sec) 
Heartbeat CPU 0 instructions: 540000000 cycles: 464010021 heartbeat IPC: 1.18527 cumulative IPC: 1.04812 (Simulation time: 0 hr 17 min 41 sec) 
Heartbeat CPU 0 instructions: 550000000 cycles: 472504827 heartbeat IPC: 1.17719 cumulative IPC: 1.05068 (Simulation time: 0 hr 18 min 1 sec) 
Heartbeat CPU 0 instructions: 560000000 cycles: 480766574 heartbeat IPC: 1.2104 cumulative IPC: 1.05371 (Simulation time: 0 hr 18 min 21 sec) 
Heartbeat CPU 0 instructions: 570000001 cycles: 492015722 heartbeat IPC: 0.888956 cumulative IPC: 1.04957 (Simulation time: 0 hr 18 min 43 sec) 
Heartbeat CPU 0 instructions: 580000000 cycles: 502898727 heartbeat IPC: 0.918864 cumulative IPC: 1.04647 (Simulation time: 0 hr 19 min 4 sec) 
Heartbeat CPU 0 instructions: 590000001 cycles: 514050963 heartbeat IPC: 0.896681 cumulative IPC: 1.04291 (Simulation time: 0 hr 19 min 26 sec) 
Heartbeat CPU 0 instructions: 600000000 cycles: 524930368 heartbeat IPC: 0.919168 cumulative IPC: 1.04011 (Simulation time: 0 hr 19 min 47 sec) 
Finished CPU 0 instructions: 500000001 cycles: 480718500 cumulative IPC: 1.04011 (Simulation time: 0 hr 19 min 47 sec) 

CPU 0 Branch Prediction Accuracy: 99.7422% MPKI: 0.173296
Number of Branches: 33608403 Number of Mispredictions: 86648
Number of LOAD Instructions: 180215231
Number of LOAD Instructions (ROI): 180215231
Number of STORE Instructions: 36067263
Number of STORE Instructions (ROI): 36067263
Total Destination Memory Operands: 38428915
Total Destination Memory Operands (ROI): 38428915
Total Source Memory Operands: 180215231
Total Source Memory Operands (ROI): 180215231
Number of DEPENDED LOADS: 3041512
Number of DEPENDED LOADS (ROI): 3041512
Number of SQ_ADDED: 38428892
Number of SQ_ADDED (ROI): 38428892
Number of LQ_ADDED: 207871355
Number of LQ_ADDED (ROI): 207871355
Number of Instructions read from trace: 600000257

ChampSim completed all CPUs

Region of Interest Statistics

CPU 0 cumulative IPC: 1.04011 instructions: 500000001 cycles: 480718500
ITLB TOTAL     ACCESS:   91778622  HIT:   91778603  MISS:         19
ITLB LOAD      ACCESS:   91778622  HIT:   91778603  MISS:         19
ITLB RFO       ACCESS:          0  HIT:          0  MISS:          0
ITLB PREFETCH  ACCESS:          0  HIT:          0  MISS:          0
ITLB WRITEBACK ACCESS:          0  HIT:          0  MISS:          0
ITLB PREFETCH  REQUESTED:          0  ISSUED:          0  USEFUL:          0  USELESS:          0
ITLB TOTAL MSHR MERGED:         40
ITLB LOAD MSHR MERGED:         40
ITLB RFO MSHR MERGED:          0
ITLB PREFETCH MSHR MERGED:          0
ITLB WRITEBACK MSHR MERGED:          0
ITLB TOTAL ACCESSES:   91778662 HITS:   91778603 MISSES:         59
ITLB LOAD ACCESSES:   91778662 HITS:   91778603 MISSES:         59
ITLB RFO ACCESSES:          0 HITS:          0 MISSES:          0
ITLB PREFETCH ACCESSES:          0 HITS:          0 MISSES:          0
ITLB WRITEBACK ACCESSES:          0 HITS:          0 MISSES:          0
ITLB RQ ACCESS:  500000003
ITLB RQ TO_CACHE:   91778662
ITLB RQ MERGED:  408221341
ITLB RQ FORWARD:          0
ITLB WQ ACCESS:          0
ITLB WQ TO_CACHE:          0
ITLB WQ MERGED:          0
ITLB WQ FORWARD:          0
DTLB TOTAL     ACCESS:  142081991  HIT:  141715529  MISS:     366462
DTLB LOAD      ACCESS:  119435739  HIT:  119122153  MISS:     313586
DTLB RFO       ACCESS:   22646252  HIT:   22593376  MISS:      52876
DTLB PREFETCH  ACCESS:          0  HIT:          0  MISS:          0
DTLB WRITEBACK ACCESS:          0  HIT:          0  MISS:          0
DTLB PREFETCH  REQUESTED:          0  ISSUED:          0  USEFUL:          0  USELESS:          0
DTLB TOTAL MSHR MERGED:     286733
DTLB LOAD MSHR MERGED:     238955
DTLB RFO MSHR MERGED:      47778
DTLB PREFETCH MSHR MERGED:          0
DTLB WRITEBACK MSHR MERGED:          0
DTLB TOTAL ACCESSES:  142368724 HITS:  141715529 MISSES:     653195
DTLB LOAD ACCESSES:  119674694 HITS:  119122153 MISSES:     552541
DTLB RFO ACCESSES:   22694030 HITS:   22593376 MISSES:     100654
DTLB PREFETCH ACCESSES:          0 HITS:          0 MISSES:          0
DTLB WRITEBACK ACCESSES:          0 HITS:          0 MISSES:          0
DTLB RQ ACCESS:  184791465
DTLB RQ TO_CACHE:  142368724
DTLB RQ MERGED:   42422741
DTLB RQ FORWARD:          0
DTLB WQ ACCESS:          0
DTLB WQ TO_CACHE:          0
DTLB WQ MERGED:          0
DTLB WQ FORWARD:          0
L1D TOTAL     ACCESS:  190574707  HIT:  177121470  MISS:   13453237
L1D LOAD      ACCESS:  111995147  HIT:  108788168  MISS:    3206979
L1D RFO       ACCESS:   19113382  HIT:   16331629  MISS:    2781753
L1D PREFETCH  ACCESS:   59466178  HIT:   52001673  MISS:    7464505
L1D WRITEBACK ACCESS:          0  HIT:          0  MISS:          0
L1D PREFETCH  REQUESTED:  116522440  ISSUED:  115166374  USEFUL:    7254711  USELESS:     209796
L1D TOTAL MSHR MERGED:   31063630
L1D LOAD MSHR MERGED:    7177482
L1D RFO MSHR MERGED:    9139429
L1D PREFETCH MSHR MERGED:   14746719
L1D WRITEBACK MSHR MERGED:          0
L1D TOTAL ACCESSES:  221638723 HITS:  177121853 MISSES:   44516870
L1D LOAD ACCESSES:  116522463 HITS:  108788191 MISSES:    7734272
L1D RFO ACCESSES:   28252742 HITS:   16331629 MISSES:   11921113
L1D PREFETCH ACCESSES:   76863518 HITS:   52002033 MISSES:   24861485
L1D WRITEBACK ACCESSES:          0 HITS:          0 MISSES:          0
L1D RQ ACCESS:  156535399
L1D RQ TO_CACHE:  116522443
L1D RQ MERGED:   40012933
L1D RQ FORWARD:          0
L1D WQ ACCESS:   28256066
L1D WQ TO_CACHE:   28252742
L1D WQ MERGED:       3324
L1D WQ FORWARD:        383
L1I TOTAL     ACCESS:  115777457  HIT:  115776509  MISS:        948
L1I LOAD      ACCESS:  115777457  HIT:  115776509  MISS:        948
L1I RFO       ACCESS:          0  HIT:          0  MISS:          0
L1I PREFETCH  ACCESS:          0  HIT:          0  MISS:          0
L1I WRITEBACK ACCESS:          0  HIT:          0  MISS:          0
L1I PREFETCH  REQUESTED:          0  ISSUED:          0  USEFUL:          0  USELESS:          0
L1I TOTAL MSHR MERGED:       1578
L1I LOAD MSHR MERGED:       1578
L1I RFO MSHR MERGED:          0
L1I PREFETCH MSHR MERGED:          0
L1I WRITEBACK MSHR MERGED:          0
L1I TOTAL ACCESSES:  115779035 HITS:  115776509 MISSES:       2526
L1I LOAD ACCESSES:  115779035 HITS:  115776509 MISSES:       2526
L1I RFO ACCESSES:          0 HITS:          0 MISSES:          0
L1I PREFETCH ACCESSES:          0 HITS:          0 MISSES:          0
L1I WRITEBACK ACCESSES:          0 HITS:          0 MISSES:          0
L1I RQ ACCESS:  500000007
L1I RQ TO_CACHE:  115779035
L1I RQ MERGED:  384220972
L1I RQ FORWARD:          0
L1I WQ ACCESS:          0
L1I WQ TO_CACHE:          0
L1I WQ MERGED:          0
L1I WQ FORWARD:          0
L2C TOTAL     ACCESS:   16699212  HIT:    4854316  MISS:   11844896
L2C LOAD      ACCESS:     557707  HIT:      95478  MISS:     462229
L2C RFO       ACCESS:    2781684  HIT:     266573  MISS:    2515111
L2C PREFETCH  ACCESS:   10139166  HIT:    1273886  MISS:    8865280
L2C WRITEBACK ACCESS:    3220655  HIT:    3218379  MISS:       2276
L2C PREFETCH  REQUESTED:      26238  ISSUED:      26238  USEFUL:      93069  USELESS:    8770274
L2C TOTAL MSHR MERGED:        411
L2C LOAD MSHR MERGED:          4
L2C RFO MSHR MERGED:          0
L2C PREFETCH MSHR MERGED:        407
L2C WRITEBACK MSHR MERGED:          0
L2C TOTAL ACCESSES:   16699710 HITS:    4854367 MISSES:   11845343
L2C LOAD ACCESSES:     557738 HITS:      95509 MISSES:     462229
L2C RFO ACCESSES:    2781684 HITS:     266573 MISSES:    2515111
L2C PREFETCH ACCESSES:   10139633 HITS:    1273906 MISSES:    8865727
L2C WRITEBACK ACCESSES:    3220655 HITS:    3218379 MISSES:       2276
L2C RQ ACCESS:    3339422
L2C RQ TO_CACHE:    3339391
L2C RQ MERGED:          0
L2C RQ FORWARD:          0
L2C WQ ACCESS:    3220655
L2C WQ TO_CACHE:    3220655
L2C WQ MERGED:          0
L2C WQ FORWARD:         51
LLC TOTAL     ACCESS:   14743033  HIT:    7643229  MISS:    7099804
LLC LOAD      ACCESS:     462222  HIT:     162087  MISS:     300135
LLC RFO       ACCESS:    2515087  HIT:    1924282  MISS:     590805
LLC PREFETCH  ACCESS:    8865266  HIT:    3322301  MISS:    5542965
LLC WRITEBACK ACCESS:    2900458  HIT:    2234559  MISS:     665899
LLC PREFETCH  REQUESTED:          0  ISSUED:          0  USEFUL:       3302  USELESS:    5541558
LLC TOTAL MSHR MERGED:          1
LLC LOAD MSHR MERGED:          0
LLC RFO MSHR MERGED:          0
LLC PREFETCH MSHR MERGED:          1
LLC WRITEBACK MSHR MERGED:          0
LLC TOTAL ACCESSES:   14743112 HITS:    7643304 MISSES:    7099808
LLC LOAD ACCESSES:     462225 HITS:     162090 MISSES:     300135
LLC RFO ACCESSES:    2515111 HITS:    1924306 MISSES:     590805
LLC PREFETCH ACCESSES:    8865318 HITS:    3322349 MISSES:    5542969
LLC WRITEBACK ACCESSES:    2900458 HITS:    2234559 MISSES:     665899
LLC 0 RQ ACCESS:    2977336
LLC 0 RQ TO_CACHE:    2977309
LLC 0 RQ MERGED:          0
LLC 0 RQ FORWARD:          0
LLC WQ ACCESS:    2900458
LLC WQ TO_CACHE:    2900458
LLC WQ MERGED:          0
LLC WQ FORWARD:         75
Major fault: 0 Minor fault: 57518
CPU 0 L1D next line prefetcher final stats
CPU 0 L2C PC-based stride prefetcher final stats
All Misses: 7704675
All Hits: 8534531
SD Algo Stats - Switches: 0 SRR-Repls: 309764 BRR-Repls: 0

DRAM Statistics
 CHANNEL 0
 RQ ROW_BUFFER_HIT:    3672985  ROW_BUFFER_MISS:    2757889
 DBUS_CONGESTED:    2892500
 WQ ROW_BUFFER_HIT:      94498  ROW_BUFFER_MISS:     766362  FULL:          0

 AVG_CONGESTED_CYCLE: 12
LOADS RETIRED: 157818985
INSTR RETIRED: 500000000
