
*** ChampSim Multicore Out-of-Order Simulator ***

Warmup Instructions: 100000000
Simulation Instructions: 500000000
Number of CPUs: 1
LLC sets: 2048
LLC ways: 16
Clean RRIP Policies: 1213230112132301 Dirty RRIP Policies: 2203130122031301 PSEL Width: 10 Track Set: 4294967295 PSEL Mask: 1 Demote Mask: 3014100030141000DS Algo: 0Window size: 0
Off-chip DRAM Size: 4096 MB Channels: 1 Width: 64-bit Data Rate: 1600 MT/s

CPU 0 runs /mnt/beegfs/iconst01/spec2017/Omnetpp.trace.gz
NOT SORTED
TRACE STRING: /mnt/beegfs/iconst01/spec2017/Omnetpp.trace.gz
SORTED
TRACE STRING: /mnt/beegfs/iconst01/spec2017/Omnetpp.trace.gz
INITIAL
TRACE STRING: /mnt/beegfs/iconst01/spec2017/Omnetpp.trace.gz

champsim_seed used: 739

CPU 0 L1D next line prefetcher
CPU 0 L2C IP-based stride prefetcher
Initialize DRRIP state
Assign rand_sets[0]: 454  LLC: 2048
rand_sets[0]: 454
Assign rand_sets[1]: 1662  LLC: 2048
rand_sets[1]: 1662
Assign rand_sets[2]: 1921  LLC: 2048
rand_sets[2]: 1921
Assign rand_sets[3]: 1131  LLC: 2048
rand_sets[3]: 1131
Assign rand_sets[4]: 331  LLC: 2048
rand_sets[4]: 331
Assign rand_sets[5]: 1531  LLC: 2048
rand_sets[5]: 1531
Assign rand_sets[6]: 482  LLC: 2048
rand_sets[6]: 482
Assign rand_sets[7]: 1275  LLC: 2048
rand_sets[7]: 1275
Assign rand_sets[8]: 1876  LLC: 2048
rand_sets[8]: 1876
Assign rand_sets[9]: 2038  LLC: 2048
rand_sets[9]: 2038
Assign rand_sets[10]: 701  LLC: 2048
rand_sets[10]: 701
Assign rand_sets[11]: 479  LLC: 2048
rand_sets[11]: 479
Assign rand_sets[12]: 892  LLC: 2048
rand_sets[12]: 892
Assign rand_sets[13]: 1820  LLC: 2048
rand_sets[13]: 1820
Assign rand_sets[14]: 1505  LLC: 2048
rand_sets[14]: 1505
Assign rand_sets[15]: 1159  LLC: 2048
rand_sets[15]: 1159
Assign rand_sets[16]: 513  LLC: 2048
rand_sets[16]: 513
Assign rand_sets[17]: 703  LLC: 2048
rand_sets[17]: 703
Assign rand_sets[18]: 561  LLC: 2048
rand_sets[18]: 561
Assign rand_sets[19]: 990  LLC: 2048
rand_sets[19]: 990
Assign rand_sets[20]: 342  LLC: 2048
rand_sets[20]: 342
Assign rand_sets[21]: 882  LLC: 2048
rand_sets[21]: 882
Assign rand_sets[22]: 15  LLC: 2048
rand_sets[22]: 15
Assign rand_sets[23]: 71  LLC: 2048
rand_sets[23]: 71
Assign rand_sets[24]: 1127  LLC: 2048
rand_sets[24]: 1127
Assign rand_sets[25]: 1382  LLC: 2048
rand_sets[25]: 1382
Assign rand_sets[26]: 647  LLC: 2048
rand_sets[26]: 647
Assign rand_sets[27]: 857  LLC: 2048
rand_sets[27]: 857
Assign rand_sets[28]: 1450  LLC: 2048
rand_sets[28]: 1450
Assign rand_sets[29]: 1160  LLC: 2048
rand_sets[29]: 1160
Assign rand_sets[30]: 1852  LLC: 2048
rand_sets[30]: 1852
Assign rand_sets[31]: 1881  LLC: 2048
rand_sets[31]: 1881
Assign rand_sets[32]: 1770  LLC: 2048
rand_sets[32]: 1770
Assign rand_sets[33]: 1622  LLC: 2048
rand_sets[33]: 1622
Assign rand_sets[34]: 275  LLC: 2048
rand_sets[34]: 275
Assign rand_sets[35]: 635  LLC: 2048
rand_sets[35]: 635
Assign rand_sets[36]: 466  LLC: 2048
rand_sets[36]: 466
Assign rand_sets[37]: 1413  LLC: 2048
rand_sets[37]: 1413
Assign rand_sets[38]: 417  LLC: 2048
rand_sets[38]: 417
Assign rand_sets[39]: 472  LLC: 2048
rand_sets[39]: 472
Assign rand_sets[40]: 1340  LLC: 2048
rand_sets[40]: 1340
Assign rand_sets[41]: 852  LLC: 2048
rand_sets[41]: 852
Assign rand_sets[42]: 1365  LLC: 2048
rand_sets[42]: 1365
Assign rand_sets[43]: 47  LLC: 2048
rand_sets[43]: 47
Assign rand_sets[44]: 823  LLC: 2048
rand_sets[44]: 823
Assign rand_sets[45]: 686  LLC: 2048
rand_sets[45]: 686
Assign rand_sets[46]: 1637  LLC: 2048
rand_sets[46]: 1637
Assign rand_sets[47]: 1115  LLC: 2048
rand_sets[47]: 1115
Assign rand_sets[48]: 986  LLC: 2048
rand_sets[48]: 986
Assign rand_sets[49]: 258  LLC: 2048
rand_sets[49]: 258
Assign rand_sets[50]: 633  LLC: 2048
rand_sets[50]: 633
Assign rand_sets[51]: 920  LLC: 2048
rand_sets[51]: 920
Assign rand_sets[52]: 204  LLC: 2048
rand_sets[52]: 204
Assign rand_sets[53]: 227  LLC: 2048
rand_sets[53]: 227
Assign rand_sets[54]: 1818  LLC: 2048
rand_sets[54]: 1818
Assign rand_sets[55]: 886  LLC: 2048
rand_sets[55]: 886
Assign rand_sets[56]: 1422  LLC: 2048
rand_sets[56]: 1422
Assign rand_sets[57]: 607  LLC: 2048
rand_sets[57]: 607
Assign rand_sets[58]: 217  LLC: 2048
rand_sets[58]: 217
Assign rand_sets[59]: 1945  LLC: 2048
rand_sets[59]: 1945
Assign rand_sets[60]: 143  LLC: 2048
rand_sets[60]: 143
Assign rand_sets[61]: 1311  LLC: 2048
rand_sets[61]: 1311
Assign rand_sets[62]: 319  LLC: 2048
rand_sets[62]: 319
Assign rand_sets[63]: 1846  LLC: 2048
rand_sets[63]: 1846
 CLEAN-RRIP-POLICY-1: 1-2-1-3-2-3-0-1- CLEAN-RRIP-POLICY-2: 1-2-1-3-2-3-0-1-
 DIRTY-RRIP-POLICY-1: 2-2-0-3-1-3-0-1- DIRTY-RRIP-POLICY-2: 2-2-0-3-1-3-0-1-
 PSEL width: 10
Heartbeat CPU 0 instructions: 10000000 cycles: 7319916 heartbeat IPC: 1.36614 cumulative IPC: 1.36614 (Simulation time: 0 hr 0 min 19 sec) 
Heartbeat CPU 0 instructions: 20000000 cycles: 14623508 heartbeat IPC: 1.36919 cumulative IPC: 1.36766 (Simulation time: 0 hr 0 min 39 sec) 
Heartbeat CPU 0 instructions: 30000003 cycles: 21924829 heartbeat IPC: 1.36962 cumulative IPC: 1.36831 (Simulation time: 0 hr 0 min 59 sec) 
Heartbeat CPU 0 instructions: 40000000 cycles: 29212904 heartbeat IPC: 1.3721 cumulative IPC: 1.36926 (Simulation time: 0 hr 1 min 19 sec) 
Heartbeat CPU 0 instructions: 50000000 cycles: 36489308 heartbeat IPC: 1.37431 cumulative IPC: 1.37026 (Simulation time: 0 hr 1 min 39 sec) 
Heartbeat CPU 0 instructions: 60000000 cycles: 43769151 heartbeat IPC: 1.37366 cumulative IPC: 1.37083 (Simulation time: 0 hr 1 min 59 sec) 
Heartbeat CPU 0 instructions: 70000001 cycles: 51054336 heartbeat IPC: 1.37265 cumulative IPC: 1.37109 (Simulation time: 0 hr 2 min 19 sec) 
Heartbeat CPU 0 instructions: 80000000 cycles: 58329211 heartbeat IPC: 1.37459 cumulative IPC: 1.37153 (Simulation time: 0 hr 2 min 39 sec) 
Heartbeat CPU 0 instructions: 90000000 cycles: 65635437 heartbeat IPC: 1.3687 cumulative IPC: 1.37121 (Simulation time: 0 hr 2 min 59 sec) 
Heartbeat CPU 0 instructions: 100000000 cycles: 72927463 heartbeat IPC: 1.37136 cumulative IPC: 1.37123 (Simulation time: 0 hr 3 min 19 sec) 

Warmup complete CPU 0 instructions: 100000002 cycles: 72927464 (Simulation time: 0 hr 3 min 19 sec) 

Heartbeat CPU 0 instructions: 110000002 cycles: 113386114 heartbeat IPC: 0.247166 cumulative IPC: 0.247166 (Simulation time: 0 hr 4 min 0 sec) 
Heartbeat CPU 0 instructions: 120000000 cycles: 153551700 heartbeat IPC: 0.248969 cumulative IPC: 0.248064 (Simulation time: 0 hr 4 min 40 sec) 
Heartbeat CPU 0 instructions: 130000002 cycles: 193943896 heartbeat IPC: 0.247573 cumulative IPC: 0.2479 (Simulation time: 0 hr 5 min 20 sec) 
Heartbeat CPU 0 instructions: 140000000 cycles: 234459489 heartbeat IPC: 0.246818 cumulative IPC: 0.247629 (Simulation time: 0 hr 6 min 1 sec) 
Heartbeat CPU 0 instructions: 150000002 cycles: 274555585 heartbeat IPC: 0.249401 cumulative IPC: 0.247981 (Simulation time: 0 hr 6 min 41 sec) 
Heartbeat CPU 0 instructions: 160000000 cycles: 314679796 heartbeat IPC: 0.249226 cumulative IPC: 0.248188 (Simulation time: 0 hr 7 min 21 sec) 
Heartbeat CPU 0 instructions: 170000001 cycles: 354085770 heartbeat IPC: 0.253769 cumulative IPC: 0.24897 (Simulation time: 0 hr 8 min 1 sec) 
Heartbeat CPU 0 instructions: 180000000 cycles: 394202710 heartbeat IPC: 0.249271 cumulative IPC: 0.249008 (Simulation time: 0 hr 8 min 41 sec) 
Heartbeat CPU 0 instructions: 190000002 cycles: 434311036 heartbeat IPC: 0.249325 cumulative IPC: 0.249043 (Simulation time: 0 hr 9 min 21 sec) 
Heartbeat CPU 0 instructions: 200000000 cycles: 475589644 heartbeat IPC: 0.242256 cumulative IPC: 0.248347 (Simulation time: 0 hr 10 min 2 sec) 
Heartbeat CPU 0 instructions: 210000003 cycles: 515718466 heartbeat IPC: 0.249198 cumulative IPC: 0.248424 (Simulation time: 0 hr 10 min 42 sec) 
Heartbeat CPU 0 instructions: 220000000 cycles: 556093789 heartbeat IPC: 0.247676 cumulative IPC: 0.248362 (Simulation time: 0 hr 11 min 22 sec) 
Heartbeat CPU 0 instructions: 230000000 cycles: 596411595 heartbeat IPC: 0.248029 cumulative IPC: 0.248336 (Simulation time: 0 hr 12 min 3 sec) 
Heartbeat CPU 0 instructions: 240000000 cycles: 636477126 heartbeat IPC: 0.249591 cumulative IPC: 0.248425 (Simulation time: 0 hr 12 min 42 sec) 
Heartbeat CPU 0 instructions: 250000000 cycles: 676613439 heartbeat IPC: 0.249151 cumulative IPC: 0.248474 (Simulation time: 0 hr 13 min 22 sec) 
Heartbeat CPU 0 instructions: 260000000 cycles: 716833344 heartbeat IPC: 0.248633 cumulative IPC: 0.248484 (Simulation time: 0 hr 14 min 1 sec) 
Heartbeat CPU 0 instructions: 270000000 cycles: 757122540 heartbeat IPC: 0.248205 cumulative IPC: 0.248467 (Simulation time: 0 hr 14 min 41 sec) 
Heartbeat CPU 0 instructions: 280000000 cycles: 797748696 heartbeat IPC: 0.246147 cumulative IPC: 0.248337 (Simulation time: 0 hr 15 min 21 sec) 
Heartbeat CPU 0 instructions: 290000001 cycles: 837603387 heartbeat IPC: 0.250912 cumulative IPC: 0.248471 (Simulation time: 0 hr 16 min 0 sec) 
Heartbeat CPU 0 instructions: 300000000 cycles: 878143850 heartbeat IPC: 0.246667 cumulative IPC: 0.24838 (Simulation time: 0 hr 16 min 40 sec) 
Heartbeat CPU 0 instructions: 310000000 cycles: 918590919 heartbeat IPC: 0.247237 cumulative IPC: 0.248326 (Simulation time: 0 hr 17 min 19 sec) 
Heartbeat CPU 0 instructions: 320000000 cycles: 958748822 heartbeat IPC: 0.249017 cumulative IPC: 0.248357 (Simulation time: 0 hr 17 min 58 sec) 
Heartbeat CPU 0 instructions: 330000000 cycles: 998909586 heartbeat IPC: 0.248999 cumulative IPC: 0.248385 (Simulation time: 0 hr 18 min 38 sec) 
Heartbeat CPU 0 instructions: 340000000 cycles: 1039665277 heartbeat IPC: 0.245365 cumulative IPC: 0.248258 (Simulation time: 0 hr 19 min 17 sec) 
Heartbeat CPU 0 instructions: 350000001 cycles: 1079914142 heartbeat IPC: 0.248454 cumulative IPC: 0.248265 (Simulation time: 0 hr 19 min 56 sec) 
Heartbeat CPU 0 instructions: 360000000 cycles: 1120446557 heartbeat IPC: 0.246716 cumulative IPC: 0.248205 (Simulation time: 0 hr 20 min 36 sec) 
Heartbeat CPU 0 instructions: 370000000 cycles: 1160091607 heartbeat IPC: 0.252238 cumulative IPC: 0.248353 (Simulation time: 0 hr 21 min 14 sec) 
Heartbeat CPU 0 instructions: 380000000 cycles: 1200612251 heartbeat IPC: 0.246788 cumulative IPC: 0.248296 (Simulation time: 0 hr 21 min 54 sec) 
Heartbeat CPU 0 instructions: 390000001 cycles: 1240653116 heartbeat IPC: 0.249745 cumulative IPC: 0.248346 (Simulation time: 0 hr 22 min 32 sec) 
Heartbeat CPU 0 instructions: 400000000 cycles: 1280814670 heartbeat IPC: 0.248994 cumulative IPC: 0.248368 (Simulation time: 0 hr 23 min 12 sec) 
Heartbeat CPU 0 instructions: 410000000 cycles: 1320812784 heartbeat IPC: 0.250012 cumulative IPC: 0.24842 (Simulation time: 0 hr 23 min 50 sec) 
Heartbeat CPU 0 instructions: 420000000 cycles: 1360853642 heartbeat IPC: 0.249745 cumulative IPC: 0.248461 (Simulation time: 0 hr 24 min 29 sec) 
Heartbeat CPU 0 instructions: 430000000 cycles: 1400919868 heartbeat IPC: 0.249587 cumulative IPC: 0.248495 (Simulation time: 0 hr 25 min 8 sec) 
Heartbeat CPU 0 instructions: 440000000 cycles: 1441079838 heartbeat IPC: 0.249004 cumulative IPC: 0.24851 (Simulation time: 0 hr 25 min 47 sec) 
Heartbeat CPU 0 instructions: 450000002 cycles: 1481088811 heartbeat IPC: 0.249944 cumulative IPC: 0.248551 (Simulation time: 0 hr 26 min 26 sec) 
Heartbeat CPU 0 instructions: 460000000 cycles: 1520528222 heartbeat IPC: 0.253553 cumulative IPC: 0.248687 (Simulation time: 0 hr 27 min 5 sec) 
Heartbeat CPU 0 instructions: 470000000 cycles: 1560833038 heartbeat IPC: 0.248109 cumulative IPC: 0.248672 (Simulation time: 0 hr 27 min 44 sec) 
Heartbeat CPU 0 instructions: 480000000 cycles: 1600750180 heartbeat IPC: 0.250519 cumulative IPC: 0.24872 (Simulation time: 0 hr 28 min 23 sec) 
Heartbeat CPU 0 instructions: 490000001 cycles: 1640840727 heartbeat IPC: 0.249435 cumulative IPC: 0.248738 (Simulation time: 0 hr 29 min 2 sec) 
Heartbeat CPU 0 instructions: 500000000 cycles: 1681148806 heartbeat IPC: 0.248089 cumulative IPC: 0.248722 (Simulation time: 0 hr 29 min 40 sec) 
Heartbeat CPU 0 instructions: 510000000 cycles: 1720891450 heartbeat IPC: 0.251619 cumulative IPC: 0.248792 (Simulation time: 0 hr 30 min 18 sec) 
Heartbeat CPU 0 instructions: 520000000 cycles: 1761394788 heartbeat IPC: 0.246893 cumulative IPC: 0.248746 (Simulation time: 0 hr 30 min 56 sec) 
Heartbeat CPU 0 instructions: 530000000 cycles: 1801361328 heartbeat IPC: 0.250209 cumulative IPC: 0.24878 (Simulation time: 0 hr 31 min 33 sec) 
Heartbeat CPU 0 instructions: 540000000 cycles: 1841052681 heartbeat IPC: 0.251944 cumulative IPC: 0.248851 (Simulation time: 0 hr 32 min 9 sec) 
Heartbeat CPU 0 instructions: 550000001 cycles: 1881476156 heartbeat IPC: 0.247381 cumulative IPC: 0.248818 (Simulation time: 0 hr 32 min 46 sec) 
Heartbeat CPU 0 instructions: 560000000 cycles: 1922000998 heartbeat IPC: 0.246762 cumulative IPC: 0.248773 (Simulation time: 0 hr 33 min 23 sec) 
Heartbeat CPU 0 instructions: 570000003 cycles: 1962517271 heartbeat IPC: 0.246814 cumulative IPC: 0.248731 (Simulation time: 0 hr 33 min 59 sec) 
Heartbeat CPU 0 instructions: 580000000 cycles: 2002832882 heartbeat IPC: 0.248043 cumulative IPC: 0.248717 (Simulation time: 0 hr 34 min 36 sec) 
Heartbeat CPU 0 instructions: 590000001 cycles: 2043525089 heartbeat IPC: 0.245747 cumulative IPC: 0.248656 (Simulation time: 0 hr 35 min 13 sec) 
Heartbeat CPU 0 instructions: 600000000 cycles: 2084011929 heartbeat IPC: 0.246994 cumulative IPC: 0.248622 (Simulation time: 0 hr 35 min 50 sec) 
Finished CPU 0 instructions: 500000000 cycles: 2011084473 cumulative IPC: 0.248622 (Simulation time: 0 hr 35 min 50 sec) 

CPU 0 Branch Prediction Accuracy: 96.2429% MPKI: 5.85335
Number of Branches: 77897976 Number of Mispredictions: 2926674
Number of LOAD Instructions: 193081861
Number of LOAD Instructions (ROI): 193081861
Number of STORE Instructions: 97310749
Number of STORE Instructions (ROI): 97310749
Total Destination Memory Operands: 106368027
Total Destination Memory Operands (ROI): 106368027
Total Source Memory Operands: 193081861
Total Source Memory Operands (ROI): 193081861
Number of DEPENDED LOADS: 6440647
Number of DEPENDED LOADS (ROI): 6440647
Number of SQ_ADDED: 106367982
Number of SQ_ADDED (ROI): 106367982
Number of LQ_ADDED: 427907098
Number of LQ_ADDED (ROI): 427907098
Number of Instructions read from trace: 600000256

ChampSim completed all CPUs

Region of Interest Statistics

CPU 0 cumulative IPC: 0.248622 instructions: 500000000 cycles: 2011084473
ITLB TOTAL     ACCESS:  151248915  HIT:  151233084  MISS:      15831
ITLB LOAD      ACCESS:  151248915  HIT:  151233084  MISS:      15831
ITLB RFO       ACCESS:          0  HIT:          0  MISS:          0
ITLB PREFETCH  ACCESS:          0  HIT:          0  MISS:          0
ITLB WRITEBACK ACCESS:          0  HIT:          0  MISS:          0
ITLB PREFETCH  REQUESTED:          0  ISSUED:          0  USEFUL:          0  USELESS:          0
ITLB TOTAL MSHR MERGED:      17613
ITLB LOAD MSHR MERGED:      17613
ITLB RFO MSHR MERGED:          0
ITLB PREFETCH MSHR MERGED:          0
ITLB WRITEBACK MSHR MERGED:          0
ITLB TOTAL ACCESSES:  151266528 HITS:  151233084 MISSES:      33444
ITLB LOAD ACCESSES:  151266528 HITS:  151233084 MISSES:      33444
ITLB RFO ACCESSES:          0 HITS:          0 MISSES:          0
ITLB PREFETCH ACCESSES:          0 HITS:          0 MISSES:          0
ITLB WRITEBACK ACCESSES:          0 HITS:          0 MISSES:          0
ITLB RQ ACCESS:  500000242
ITLB RQ TO_CACHE:  151266528
ITLB RQ MERGED:  348733714
ITLB RQ FORWARD:          0
ITLB WQ ACCESS:          0
ITLB WQ TO_CACHE:          0
ITLB WQ MERGED:          0
ITLB WQ FORWARD:          0
DTLB TOTAL     ACCESS:  199562860  HIT:  194183825  MISS:    5379035
DTLB LOAD      ACCESS:  123134684  HIT:  118116148  MISS:    5018536
DTLB RFO       ACCESS:   76428176  HIT:   76067677  MISS:     360499
DTLB PREFETCH  ACCESS:          0  HIT:          0  MISS:          0
DTLB WRITEBACK ACCESS:          0  HIT:          0  MISS:          0
DTLB PREFETCH  REQUESTED:          0  ISSUED:          0  USEFUL:          0  USELESS:          0
DTLB TOTAL MSHR MERGED:     917026
DTLB LOAD MSHR MERGED:     807266
DTLB RFO MSHR MERGED:     109760
DTLB PREFETCH MSHR MERGED:          0
DTLB WRITEBACK MSHR MERGED:          0
DTLB TOTAL ACCESSES:  200479886 HITS:  194183825 MISSES:    6296061
DTLB LOAD ACCESSES:  123941950 HITS:  118116148 MISSES:    5825802
DTLB RFO ACCESSES:   76537936 HITS:   76067677 MISSES:     470259
DTLB PREFETCH ACCESSES:          0 HITS:          0 MISSES:          0
DTLB WRITEBACK ACCESSES:          0 HITS:          0 MISSES:          0
DTLB RQ ACCESS:  243885097
DTLB RQ TO_CACHE:  200479886
DTLB RQ MERGED:   43405211
DTLB RQ FORWARD:          0
DTLB WQ ACCESS:          0
DTLB WQ TO_CACHE:          0
DTLB WQ MERGED:          0
DTLB WQ FORWARD:          0
L1D TOTAL     ACCESS:  335604304  HIT:  317508235  MISS:   18096069
L1D LOAD      ACCESS:  127694302  HIT:  118750733  MISS:    8943569
L1D RFO       ACCESS:   87082433  HIT:   86297950  MISS:     784483
L1D PREFETCH  ACCESS:  120827569  HIT:  112459552  MISS:    8368017
L1D WRITEBACK ACCESS:          0  HIT:          0  MISS:          0
L1D PREFETCH  REQUESTED:  128476468  ISSUED:  126878479  USEFUL:    1741666  USELESS:    6626363
L1D TOTAL MSHR MERGED:    3854665
L1D LOAD MSHR MERGED:     946735
L1D RFO MSHR MERGED:    1068164
L1D PREFETCH MSHR MERGED:    1839766
L1D WRITEBACK MSHR MERGED:          0
L1D TOTAL ACCESSES:  339544667 HITS:  317593933 MISSES:   21950734
L1D LOAD ACCESSES:  128476911 HITS:  118751176 MISSES:    9725735
L1D RFO ACCESSES:   88086781 HITS:   86297950 MISSES:    1788831
L1D PREFETCH ACCESSES:  122980975 HITS:  112544807 MISSES:   10436168
L1D WRITEBACK ACCESSES:          0 HITS:          0 MISSES:          0
L1D RQ ACCESS:  155253712
L1D RQ TO_CACHE:  128476468
L1D RQ MERGED:   26776801
L1D RQ FORWARD:          0
L1D WQ ACCESS:   88631385
L1D WQ TO_CACHE:   88086780
L1D WQ MERGED:     544605
L1D WQ FORWARD:      85698
L1I TOTAL     ACCESS:  175555576  HIT:  175289118  MISS:     266458
L1I LOAD      ACCESS:  175555576  HIT:  175289118  MISS:     266458
L1I RFO       ACCESS:          0  HIT:          0  MISS:          0
L1I PREFETCH  ACCESS:          0  HIT:          0  MISS:          0
L1I WRITEBACK ACCESS:          0  HIT:          0  MISS:          0
L1I PREFETCH  REQUESTED:          0  ISSUED:          0  USEFUL:          0  USELESS:          0
L1I TOTAL MSHR MERGED:     213371
L1I LOAD MSHR MERGED:     213371
L1I RFO MSHR MERGED:          0
L1I PREFETCH MSHR MERGED:          0
L1I WRITEBACK MSHR MERGED:          0
L1I TOTAL ACCESSES:  175768947 HITS:  175289118 MISSES:     479829
L1I LOAD ACCESSES:  175768947 HITS:  175289118 MISSES:     479829
L1I RFO ACCESSES:          0 HITS:          0 MISSES:          0
L1I PREFETCH ACCESSES:          0 HITS:          0 MISSES:          0
L1I WRITEBACK ACCESSES:          0 HITS:          0 MISSES:          0
L1I RQ ACCESS:  500000242
L1I RQ TO_CACHE:  175768947
L1I RQ MERGED:  324231295
L1I RQ FORWARD:          0
L1I WQ ACCESS:          0
L1I WQ TO_CACHE:          0
L1I WQ MERGED:          0
L1I WQ FORWARD:          0
L2C TOTAL     ACCESS:   23738628  HIT:   12112857  MISS:   11625771
L2C LOAD      ACCESS:    9044281  HIT:    3564770  MISS:    5479511
L2C RFO       ACCESS:     720611  HIT:     130354  MISS:     590257
L2C PREFETCH  ACCESS:    8613395  HIT:    3086096  MISS:    5527299
L2C WRITEBACK ACCESS:    5360341  HIT:    5331637  MISS:      28704
L2C PREFETCH  REQUESTED:      18039  ISSUED:      18039  USEFUL:     323047  USELESS:    5204427
L2C TOTAL MSHR MERGED:         24
L2C LOAD MSHR MERGED:          2
L2C RFO MSHR MERGED:          0
L2C PREFETCH MSHR MERGED:         22
L2C WRITEBACK MSHR MERGED:          0
L2C TOTAL ACCESSES:   23740447 HITS:   12114644 MISSES:   11625803
L2C LOAD ACCESSES:    9045458 HITS:    3565947 MISSES:    5479511
L2C RFO ACCESSES:     720667 HITS:     130410 MISSES:     590257
L2C PREFETCH ACCESSES:    8613981 HITS:    3086650 MISSES:    5527331
L2C WRITEBACK ACCESSES:    5360341 HITS:    5331637 MISSES:      28704
L2C RQ ACCESS:    9766125
L2C RQ TO_CACHE:    9764892
L2C RQ MERGED:          0
L2C RQ FORWARD:          0
L2C WQ ACCESS:    5360341
L2C WQ TO_CACHE:    5360341
L2C WQ MERGED:          0
L2C WQ FORWARD:       1787
LLC TOTAL     ACCESS:   15448695  HIT:    6423052  MISS:    9025643
LLC LOAD      ACCESS:    5479480  HIT:    2048217  MISS:    3431263
LLC RFO       ACCESS:     590255  HIT:     278162  MISS:     312093
LLC PREFETCH  ACCESS:    5527293  HIT:    1028898  MISS:    4498395
LLC WRITEBACK ACCESS:    3851667  HIT:    3067775  MISS:     783892
LLC PREFETCH  REQUESTED:          0  ISSUED:          0  USEFUL:      25373  USELESS:    4473538
LLC TOTAL MSHR MERGED:          0
LLC LOAD MSHR MERGED:          0
LLC RFO MSHR MERGED:          0
LLC PREFETCH MSHR MERGED:          0
LLC WRITEBACK MSHR MERGED:          0
LLC TOTAL ACCESSES:   15448742 HITS:    6423099 MISSES:    9025643
LLC LOAD ACCESSES:    5479509 HITS:    2048246 MISSES:    3431263
LLC RFO ACCESSES:     590257 HITS:     278164 MISSES:     312093
LLC PREFETCH ACCESSES:    5527309 HITS:    1028914 MISSES:    4498395
LLC WRITEBACK ACCESSES:    3851667 HITS:    3067775 MISSES:     783892
LLC 0 RQ ACCESS:    6069766
LLC 0 RQ TO_CACHE:    6069735
LLC 0 RQ MERGED:          0
LLC 0 RQ FORWARD:          0
LLC WQ ACCESS:    3851667
LLC WQ TO_CACHE:    3851667
LLC WQ MERGED:          0
LLC WQ FORWARD:         47
Major fault: 0 Minor fault: 44814
CPU 0 L1D next line prefetcher final stats
CPU 0 L2C PC-based stride prefetcher final stats
All Misses: 10916122
All Hits: 7705073
SD Algo Stats - Switches: 0 SRR-Repls: 3914667 BRR-Repls: 0

DRAM Statistics
 CHANNEL 0
 RQ ROW_BUFFER_HIT:    1446957  ROW_BUFFER_MISS:    6793414
 DBUS_CONGESTED:    5484688
 WQ ROW_BUFFER_HIT:     170738  ROW_BUFFER_MISS:    2071501  FULL:          0

 AVG_CONGESTED_CYCLE: 13
LOADS RETIRED: 160808997
INSTR RETIRED: 500000000
