
*** ChampSim Multicore Out-of-Order Simulator ***

Warmup Instructions: 100000000
Simulation Instructions: 500000000
Number of CPUs: 1
LLC sets: 2048
LLC ways: 16
Clean RRIP Policies: 2213230122132301 Dirty RRIP Policies: 2203130122031301 PSEL Width: 10 Track Set: 4294967295 PSEL Mask: 1 Demote Mask: 3040100030401000DS Algo: 0Window size: 0
Off-chip DRAM Size: 4096 MB Channels: 1 Width: 64-bit Data Rate: 1600 MT/s

CPU 0 runs /mnt/beegfs/iconst01/spec2017/Xalancbmk.trace.gz
NOT SORTED
TRACE STRING: /mnt/beegfs/iconst01/spec2017/Xalancbmk.trace.gz
SORTED
TRACE STRING: /mnt/beegfs/iconst01/spec2017/Xalancbmk.trace.gz
INITIAL
TRACE STRING: /mnt/beegfs/iconst01/spec2017/Xalancbmk.trace.gz

champsim_seed used: 913

CPU 0 L1D next line prefetcher
CPU 0 L2C IP-based stride prefetcher
Initialize DRRIP state
Assign rand_sets[0]: 454  LLC: 2048
rand_sets[0]: 454
Assign rand_sets[1]: 1662  LLC: 2048
rand_sets[1]: 1662
Assign rand_sets[2]: 1921  LLC: 2048
rand_sets[2]: 1921
Assign rand_sets[3]: 1131  LLC: 2048
rand_sets[3]: 1131
Assign rand_sets[4]: 331  LLC: 2048
rand_sets[4]: 331
Assign rand_sets[5]: 1531  LLC: 2048
rand_sets[5]: 1531
Assign rand_sets[6]: 482  LLC: 2048
rand_sets[6]: 482
Assign rand_sets[7]: 1275  LLC: 2048
rand_sets[7]: 1275
Assign rand_sets[8]: 1876  LLC: 2048
rand_sets[8]: 1876
Assign rand_sets[9]: 2038  LLC: 2048
rand_sets[9]: 2038
Assign rand_sets[10]: 701  LLC: 2048
rand_sets[10]: 701
Assign rand_sets[11]: 479  LLC: 2048
rand_sets[11]: 479
Assign rand_sets[12]: 892  LLC: 2048
rand_sets[12]: 892
Assign rand_sets[13]: 1820  LLC: 2048
rand_sets[13]: 1820
Assign rand_sets[14]: 1505  LLC: 2048
rand_sets[14]: 1505
Assign rand_sets[15]: 1159  LLC: 2048
rand_sets[15]: 1159
Assign rand_sets[16]: 513  LLC: 2048
rand_sets[16]: 513
Assign rand_sets[17]: 703  LLC: 2048
rand_sets[17]: 703
Assign rand_sets[18]: 561  LLC: 2048
rand_sets[18]: 561
Assign rand_sets[19]: 990  LLC: 2048
rand_sets[19]: 990
Assign rand_sets[20]: 342  LLC: 2048
rand_sets[20]: 342
Assign rand_sets[21]: 882  LLC: 2048
rand_sets[21]: 882
Assign rand_sets[22]: 15  LLC: 2048
rand_sets[22]: 15
Assign rand_sets[23]: 71  LLC: 2048
rand_sets[23]: 71
Assign rand_sets[24]: 1127  LLC: 2048
rand_sets[24]: 1127
Assign rand_sets[25]: 1382  LLC: 2048
rand_sets[25]: 1382
Assign rand_sets[26]: 647  LLC: 2048
rand_sets[26]: 647
Assign rand_sets[27]: 857  LLC: 2048
rand_sets[27]: 857
Assign rand_sets[28]: 1450  LLC: 2048
rand_sets[28]: 1450
Assign rand_sets[29]: 1160  LLC: 2048
rand_sets[29]: 1160
Assign rand_sets[30]: 1852  LLC: 2048
rand_sets[30]: 1852
Assign rand_sets[31]: 1881  LLC: 2048
rand_sets[31]: 1881
Assign rand_sets[32]: 1770  LLC: 2048
rand_sets[32]: 1770
Assign rand_sets[33]: 1622  LLC: 2048
rand_sets[33]: 1622
Assign rand_sets[34]: 275  LLC: 2048
rand_sets[34]: 275
Assign rand_sets[35]: 635  LLC: 2048
rand_sets[35]: 635
Assign rand_sets[36]: 466  LLC: 2048
rand_sets[36]: 466
Assign rand_sets[37]: 1413  LLC: 2048
rand_sets[37]: 1413
Assign rand_sets[38]: 417  LLC: 2048
rand_sets[38]: 417
Assign rand_sets[39]: 472  LLC: 2048
rand_sets[39]: 472
Assign rand_sets[40]: 1340  LLC: 2048
rand_sets[40]: 1340
Assign rand_sets[41]: 852  LLC: 2048
rand_sets[41]: 852
Assign rand_sets[42]: 1365  LLC: 2048
rand_sets[42]: 1365
Assign rand_sets[43]: 47  LLC: 2048
rand_sets[43]: 47
Assign rand_sets[44]: 823  LLC: 2048
rand_sets[44]: 823
Assign rand_sets[45]: 686  LLC: 2048
rand_sets[45]: 686
Assign rand_sets[46]: 1637  LLC: 2048
rand_sets[46]: 1637
Assign rand_sets[47]: 1115  LLC: 2048
rand_sets[47]: 1115
Assign rand_sets[48]: 986  LLC: 2048
rand_sets[48]: 986
Assign rand_sets[49]: 258  LLC: 2048
rand_sets[49]: 258
Assign rand_sets[50]: 633  LLC: 2048
rand_sets[50]: 633
Assign rand_sets[51]: 920  LLC: 2048
rand_sets[51]: 920
Assign rand_sets[52]: 204  LLC: 2048
rand_sets[52]: 204
Assign rand_sets[53]: 227  LLC: 2048
rand_sets[53]: 227
Assign rand_sets[54]: 1818  LLC: 2048
rand_sets[54]: 1818
Assign rand_sets[55]: 886  LLC: 2048
rand_sets[55]: 886
Assign rand_sets[56]: 1422  LLC: 2048
rand_sets[56]: 1422
Assign rand_sets[57]: 607  LLC: 2048
rand_sets[57]: 607
Assign rand_sets[58]: 217  LLC: 2048
rand_sets[58]: 217
Assign rand_sets[59]: 1945  LLC: 2048
rand_sets[59]: 1945
Assign rand_sets[60]: 143  LLC: 2048
rand_sets[60]: 143
Assign rand_sets[61]: 1311  LLC: 2048
rand_sets[61]: 1311
Assign rand_sets[62]: 319  LLC: 2048
rand_sets[62]: 319
Assign rand_sets[63]: 1846  LLC: 2048
rand_sets[63]: 1846
 CLEAN-RRIP-POLICY-1: 2-2-1-3-2-3-0-1- CLEAN-RRIP-POLICY-2: 2-2-1-3-2-3-0-1-
 DIRTY-RRIP-POLICY-1: 2-2-0-3-1-3-0-1- DIRTY-RRIP-POLICY-2: 2-2-0-3-1-3-0-1-
 PSEL width: 10
Heartbeat CPU 0 instructions: 10000003 cycles: 4586130 heartbeat IPC: 2.18049 cumulative IPC: 2.18049 (Simulation time: 0 hr 0 min 14 sec) 
Heartbeat CPU 0 instructions: 20000000 cycles: 8976991 heartbeat IPC: 2.27746 cumulative IPC: 2.22792 (Simulation time: 0 hr 0 min 28 sec) 
Heartbeat CPU 0 instructions: 30000000 cycles: 13386174 heartbeat IPC: 2.26799 cumulative IPC: 2.24112 (Simulation time: 0 hr 0 min 42 sec) 
Heartbeat CPU 0 instructions: 40000000 cycles: 18011392 heartbeat IPC: 2.16206 cumulative IPC: 2.22082 (Simulation time: 0 hr 0 min 57 sec) 
Heartbeat CPU 0 instructions: 50000002 cycles: 22423260 heartbeat IPC: 2.26661 cumulative IPC: 2.22983 (Simulation time: 0 hr 1 min 11 sec) 
Heartbeat CPU 0 instructions: 60000000 cycles: 27075020 heartbeat IPC: 2.14972 cumulative IPC: 2.21606 (Simulation time: 0 hr 1 min 26 sec) 
Heartbeat CPU 0 instructions: 70000003 cycles: 31478017 heartbeat IPC: 2.27118 cumulative IPC: 2.22377 (Simulation time: 0 hr 1 min 40 sec) 
Heartbeat CPU 0 instructions: 80000000 cycles: 35902188 heartbeat IPC: 2.26031 cumulative IPC: 2.22828 (Simulation time: 0 hr 1 min 54 sec) 
Heartbeat CPU 0 instructions: 90000002 cycles: 40358974 heartbeat IPC: 2.24377 cumulative IPC: 2.22999 (Simulation time: 0 hr 2 min 8 sec) 
Heartbeat CPU 0 instructions: 100000000 cycles: 44833145 heartbeat IPC: 2.23505 cumulative IPC: 2.23049 (Simulation time: 0 hr 2 min 22 sec) 

Warmup complete CPU 0 instructions: 100000003 cycles: 44833146 (Simulation time: 0 hr 2 min 22 sec) 

Heartbeat CPU 0 instructions: 110000000 cycles: 71338777 heartbeat IPC: 0.377278 cumulative IPC: 0.377278 (Simulation time: 0 hr 2 min 52 sec) 
Heartbeat CPU 0 instructions: 120000000 cycles: 99527014 heartbeat IPC: 0.354758 cumulative IPC: 0.365672 (Simulation time: 0 hr 3 min 24 sec) 
Heartbeat CPU 0 instructions: 130000000 cycles: 123061213 heartbeat IPC: 0.424914 cumulative IPC: 0.383494 (Simulation time: 0 hr 3 min 52 sec) 
Heartbeat CPU 0 instructions: 140000000 cycles: 145601806 heartbeat IPC: 0.443644 cumulative IPC: 0.396949 (Simulation time: 0 hr 4 min 20 sec) 
Heartbeat CPU 0 instructions: 150000000 cycles: 170022718 heartbeat IPC: 0.409485 cumulative IPC: 0.399394 (Simulation time: 0 hr 4 min 48 sec) 
Heartbeat CPU 0 instructions: 160000000 cycles: 194806490 heartbeat IPC: 0.40349 cumulative IPC: 0.400071 (Simulation time: 0 hr 5 min 17 sec) 
Heartbeat CPU 0 instructions: 170000002 cycles: 216066466 heartbeat IPC: 0.470368 cumulative IPC: 0.408799 (Simulation time: 0 hr 5 min 43 sec) 
Heartbeat CPU 0 instructions: 180000000 cycles: 239048767 heartbeat IPC: 0.435117 cumulative IPC: 0.411913 (Simulation time: 0 hr 6 min 11 sec) 
Heartbeat CPU 0 instructions: 190000000 cycles: 258122522 heartbeat IPC: 0.524281 cumulative IPC: 0.421962 (Simulation time: 0 hr 6 min 36 sec) 
Heartbeat CPU 0 instructions: 200000000 cycles: 279409933 heartbeat IPC: 0.469761 cumulative IPC: 0.4263 (Simulation time: 0 hr 7 min 2 sec) 
Heartbeat CPU 0 instructions: 210000001 cycles: 305718084 heartbeat IPC: 0.38011 cumulative IPC: 0.421642 (Simulation time: 0 hr 7 min 32 sec) 
Heartbeat CPU 0 instructions: 220000000 cycles: 331523294 heartbeat IPC: 0.387519 cumulative IPC: 0.41857 (Simulation time: 0 hr 8 min 2 sec) 
Heartbeat CPU 0 instructions: 230000000 cycles: 353742569 heartbeat IPC: 0.45006 cumulative IPC: 0.420835 (Simulation time: 0 hr 8 min 29 sec) 
Heartbeat CPU 0 instructions: 240000000 cycles: 379334331 heartbeat IPC: 0.390751 cumulative IPC: 0.418534 (Simulation time: 0 hr 8 min 59 sec) 
Heartbeat CPU 0 instructions: 250000001 cycles: 404178759 heartbeat IPC: 0.402505 cumulative IPC: 0.417425 (Simulation time: 0 hr 9 min 28 sec) 
Heartbeat CPU 0 instructions: 260000000 cycles: 425208648 heartbeat IPC: 0.475514 cumulative IPC: 0.420637 (Simulation time: 0 hr 9 min 54 sec) 
Heartbeat CPU 0 instructions: 270000000 cycles: 447205483 heartbeat IPC: 0.454611 cumulative IPC: 0.422494 (Simulation time: 0 hr 10 min 21 sec) 
Heartbeat CPU 0 instructions: 280000000 cycles: 474669848 heartbeat IPC: 0.364108 cumulative IPC: 0.418764 (Simulation time: 0 hr 10 min 52 sec) 
Heartbeat CPU 0 instructions: 290000000 cycles: 495907681 heartbeat IPC: 0.470858 cumulative IPC: 0.421216 (Simulation time: 0 hr 11 min 18 sec) 
Heartbeat CPU 0 instructions: 300000000 cycles: 516568979 heartbeat IPC: 0.483997 cumulative IPC: 0.423966 (Simulation time: 0 hr 11 min 44 sec) 
Heartbeat CPU 0 instructions: 310000000 cycles: 535865086 heartbeat IPC: 0.518239 cumulative IPC: 0.427671 (Simulation time: 0 hr 12 min 9 sec) 
Heartbeat CPU 0 instructions: 320000000 cycles: 565040299 heartbeat IPC: 0.342757 cumulative IPC: 0.422908 (Simulation time: 0 hr 12 min 41 sec) 
Heartbeat CPU 0 instructions: 330000001 cycles: 584414747 heartbeat IPC: 0.516144 cumulative IPC: 0.426256 (Simulation time: 0 hr 13 min 5 sec) 
Heartbeat CPU 0 instructions: 340000000 cycles: 603788510 heartbeat IPC: 0.516162 cumulative IPC: 0.429372 (Simulation time: 0 hr 13 min 30 sec) 
Heartbeat CPU 0 instructions: 350000002 cycles: 628616960 heartbeat IPC: 0.402764 cumulative IPC: 0.428241 (Simulation time: 0 hr 13 min 59 sec) 
Heartbeat CPU 0 instructions: 360000000 cycles: 650907180 heartbeat IPC: 0.448627 cumulative IPC: 0.42899 (Simulation time: 0 hr 14 min 25 sec) 
Heartbeat CPU 0 instructions: 370000001 cycles: 676012416 heartbeat IPC: 0.398323 cumulative IPC: 0.427771 (Simulation time: 0 hr 14 min 54 sec) 
Heartbeat CPU 0 instructions: 380000000 cycles: 698997046 heartbeat IPC: 0.435073 cumulative IPC: 0.428027 (Simulation time: 0 hr 15 min 21 sec) 
Heartbeat CPU 0 instructions: 390000000 cycles: 717765908 heartbeat IPC: 0.532797 cumulative IPC: 0.430949 (Simulation time: 0 hr 15 min 46 sec) 
Heartbeat CPU 0 instructions: 400000000 cycles: 737645059 heartbeat IPC: 0.50304 cumulative IPC: 0.433018 (Simulation time: 0 hr 16 min 11 sec) 
Heartbeat CPU 0 instructions: 410000001 cycles: 763523463 heartbeat IPC: 0.386423 cumulative IPC: 0.43134 (Simulation time: 0 hr 16 min 40 sec) 
Heartbeat CPU 0 instructions: 420000000 cycles: 788102174 heartbeat IPC: 0.406856 cumulative IPC: 0.430531 (Simulation time: 0 hr 17 min 8 sec) 
Heartbeat CPU 0 instructions: 430000002 cycles: 809476632 heartbeat IPC: 0.467848 cumulative IPC: 0.431574 (Simulation time: 0 hr 17 min 33 sec) 
Heartbeat CPU 0 instructions: 440000000 cycles: 829900389 heartbeat IPC: 0.489626 cumulative IPC: 0.433084 (Simulation time: 0 hr 17 min 58 sec) 
Heartbeat CPU 0 instructions: 450000002 cycles: 856395780 heartbeat IPC: 0.377424 cumulative IPC: 0.431267 (Simulation time: 0 hr 18 min 28 sec) 
Heartbeat CPU 0 instructions: 460000000 cycles: 882270886 heartbeat IPC: 0.386472 cumulative IPC: 0.429883 (Simulation time: 0 hr 18 min 57 sec) 
Heartbeat CPU 0 instructions: 470000002 cycles: 908153320 heartbeat IPC: 0.386362 cumulative IPC: 0.428578 (Simulation time: 0 hr 19 min 26 sec) 
Heartbeat CPU 0 instructions: 480000000 cycles: 932832256 heartbeat IPC: 0.405204 cumulative IPC: 0.427928 (Simulation time: 0 hr 19 min 53 sec) 
Heartbeat CPU 0 instructions: 490000000 cycles: 953705005 heartbeat IPC: 0.479094 cumulative IPC: 0.429103 (Simulation time: 0 hr 20 min 19 sec) 
Heartbeat CPU 0 instructions: 500000000 cycles: 978443512 heartbeat IPC: 0.404228 cumulative IPC: 0.428444 (Simulation time: 0 hr 20 min 47 sec) 
Heartbeat CPU 0 instructions: 510000000 cycles: 1003484782 heartbeat IPC: 0.399341 cumulative IPC: 0.427684 (Simulation time: 0 hr 21 min 15 sec) 
Heartbeat CPU 0 instructions: 520000000 cycles: 1024635356 heartbeat IPC: 0.4728 cumulative IPC: 0.428658 (Simulation time: 0 hr 21 min 41 sec) 
Heartbeat CPU 0 instructions: 530000003 cycles: 1050164122 heartbeat IPC: 0.391715 cumulative IPC: 0.42772 (Simulation time: 0 hr 22 min 10 sec) 
Heartbeat CPU 0 instructions: 540000000 cycles: 1073009465 heartbeat IPC: 0.437726 cumulative IPC: 0.427942 (Simulation time: 0 hr 22 min 36 sec) 
Heartbeat CPU 0 instructions: 550000000 cycles: 1098282048 heartbeat IPC: 0.395686 cumulative IPC: 0.427168 (Simulation time: 0 hr 23 min 5 sec) 
Heartbeat CPU 0 instructions: 560000000 cycles: 1121956419 heartbeat IPC: 0.422398 cumulative IPC: 0.427063 (Simulation time: 0 hr 23 min 32 sec) 
Heartbeat CPU 0 instructions: 570000002 cycles: 1145376691 heartbeat IPC: 0.426981 cumulative IPC: 0.427062 (Simulation time: 0 hr 23 min 59 sec) 
Heartbeat CPU 0 instructions: 580000000 cycles: 1166551364 heartbeat IPC: 0.472262 cumulative IPC: 0.427915 (Simulation time: 0 hr 24 min 25 sec) 
Heartbeat CPU 0 instructions: 590000001 cycles: 1190441652 heartbeat IPC: 0.41858 cumulative IPC: 0.42772 (Simulation time: 0 hr 24 min 52 sec) 
Heartbeat CPU 0 instructions: 600000000 cycles: 1209653597 heartbeat IPC: 0.520509 cumulative IPC: 0.429251 (Simulation time: 0 hr 25 min 17 sec) 
Finished CPU 0 instructions: 500000000 cycles: 1164820472 cumulative IPC: 0.429251 (Simulation time: 0 hr 25 min 17 sec) 

CPU 0 Branch Prediction Accuracy: 99.5434% MPKI: 1.33026
Number of Branches: 145676990 Number of Mispredictions: 665128
Number of LOAD Instructions: 188863207
Number of LOAD Instructions (ROI): 188863207
Number of STORE Instructions: 7332002
Number of STORE Instructions (ROI): 7332002
Total Destination Memory Operands: 10029285
Total Destination Memory Operands (ROI): 10029285
Total Source Memory Operands: 188863207
Total Source Memory Operands (ROI): 188863207
Number of DEPENDED LOADS: 292269
Number of DEPENDED LOADS (ROI): 292269
Number of SQ_ADDED: 10029285
Number of SQ_ADDED (ROI): 10029285
Number of LQ_ADDED: 200729998
Number of LQ_ADDED (ROI): 200729998
Number of Instructions read from trace: 600000010

ChampSim completed all CPUs

Region of Interest Statistics

CPU 0 cumulative IPC: 0.429251 instructions: 500000000 cycles: 1164820472
ITLB TOTAL     ACCESS:  145804380  HIT:  145764853  MISS:      39527
ITLB LOAD      ACCESS:  145804380  HIT:  145764853  MISS:      39527
ITLB RFO       ACCESS:          0  HIT:          0  MISS:          0
ITLB PREFETCH  ACCESS:          0  HIT:          0  MISS:          0
ITLB WRITEBACK ACCESS:          0  HIT:          0  MISS:          0
ITLB PREFETCH  REQUESTED:          0  ISSUED:          0  USEFUL:          0  USELESS:          0
ITLB TOTAL MSHR MERGED:      57367
ITLB LOAD MSHR MERGED:      57367
ITLB RFO MSHR MERGED:          0
ITLB PREFETCH MSHR MERGED:          0
ITLB WRITEBACK MSHR MERGED:          0
ITLB TOTAL ACCESSES:  145861747 HITS:  145764853 MISSES:      96894
ITLB LOAD ACCESSES:  145861747 HITS:  145764853 MISSES:      96894
ITLB RFO ACCESSES:          0 HITS:          0 MISSES:          0
ITLB PREFETCH ACCESSES:          0 HITS:          0 MISSES:          0
ITLB WRITEBACK ACCESSES:          0 HITS:          0 MISSES:          0
ITLB RQ ACCESS:  499999754
ITLB RQ TO_CACHE:  145861747
ITLB RQ MERGED:  354138007
ITLB RQ FORWARD:          0
ITLB WQ ACCESS:          0
ITLB WQ TO_CACHE:          0
ITLB WQ MERGED:          0
ITLB WQ FORWARD:          0
DTLB TOTAL     ACCESS:  135188558  HIT:  134020199  MISS:    1168359
DTLB LOAD      ACCESS:  127147507  HIT:  125988254  MISS:    1159253
DTLB RFO       ACCESS:    8041051  HIT:    8031945  MISS:       9106
DTLB PREFETCH  ACCESS:          0  HIT:          0  MISS:          0
DTLB WRITEBACK ACCESS:          0  HIT:          0  MISS:          0
DTLB PREFETCH  REQUESTED:          0  ISSUED:          0  USEFUL:          0  USELESS:          0
DTLB TOTAL MSHR MERGED:     581559
DTLB LOAD MSHR MERGED:     577176
DTLB RFO MSHR MERGED:       4383
DTLB PREFETCH MSHR MERGED:          0
DTLB WRITEBACK MSHR MERGED:          0
DTLB TOTAL ACCESSES:  135770117 HITS:  134020199 MISSES:    1749918
DTLB LOAD ACCESSES:  127724683 HITS:  125988254 MISSES:    1736429
DTLB RFO ACCESSES:    8045434 HITS:    8031945 MISSES:      13489
DTLB PREFETCH ACCESSES:          0 HITS:          0 MISSES:          0
DTLB WRITEBACK ACCESSES:          0 HITS:          0 MISSES:          0
DTLB RQ ACCESS:  165762065
DTLB RQ TO_CACHE:  135770117
DTLB RQ MERGED:   29991948
DTLB RQ FORWARD:          0
DTLB WQ ACCESS:          0
DTLB WQ TO_CACHE:          0
DTLB WQ MERGED:          0
DTLB WQ FORWARD:          0
L1D TOTAL     ACCESS:  156946798  HIT:  139631110  MISS:   17315688
L1D LOAD      ACCESS:   89974122  HIT:   78830099  MISS:   11144023
L1D RFO       ACCESS:    8497182  HIT:    8409973  MISS:      87209
L1D PREFETCH  ACCESS:   58475494  HIT:   52391038  MISS:    6084456
L1D WRITEBACK ACCESS:          0  HIT:          0  MISS:          0
L1D PREFETCH  REQUESTED:   93716864  ISSUED:   92849395  USEFUL:    2003029  USELESS:    4081501
L1D TOTAL MSHR MERGED:   15111107
L1D LOAD MSHR MERGED:    7142446
L1D RFO MSHR MERGED:     127469
L1D PREFETCH MSHR MERGED:    7841192
L1D WRITEBACK MSHR MERGED:          0
L1D TOTAL ACCESSES:  172058067 HITS:  139631271 MISSES:   32426796
L1D LOAD ACCESSES:   93716867 HITS:   78830102 MISSES:   14886765
L1D RFO ACCESSES:    8622753 HITS:    8409973 MISSES:     212780
L1D PREFETCH ACCESSES:   69718447 HITS:   52391196 MISSES:   17327251
L1D WRITEBACK ACCESSES:          0 HITS:          0 MISSES:          0
L1D RQ ACCESS:  157122859
L1D RQ TO_CACHE:   93716864
L1D RQ MERGED:   63405992
L1D RQ FORWARD:          0
L1D WQ ACCESS:    8639208
L1D WQ TO_CACHE:    8622753
L1D WQ MERGED:      16455
L1D WQ FORWARD:        161
L1I TOTAL     ACCESS:  178793594  HIT:  178129925  MISS:     663669
L1I LOAD      ACCESS:  178793594  HIT:  178129925  MISS:     663669
L1I RFO       ACCESS:          0  HIT:          0  MISS:          0
L1I PREFETCH  ACCESS:          0  HIT:          0  MISS:          0
L1I WRITEBACK ACCESS:          0  HIT:          0  MISS:          0
L1I PREFETCH  REQUESTED:          0  ISSUED:          0  USEFUL:          0  USELESS:          0
L1I TOTAL MSHR MERGED:     597763
L1I LOAD MSHR MERGED:     597763
L1I RFO MSHR MERGED:          0
L1I PREFETCH MSHR MERGED:          0
L1I WRITEBACK MSHR MERGED:          0
L1I TOTAL ACCESSES:  179391357 HITS:  178129925 MISSES:    1261432
L1I LOAD ACCESSES:  179391357 HITS:  178129925 MISSES:    1261432
L1I RFO ACCESSES:          0 HITS:          0 MISSES:          0
L1I PREFETCH ACCESSES:          0 HITS:          0 MISSES:          0
L1I WRITEBACK ACCESSES:          0 HITS:          0 MISSES:          0
L1I RQ ACCESS:  499999757
L1I RQ TO_CACHE:  179391357
L1I RQ MERGED:  320608400
L1I RQ FORWARD:          0
L1I WQ ACCESS:          0
L1I WQ TO_CACHE:          0
L1I WQ MERGED:          0
L1I WQ FORWARD:          0
L2C TOTAL     ACCESS:   19276691  HIT:    2057258  MISS:   17219433
L2C LOAD      ACCESS:    8407884  HIT:     951112  MISS:    7456772
L2C RFO       ACCESS:      85287  HIT:      53729  MISS:      31558
L2C PREFETCH  ACCESS:   10498517  HIT:     770225  MISS:    9728292
L2C WRITEBACK ACCESS:     285003  HIT:     282192  MISS:       2811
L2C PREFETCH  REQUESTED:    1016858  ISSUED:    1016858  USEFUL:     274762  USELESS:    9452627
L2C TOTAL MSHR MERGED:       1061
L2C LOAD MSHR MERGED:        228
L2C RFO MSHR MERGED:          1
L2C PREFETCH MSHR MERGED:        832
L2C WRITEBACK MSHR MERGED:          0
L2C TOTAL ACCESSES:   19279961 HITS:    2057451 MISSES:   17222510
L2C LOAD ACCESSES:    8407988 HITS:     951216 MISSES:    7456772
L2C RFO ACCESSES:      85311 HITS:      53753 MISSES:      31558
L2C PREFETCH ACCESSES:   10501659 HITS:     770290 MISSES:    9731369
L2C WRITEBACK ACCESSES:     285003 HITS:     282192 MISSES:       2811
L2C RQ ACCESS:    8493299
L2C RQ TO_CACHE:    8493171
L2C RQ MERGED:          0
L2C RQ FORWARD:          0
L2C WQ ACCESS:     285003
L2C WQ TO_CACHE:     285003
L2C WQ MERGED:          0
L2C WQ FORWARD:        193
LLC TOTAL     ACCESS:   17324695  HIT:    4863877  MISS:   12460818
LLC LOAD      ACCESS:    7456544  HIT:    4002493  MISS:    3454051
LLC RFO       ACCESS:      31557  HIT:      13873  MISS:      17684
LLC PREFETCH  ACCESS:    9730535  HIT:     768265  MISS:    8962270
LLC WRITEBACK ACCESS:     106059  HIT:      79246  MISS:      26813
LLC PREFETCH  REQUESTED:          0  ISSUED:          0  USEFUL:       1853  USELESS:    8959699
LLC TOTAL MSHR MERGED:          1
LLC LOAD MSHR MERGED:          0
LLC RFO MSHR MERGED:          0
LLC PREFETCH MSHR MERGED:          1
LLC WRITEBACK MSHR MERGED:          0
LLC TOTAL ACCESSES:   17324697 HITS:    4863877 MISSES:   12460820
LLC LOAD ACCESSES:    7456544 HITS:    4002493 MISSES:    3454051
LLC RFO ACCESSES:      31557 HITS:      13873 MISSES:      17684
LLC PREFETCH ACCESSES:    9730537 HITS:     768265 MISSES:    8962272
LLC WRITEBACK ACCESSES:     106059 HITS:      79246 MISSES:      26813
LLC 0 RQ ACCESS:    7488101
LLC 0 RQ TO_CACHE:    7488101
LLC 0 RQ MERGED:          0
LLC 0 RQ FORWARD:          0
LLC WQ ACCESS:     106059
LLC WQ TO_CACHE:     106059
LLC WQ MERGED:          0
LLC WQ FORWARD:          0
Major fault: 0 Minor fault: 6432
CPU 0 L1D next line prefetcher final stats
CPU 0 L2C PC-based stride prefetcher final stats
All Misses: 14694075
All Hits: 5850279
SD Algo Stats - Switches: 0 SRR-Repls: 3682064 BRR-Repls: 0

DRAM Statistics
 CHANNEL 0
 RQ ROW_BUFFER_HIT:    9387947  ROW_BUFFER_MISS:    3040014
 DBUS_CONGESTED:    5793590
 WQ ROW_BUFFER_HIT:       1567  ROW_BUFFER_MISS:      53185  FULL:          0

 AVG_CONGESTED_CYCLE: 12
LOADS RETIRED: 157382665
INSTR RETIRED: 500000000
