
*** ChampSim Multicore Out-of-Order Simulator ***

Warmup Instructions: 100000000
Simulation Instructions: 500000000
Number of CPUs: 1
LLC sets: 2048
LLC ways: 16
Clean RRIP Policies: 2203112022031120 Dirty RRIP Policies: 1203210012032100 PSEL Width: 10 Track Set: 4294967295 PSEL Mask: 1 Demote Mask: 2102240121022401DS Algo: 0Window size: 0
Off-chip DRAM Size: 4096 MB Channels: 1 Width: 64-bit Data Rate: 1600 MT/s

CPU 0 runs /mnt/beegfs/iconst01/spec2017/Mcf.trace.gz
NOT SORTED
TRACE STRING: /mnt/beegfs/iconst01/spec2017/Mcf.trace.gz
SORTED
TRACE STRING: /mnt/beegfs/iconst01/spec2017/Mcf.trace.gz
INITIAL
TRACE STRING: /mnt/beegfs/iconst01/spec2017/Mcf.trace.gz

champsim_seed used: 278

CPU 0 L1D next line prefetcher
CPU 0 L2C IP-based stride prefetcher
Initialize DRRIP state
Assign rand_sets[0]: 454  LLC: 2048
rand_sets[0]: 454
Assign rand_sets[1]: 1662  LLC: 2048
rand_sets[1]: 1662
Assign rand_sets[2]: 1921  LLC: 2048
rand_sets[2]: 1921
Assign rand_sets[3]: 1131  LLC: 2048
rand_sets[3]: 1131
Assign rand_sets[4]: 331  LLC: 2048
rand_sets[4]: 331
Assign rand_sets[5]: 1531  LLC: 2048
rand_sets[5]: 1531
Assign rand_sets[6]: 482  LLC: 2048
rand_sets[6]: 482
Assign rand_sets[7]: 1275  LLC: 2048
rand_sets[7]: 1275
Assign rand_sets[8]: 1876  LLC: 2048
rand_sets[8]: 1876
Assign rand_sets[9]: 2038  LLC: 2048
rand_sets[9]: 2038
Assign rand_sets[10]: 701  LLC: 2048
rand_sets[10]: 701
Assign rand_sets[11]: 479  LLC: 2048
rand_sets[11]: 479
Assign rand_sets[12]: 892  LLC: 2048
rand_sets[12]: 892
Assign rand_sets[13]: 1820  LLC: 2048
rand_sets[13]: 1820
Assign rand_sets[14]: 1505  LLC: 2048
rand_sets[14]: 1505
Assign rand_sets[15]: 1159  LLC: 2048
rand_sets[15]: 1159
Assign rand_sets[16]: 513  LLC: 2048
rand_sets[16]: 513
Assign rand_sets[17]: 703  LLC: 2048
rand_sets[17]: 703
Assign rand_sets[18]: 561  LLC: 2048
rand_sets[18]: 561
Assign rand_sets[19]: 990  LLC: 2048
rand_sets[19]: 990
Assign rand_sets[20]: 342  LLC: 2048
rand_sets[20]: 342
Assign rand_sets[21]: 882  LLC: 2048
rand_sets[21]: 882
Assign rand_sets[22]: 15  LLC: 2048
rand_sets[22]: 15
Assign rand_sets[23]: 71  LLC: 2048
rand_sets[23]: 71
Assign rand_sets[24]: 1127  LLC: 2048
rand_sets[24]: 1127
Assign rand_sets[25]: 1382  LLC: 2048
rand_sets[25]: 1382
Assign rand_sets[26]: 647  LLC: 2048
rand_sets[26]: 647
Assign rand_sets[27]: 857  LLC: 2048
rand_sets[27]: 857
Assign rand_sets[28]: 1450  LLC: 2048
rand_sets[28]: 1450
Assign rand_sets[29]: 1160  LLC: 2048
rand_sets[29]: 1160
Assign rand_sets[30]: 1852  LLC: 2048
rand_sets[30]: 1852
Assign rand_sets[31]: 1881  LLC: 2048
rand_sets[31]: 1881
Assign rand_sets[32]: 1770  LLC: 2048
rand_sets[32]: 1770
Assign rand_sets[33]: 1622  LLC: 2048
rand_sets[33]: 1622
Assign rand_sets[34]: 275  LLC: 2048
rand_sets[34]: 275
Assign rand_sets[35]: 635  LLC: 2048
rand_sets[35]: 635
Assign rand_sets[36]: 466  LLC: 2048
rand_sets[36]: 466
Assign rand_sets[37]: 1413  LLC: 2048
rand_sets[37]: 1413
Assign rand_sets[38]: 417  LLC: 2048
rand_sets[38]: 417
Assign rand_sets[39]: 472  LLC: 2048
rand_sets[39]: 472
Assign rand_sets[40]: 1340  LLC: 2048
rand_sets[40]: 1340
Assign rand_sets[41]: 852  LLC: 2048
rand_sets[41]: 852
Assign rand_sets[42]: 1365  LLC: 2048
rand_sets[42]: 1365
Assign rand_sets[43]: 47  LLC: 2048
rand_sets[43]: 47
Assign rand_sets[44]: 823  LLC: 2048
rand_sets[44]: 823
Assign rand_sets[45]: 686  LLC: 2048
rand_sets[45]: 686
Assign rand_sets[46]: 1637  LLC: 2048
rand_sets[46]: 1637
Assign rand_sets[47]: 1115  LLC: 2048
rand_sets[47]: 1115
Assign rand_sets[48]: 986  LLC: 2048
rand_sets[48]: 986
Assign rand_sets[49]: 258  LLC: 2048
rand_sets[49]: 258
Assign rand_sets[50]: 633  LLC: 2048
rand_sets[50]: 633
Assign rand_sets[51]: 920  LLC: 2048
rand_sets[51]: 920
Assign rand_sets[52]: 204  LLC: 2048
rand_sets[52]: 204
Assign rand_sets[53]: 227  LLC: 2048
rand_sets[53]: 227
Assign rand_sets[54]: 1818  LLC: 2048
rand_sets[54]: 1818
Assign rand_sets[55]: 886  LLC: 2048
rand_sets[55]: 886
Assign rand_sets[56]: 1422  LLC: 2048
rand_sets[56]: 1422
Assign rand_sets[57]: 607  LLC: 2048
rand_sets[57]: 607
Assign rand_sets[58]: 217  LLC: 2048
rand_sets[58]: 217
Assign rand_sets[59]: 1945  LLC: 2048
rand_sets[59]: 1945
Assign rand_sets[60]: 143  LLC: 2048
rand_sets[60]: 143
Assign rand_sets[61]: 1311  LLC: 2048
rand_sets[61]: 1311
Assign rand_sets[62]: 319  LLC: 2048
rand_sets[62]: 319
Assign rand_sets[63]: 1846  LLC: 2048
rand_sets[63]: 1846
 CLEAN-RRIP-POLICY-1: 2-2-0-3-1-1-2-0- CLEAN-RRIP-POLICY-2: 2-2-0-3-1-1-2-0-
 DIRTY-RRIP-POLICY-1: 1-2-0-3-2-1-0-0- DIRTY-RRIP-POLICY-2: 1-2-0-3-2-1-0-0-
 PSEL width: 10
Heartbeat CPU 0 instructions: 10000000 cycles: 6250108 heartbeat IPC: 1.59997 cumulative IPC: 1.59997 (Simulation time: 0 hr 0 min 13 sec) 
Heartbeat CPU 0 instructions: 20000000 cycles: 12477984 heartbeat IPC: 1.60568 cumulative IPC: 1.60282 (Simulation time: 0 hr 0 min 25 sec) 
Heartbeat CPU 0 instructions: 30000000 cycles: 18695783 heartbeat IPC: 1.60829 cumulative IPC: 1.60464 (Simulation time: 0 hr 0 min 38 sec) 
Heartbeat CPU 0 instructions: 40000000 cycles: 24912861 heartbeat IPC: 1.60847 cumulative IPC: 1.6056 (Simulation time: 0 hr 0 min 50 sec) 
Heartbeat CPU 0 instructions: 50000003 cycles: 31132370 heartbeat IPC: 1.60784 cumulative IPC: 1.60605 (Simulation time: 0 hr 1 min 3 sec) 
Heartbeat CPU 0 instructions: 60000000 cycles: 37334997 heartbeat IPC: 1.61222 cumulative IPC: 1.60707 (Simulation time: 0 hr 1 min 15 sec) 
Heartbeat CPU 0 instructions: 70000003 cycles: 43560433 heartbeat IPC: 1.60631 cumulative IPC: 1.60696 (Simulation time: 0 hr 1 min 28 sec) 
Heartbeat CPU 0 instructions: 80000000 cycles: 49797255 heartbeat IPC: 1.60338 cumulative IPC: 1.60651 (Simulation time: 0 hr 1 min 41 sec) 
Heartbeat CPU 0 instructions: 90000000 cycles: 56032918 heartbeat IPC: 1.60368 cumulative IPC: 1.6062 (Simulation time: 0 hr 1 min 53 sec) 
Heartbeat CPU 0 instructions: 100000000 cycles: 62258923 heartbeat IPC: 1.60617 cumulative IPC: 1.6062 (Simulation time: 0 hr 2 min 6 sec) 

Warmup complete CPU 0 instructions: 100000001 cycles: 62258924 (Simulation time: 0 hr 2 min 6 sec) 

Heartbeat CPU 0 instructions: 110000000 cycles: 89406807 heartbeat IPC: 0.368353 cumulative IPC: 0.368353 (Simulation time: 0 hr 2 min 31 sec) 
Heartbeat CPU 0 instructions: 120000000 cycles: 116564233 heartbeat IPC: 0.368223 cumulative IPC: 0.368288 (Simulation time: 0 hr 2 min 56 sec) 
Heartbeat CPU 0 instructions: 130000000 cycles: 143950009 heartbeat IPC: 0.365153 cumulative IPC: 0.367237 (Simulation time: 0 hr 3 min 21 sec) 
Heartbeat CPU 0 instructions: 140000000 cycles: 171242128 heartbeat IPC: 0.366406 cumulative IPC: 0.367029 (Simulation time: 0 hr 3 min 46 sec) 
Heartbeat CPU 0 instructions: 150000003 cycles: 198430601 heartbeat IPC: 0.367803 cumulative IPC: 0.367184 (Simulation time: 0 hr 4 min 11 sec) 
Heartbeat CPU 0 instructions: 160000000 cycles: 226043071 heartbeat IPC: 0.362155 cumulative IPC: 0.366336 (Simulation time: 0 hr 4 min 36 sec) 
Heartbeat CPU 0 instructions: 170000001 cycles: 253517964 heartbeat IPC: 0.363969 cumulative IPC: 0.365996 (Simulation time: 0 hr 5 min 1 sec) 
Heartbeat CPU 0 instructions: 180000000 cycles: 280969182 heartbeat IPC: 0.364283 cumulative IPC: 0.365781 (Simulation time: 0 hr 5 min 27 sec) 
Heartbeat CPU 0 instructions: 190000003 cycles: 308407151 heartbeat IPC: 0.364459 cumulative IPC: 0.365633 (Simulation time: 0 hr 5 min 52 sec) 
Heartbeat CPU 0 instructions: 200000000 cycles: 335913054 heartbeat IPC: 0.363558 cumulative IPC: 0.365425 (Simulation time: 0 hr 6 min 17 sec) 
Heartbeat CPU 0 instructions: 210000003 cycles: 363446208 heartbeat IPC: 0.363199 cumulative IPC: 0.365221 (Simulation time: 0 hr 6 min 42 sec) 
Heartbeat CPU 0 instructions: 220000000 cycles: 391320640 heartbeat IPC: 0.358752 cumulative IPC: 0.364673 (Simulation time: 0 hr 7 min 7 sec) 
Heartbeat CPU 0 instructions: 230000002 cycles: 418702892 heartbeat IPC: 0.3652 cumulative IPC: 0.364714 (Simulation time: 0 hr 7 min 33 sec) 
Heartbeat CPU 0 instructions: 240000000 cycles: 446538156 heartbeat IPC: 0.359256 cumulative IPC: 0.364318 (Simulation time: 0 hr 7 min 58 sec) 
Heartbeat CPU 0 instructions: 250000000 cycles: 474042202 heartbeat IPC: 0.363583 cumulative IPC: 0.364269 (Simulation time: 0 hr 8 min 23 sec) 
Heartbeat CPU 0 instructions: 260000000 cycles: 501592704 heartbeat IPC: 0.36297 cumulative IPC: 0.364188 (Simulation time: 0 hr 8 min 48 sec) 
Heartbeat CPU 0 instructions: 270000001 cycles: 529277075 heartbeat IPC: 0.361215 cumulative IPC: 0.364012 (Simulation time: 0 hr 9 min 14 sec) 
Heartbeat CPU 0 instructions: 280000000 cycles: 556940210 heartbeat IPC: 0.361492 cumulative IPC: 0.363871 (Simulation time: 0 hr 9 min 39 sec) 
Heartbeat CPU 0 instructions: 290000001 cycles: 584624567 heartbeat IPC: 0.361215 cumulative IPC: 0.36373 (Simulation time: 0 hr 10 min 4 sec) 
Heartbeat CPU 0 instructions: 300000000 cycles: 612653774 heartbeat IPC: 0.356771 cumulative IPC: 0.363375 (Simulation time: 0 hr 10 min 30 sec) 
Heartbeat CPU 0 instructions: 310000003 cycles: 640192293 heartbeat IPC: 0.363128 cumulative IPC: 0.363364 (Simulation time: 0 hr 10 min 55 sec) 
Heartbeat CPU 0 instructions: 320000000 cycles: 668220122 heartbeat IPC: 0.356788 cumulative IPC: 0.36306 (Simulation time: 0 hr 11 min 21 sec) 
Heartbeat CPU 0 instructions: 330000003 cycles: 695789614 heartbeat IPC: 0.36272 cumulative IPC: 0.363045 (Simulation time: 0 hr 11 min 46 sec) 
Heartbeat CPU 0 instructions: 340000000 cycles: 723850252 heartbeat IPC: 0.356371 cumulative IPC: 0.362762 (Simulation time: 0 hr 12 min 11 sec) 
Heartbeat CPU 0 instructions: 350000002 cycles: 751896961 heartbeat IPC: 0.356548 cumulative IPC: 0.362509 (Simulation time: 0 hr 12 min 36 sec) 
Heartbeat CPU 0 instructions: 360000000 cycles: 780111629 heartbeat IPC: 0.354426 cumulative IPC: 0.362191 (Simulation time: 0 hr 13 min 2 sec) 
Heartbeat CPU 0 instructions: 370000000 cycles: 808067695 heartbeat IPC: 0.357704 cumulative IPC: 0.362023 (Simulation time: 0 hr 13 min 26 sec) 
Heartbeat CPU 0 instructions: 380000000 cycles: 835809001 heartbeat IPC: 0.360473 cumulative IPC: 0.361968 (Simulation time: 0 hr 13 min 51 sec) 
Heartbeat CPU 0 instructions: 390000002 cycles: 863611270 heartbeat IPC: 0.359683 cumulative IPC: 0.361888 (Simulation time: 0 hr 14 min 17 sec) 
Heartbeat CPU 0 instructions: 400000000 cycles: 891666693 heartbeat IPC: 0.356437 cumulative IPC: 0.361704 (Simulation time: 0 hr 14 min 42 sec) 
Heartbeat CPU 0 instructions: 410000002 cycles: 919474861 heartbeat IPC: 0.359607 cumulative IPC: 0.361636 (Simulation time: 0 hr 15 min 7 sec) 
Heartbeat CPU 0 instructions: 420000000 cycles: 947113295 heartbeat IPC: 0.361815 cumulative IPC: 0.361641 (Simulation time: 0 hr 15 min 32 sec) 
Heartbeat CPU 0 instructions: 430000000 cycles: 975131102 heartbeat IPC: 0.356916 cumulative IPC: 0.361496 (Simulation time: 0 hr 15 min 57 sec) 
Heartbeat CPU 0 instructions: 440000000 cycles: 1002712605 heartbeat IPC: 0.362562 cumulative IPC: 0.361528 (Simulation time: 0 hr 16 min 22 sec) 
Heartbeat CPU 0 instructions: 450000000 cycles: 1031383760 heartbeat IPC: 0.348783 cumulative IPC: 0.361151 (Simulation time: 0 hr 16 min 48 sec) 
Heartbeat CPU 0 instructions: 460000000 cycles: 1060056512 heartbeat IPC: 0.348763 cumulative IPC: 0.360795 (Simulation time: 0 hr 17 min 14 sec) 
Heartbeat CPU 0 instructions: 470000001 cycles: 1088418669 heartbeat IPC: 0.352583 cumulative IPC: 0.360568 (Simulation time: 0 hr 17 min 40 sec) 
Heartbeat CPU 0 instructions: 480000000 cycles: 1117058724 heartbeat IPC: 0.349161 cumulative IPC: 0.360258 (Simulation time: 0 hr 18 min 6 sec) 
Heartbeat CPU 0 instructions: 490000000 cycles: 1145813962 heartbeat IPC: 0.347763 cumulative IPC: 0.359926 (Simulation time: 0 hr 18 min 32 sec) 
Heartbeat CPU 0 instructions: 500000000 cycles: 1174893916 heartbeat IPC: 0.343879 cumulative IPC: 0.359507 (Simulation time: 0 hr 18 min 58 sec) 
Heartbeat CPU 0 instructions: 510000003 cycles: 1203893974 heartbeat IPC: 0.344827 cumulative IPC: 0.359134 (Simulation time: 0 hr 19 min 24 sec) 
Heartbeat CPU 0 instructions: 520000000 cycles: 1233175880 heartbeat IPC: 0.341508 cumulative IPC: 0.358693 (Simulation time: 0 hr 19 min 50 sec) 
Heartbeat CPU 0 instructions: 530000003 cycles: 1262484596 heartbeat IPC: 0.341196 cumulative IPC: 0.358266 (Simulation time: 0 hr 20 min 16 sec) 
Heartbeat CPU 0 instructions: 540000000 cycles: 1291685656 heartbeat IPC: 0.342453 cumulative IPC: 0.35789 (Simulation time: 0 hr 20 min 42 sec) 
Heartbeat CPU 0 instructions: 550000000 cycles: 1320884196 heartbeat IPC: 0.342483 cumulative IPC: 0.357533 (Simulation time: 0 hr 21 min 8 sec) 
Heartbeat CPU 0 instructions: 560000000 cycles: 1350510613 heartbeat IPC: 0.337537 cumulative IPC: 0.357073 (Simulation time: 0 hr 21 min 35 sec) 
Heartbeat CPU 0 instructions: 570000001 cycles: 1380060632 heartbeat IPC: 0.338409 cumulative IPC: 0.356655 (Simulation time: 0 hr 22 min 1 sec) 
Heartbeat CPU 0 instructions: 580000000 cycles: 1409607240 heartbeat IPC: 0.338448 cumulative IPC: 0.356255 (Simulation time: 0 hr 22 min 27 sec) 
Heartbeat CPU 0 instructions: 590000000 cycles: 1439415534 heartbeat IPC: 0.335477 cumulative IPC: 0.355806 (Simulation time: 0 hr 22 min 54 sec) 
Heartbeat CPU 0 instructions: 600000000 cycles: 1469378060 heartbeat IPC: 0.33375 cumulative IPC: 0.355336 (Simulation time: 0 hr 23 min 20 sec) 
Finished CPU 0 instructions: 500000003 cycles: 1407119149 cumulative IPC: 0.355336 (Simulation time: 0 hr 23 min 20 sec) 

CPU 0 Branch Prediction Accuracy: 91.1342% MPKI: 18.7968
Number of Branches: 106006945 Number of Mispredictions: 9398408
Number of LOAD Instructions: 207894007
Number of LOAD Instructions (ROI): 207894007
Number of STORE Instructions: 54285997
Number of STORE Instructions (ROI): 54285997
Total Destination Memory Operands: 57463404
Total Destination Memory Operands (ROI): 57463404
Total Source Memory Operands: 207894007
Total Source Memory Operands (ROI): 207894007
Number of DEPENDED LOADS: 18140288
Number of DEPENDED LOADS (ROI): 18140288
Number of SQ_ADDED: 57463404
Number of SQ_ADDED (ROI): 57463404
Number of LQ_ADDED: 210761804
Number of LQ_ADDED (ROI): 210761804
Number of Instructions read from trace: 600000039

ChampSim completed all CPUs

Region of Interest Statistics

CPU 0 cumulative IPC: 0.355336 instructions: 500000003 cycles: 1407119149
ITLB TOTAL     ACCESS:   96360563  HIT:   96360563  MISS:          0
ITLB LOAD      ACCESS:   96360563  HIT:   96360563  MISS:          0
ITLB RFO       ACCESS:          0  HIT:          0  MISS:          0
ITLB PREFETCH  ACCESS:          0  HIT:          0  MISS:          0
ITLB WRITEBACK ACCESS:          0  HIT:          0  MISS:          0
ITLB PREFETCH  REQUESTED:          0  ISSUED:          0  USEFUL:          0  USELESS:          0
ITLB TOTAL MSHR MERGED:          0
ITLB LOAD MSHR MERGED:          0
ITLB RFO MSHR MERGED:          0
ITLB PREFETCH MSHR MERGED:          0
ITLB WRITEBACK MSHR MERGED:          0
ITLB TOTAL ACCESSES:   96360563 HITS:   96360563 MISSES:          0
ITLB LOAD ACCESSES:   96360563 HITS:   96360563 MISSES:          0
ITLB RFO ACCESSES:          0 HITS:          0 MISSES:          0
ITLB PREFETCH ACCESSES:          0 HITS:          0 MISSES:          0
ITLB WRITEBACK ACCESSES:          0 HITS:          0 MISSES:          0
ITLB RQ ACCESS:  499999980
ITLB RQ TO_CACHE:   96360563
ITLB RQ MERGED:  403639417
ITLB RQ FORWARD:          0
ITLB WQ ACCESS:          0
ITLB WQ TO_CACHE:          0
ITLB WQ MERGED:          0
ITLB WQ FORWARD:          0
DTLB TOTAL     ACCESS:  155136883  HIT:  150225103  MISS:    4911780
DTLB LOAD      ACCESS:  117697756  HIT:  113307438  MISS:    4390318
DTLB RFO       ACCESS:   37439127  HIT:   36917665  MISS:     521462
DTLB PREFETCH  ACCESS:          0  HIT:          0  MISS:          0
DTLB WRITEBACK ACCESS:          0  HIT:          0  MISS:          0
DTLB PREFETCH  REQUESTED:          0  ISSUED:          0  USEFUL:          0  USELESS:          0
DTLB TOTAL MSHR MERGED:     446949
DTLB LOAD MSHR MERGED:     154979
DTLB RFO MSHR MERGED:     291970
DTLB PREFETCH MSHR MERGED:          0
DTLB WRITEBACK MSHR MERGED:          0
DTLB TOTAL ACCESSES:  155583832 HITS:  150225103 MISSES:    5358729
DTLB LOAD ACCESSES:  117852735 HITS:  113307438 MISSES:    4545297
DTLB RFO ACCESSES:   37731097 HITS:   36917665 MISSES:     813432
DTLB PREFETCH ACCESSES:          0 HITS:          0 MISSES:          0
DTLB WRITEBACK ACCESSES:          0 HITS:          0 MISSES:          0
DTLB RQ ACCESS:  205943885
DTLB RQ TO_CACHE:  155583832
DTLB RQ MERGED:   50360053
DTLB RQ FORWARD:          0
DTLB WQ ACCESS:          0
DTLB WQ TO_CACHE:          0
DTLB WQ MERGED:          0
DTLB WQ FORWARD:          0
L1D TOTAL     ACCESS:  277313200  HIT:  242490895  MISS:   34822305
L1D LOAD      ACCESS:  125457702  HIT:  107937959  MISS:   17519743
L1D RFO       ACCESS:   41126909  HIT:   38815082  MISS:    2311827
L1D PREFETCH  ACCESS:  110728589  HIT:   95737854  MISS:   14990735
L1D WRITEBACK ACCESS:          0  HIT:          0  MISS:          0
L1D PREFETCH  REQUESTED:  126252539  ISSUED:  124733167  USEFUL:    2824118  USELESS:   12166642
L1D TOTAL MSHR MERGED:    8357752
L1D LOAD MSHR MERGED:    1406287
L1D RFO MSHR MERGED:    3772231
L1D PREFETCH MSHR MERGED:    3179234
L1D WRITEBACK MSHR MERGED:          0
L1D TOTAL ACCESSES:  285758190 HITS:  242578133 MISSES:   43180057
L1D LOAD ACCESSES:  126252575 HITS:  107937995 MISSES:   18314580
L1D RFO ACCESSES:   44898643 HITS:   38815082 MISSES:    6083561
L1D PREFETCH ACCESSES:  114606972 HITS:   95825056 MISSES:   18781916
L1D WRITEBACK ACCESSES:          0 HITS:          0 MISSES:          0
L1D RQ ACCESS:  158397004
L1D RQ TO_CACHE:  126252539
L1D RQ MERGED:   32144429
L1D RQ FORWARD:          0
L1D WQ ACCESS:   47546882
L1D WQ TO_CACHE:   44898643
L1D WQ MERGED:    2648239
L1D WQ FORWARD:      87238
L1I TOTAL     ACCESS:  132755240  HIT:  132755240  MISS:          0
L1I LOAD      ACCESS:  132755240  HIT:  132755240  MISS:          0
L1I RFO       ACCESS:          0  HIT:          0  MISS:          0
L1I PREFETCH  ACCESS:          0  HIT:          0  MISS:          0
L1I WRITEBACK ACCESS:          0  HIT:          0  MISS:          0
L1I PREFETCH  REQUESTED:          0  ISSUED:          0  USEFUL:          0  USELESS:          0
L1I TOTAL MSHR MERGED:          0
L1I LOAD MSHR MERGED:          0
L1I RFO MSHR MERGED:          0
L1I PREFETCH MSHR MERGED:          0
L1I WRITEBACK MSHR MERGED:          0
L1I TOTAL ACCESSES:  132755240 HITS:  132755240 MISSES:          0
L1I LOAD ACCESSES:  132755240 HITS:  132755240 MISSES:          0
L1I RFO ACCESSES:          0 HITS:          0 MISSES:          0
L1I PREFETCH ACCESSES:          0 HITS:          0 MISSES:          0
L1I WRITEBACK ACCESSES:          0 HITS:          0 MISSES:          0
L1I RQ ACCESS:  499999980
L1I RQ TO_CACHE:  132755240
L1I RQ MERGED:  367244740
L1I RQ FORWARD:          0
L1I WQ ACCESS:          0
L1I WQ TO_CACHE:          0
L1I WQ MERGED:          0
L1I WQ FORWARD:          0
L2C TOTAL     ACCESS:   39598161  HIT:   20629820  MISS:   18968341
L2C LOAD      ACCESS:   16908236  HIT:    8567766  MISS:    8340470
L2C RFO       ACCESS:    2311285  HIT:     630839  MISS:    1680446
L2C PREFETCH  ACCESS:   17156196  HIT:    8212518  MISS:    8943678
L2C WRITEBACK ACCESS:    3222444  HIT:    3218697  MISS:       3747
L2C PREFETCH  REQUESTED:    2772213  ISSUED:    2772213  USEFUL:    1307854  USELESS:    7635542
L2C TOTAL MSHR MERGED:     462443
L2C LOAD MSHR MERGED:      55790
L2C RFO MSHR MERGED:          0
L2C PREFETCH MSHR MERGED:     406653
L2C WRITEBACK MSHR MERGED:          0
L2C TOTAL ACCESSES:   40137122 HITS:   20629976 MISSES:   19507146
L2C LOAD ACCESSES:   16908293 HITS:    8567823 MISSES:    8340470
L2C RFO ACCESSES:    2311330 HITS:     630884 MISSES:    1680446
L2C PREFETCH ACCESSES:   17695055 HITS:    8212572 MISSES:    9482483
L2C WRITEBACK ACCESSES:    3222444 HITS:    3218697 MISSES:       3747
L2C RQ ACCESS:   19219623
L2C RQ TO_CACHE:   19219521
L2C RQ MERGED:          0
L2C RQ FORWARD:          0
L2C WQ ACCESS:    3222444
L2C WQ TO_CACHE:    3222444
L2C WQ MERGED:          0
L2C WQ FORWARD:        156
LLC TOTAL     ACCESS:   21186537  HIT:   12063304  MISS:    9123233
LLC LOAD      ACCESS:    8284653  HIT:    4338447  MISS:    3946206
LLC RFO       ACCESS:    1680385  HIT:    1524330  MISS:     156055
LLC PREFETCH  ACCESS:    9045865  HIT:    4272383  MISS:    4773482
LLC WRITEBACK ACCESS:    2175634  HIT:    1928144  MISS:     247490
LLC PREFETCH  REQUESTED:          0  ISSUED:          0  USEFUL:     164451  USELESS:    4611099
LLC TOTAL MSHR MERGED:      25766
LLC LOAD MSHR MERGED:       6545
LLC RFO MSHR MERGED:          0
LLC PREFETCH MSHR MERGED:      19221
LLC WRITEBACK MSHR MERGED:          0
LLC TOTAL ACCESSES:   21212415 HITS:   12063416 MISSES:    9148999
LLC LOAD ACCESSES:    8284680 HITS:    4338474 MISSES:    3946206
LLC RFO ACCESSES:    1680446 HITS:    1524391 MISSES:     156055
LLC PREFETCH ACCESSES:    9071655 HITS:    4272407 MISSES:    4799248
LLC WRITEBACK ACCESSES:    2175634 HITS:    1928144 MISSES:     247490
LLC 0 RQ ACCESS:    9965126
LLC 0 RQ TO_CACHE:    9965038
LLC 0 RQ MERGED:          0
LLC 0 RQ FORWARD:          0
LLC WQ ACCESS:    2175635
LLC WQ TO_CACHE:    2175635
LLC WQ MERGED:          0
LLC WQ FORWARD:        112
Major fault: 0 Minor fault: 56391
CPU 0 L1D next line prefetcher final stats
CPU 0 L2C PC-based stride prefetcher final stats
All Misses: 10657691
All Hits: 13905696
SD Algo Stats - Switches: 0 SRR-Repls: 4192680 BRR-Repls: 0

DRAM Statistics
 CHANNEL 0
 RQ ROW_BUFFER_HIT:    4605127  ROW_BUFFER_MISS:    4240676
 DBUS_CONGESTED:    4190008
 WQ ROW_BUFFER_HIT:      78407  ROW_BUFFER_MISS:     432769  FULL:          0

 AVG_CONGESTED_CYCLE: 12
LOADS RETIRED: 173631671
INSTR RETIRED: 500000000
