
*** ChampSim Multicore Out-of-Order Simulator ***

Warmup Instructions: 100000000
Simulation Instructions: 500000000
Number of CPUs: 1
LLC sets: 2048
LLC ways: 16
Clean RRIP Policies: 1213030112130301 Dirty RRIP Policies: 2213131122131311 PSEL Width: 10 Track Set: 4294967295 PSEL Mask: 1 Demote Mask: 3040201030402010DS Algo: 0Window size: 0
Off-chip DRAM Size: 4096 MB Channels: 1 Width: 64-bit Data Rate: 1600 MT/s

CPU 0 runs /mnt/beegfs/iconst01/spec2017/Cam4.trace.gz
NOT SORTED
TRACE STRING: /mnt/beegfs/iconst01/spec2017/Cam4.trace.gz
SORTED
TRACE STRING: /mnt/beegfs/iconst01/spec2017/Cam4.trace.gz
INITIAL
TRACE STRING: /mnt/beegfs/iconst01/spec2017/Cam4.trace.gz

champsim_seed used: 325

CPU 0 L1D next line prefetcher
CPU 0 L2C IP-based stride prefetcher
Initialize DRRIP state
Assign rand_sets[0]: 454  LLC: 2048
rand_sets[0]: 454
Assign rand_sets[1]: 1662  LLC: 2048
rand_sets[1]: 1662
Assign rand_sets[2]: 1921  LLC: 2048
rand_sets[2]: 1921
Assign rand_sets[3]: 1131  LLC: 2048
rand_sets[3]: 1131
Assign rand_sets[4]: 331  LLC: 2048
rand_sets[4]: 331
Assign rand_sets[5]: 1531  LLC: 2048
rand_sets[5]: 1531
Assign rand_sets[6]: 482  LLC: 2048
rand_sets[6]: 482
Assign rand_sets[7]: 1275  LLC: 2048
rand_sets[7]: 1275
Assign rand_sets[8]: 1876  LLC: 2048
rand_sets[8]: 1876
Assign rand_sets[9]: 2038  LLC: 2048
rand_sets[9]: 2038
Assign rand_sets[10]: 701  LLC: 2048
rand_sets[10]: 701
Assign rand_sets[11]: 479  LLC: 2048
rand_sets[11]: 479
Assign rand_sets[12]: 892  LLC: 2048
rand_sets[12]: 892
Assign rand_sets[13]: 1820  LLC: 2048
rand_sets[13]: 1820
Assign rand_sets[14]: 1505  LLC: 2048
rand_sets[14]: 1505
Assign rand_sets[15]: 1159  LLC: 2048
rand_sets[15]: 1159
Assign rand_sets[16]: 513  LLC: 2048
rand_sets[16]: 513
Assign rand_sets[17]: 703  LLC: 2048
rand_sets[17]: 703
Assign rand_sets[18]: 561  LLC: 2048
rand_sets[18]: 561
Assign rand_sets[19]: 990  LLC: 2048
rand_sets[19]: 990
Assign rand_sets[20]: 342  LLC: 2048
rand_sets[20]: 342
Assign rand_sets[21]: 882  LLC: 2048
rand_sets[21]: 882
Assign rand_sets[22]: 15  LLC: 2048
rand_sets[22]: 15
Assign rand_sets[23]: 71  LLC: 2048
rand_sets[23]: 71
Assign rand_sets[24]: 1127  LLC: 2048
rand_sets[24]: 1127
Assign rand_sets[25]: 1382  LLC: 2048
rand_sets[25]: 1382
Assign rand_sets[26]: 647  LLC: 2048
rand_sets[26]: 647
Assign rand_sets[27]: 857  LLC: 2048
rand_sets[27]: 857
Assign rand_sets[28]: 1450  LLC: 2048
rand_sets[28]: 1450
Assign rand_sets[29]: 1160  LLC: 2048
rand_sets[29]: 1160
Assign rand_sets[30]: 1852  LLC: 2048
rand_sets[30]: 1852
Assign rand_sets[31]: 1881  LLC: 2048
rand_sets[31]: 1881
Assign rand_sets[32]: 1770  LLC: 2048
rand_sets[32]: 1770
Assign rand_sets[33]: 1622  LLC: 2048
rand_sets[33]: 1622
Assign rand_sets[34]: 275  LLC: 2048
rand_sets[34]: 275
Assign rand_sets[35]: 635  LLC: 2048
rand_sets[35]: 635
Assign rand_sets[36]: 466  LLC: 2048
rand_sets[36]: 466
Assign rand_sets[37]: 1413  LLC: 2048
rand_sets[37]: 1413
Assign rand_sets[38]: 417  LLC: 2048
rand_sets[38]: 417
Assign rand_sets[39]: 472  LLC: 2048
rand_sets[39]: 472
Assign rand_sets[40]: 1340  LLC: 2048
rand_sets[40]: 1340
Assign rand_sets[41]: 852  LLC: 2048
rand_sets[41]: 852
Assign rand_sets[42]: 1365  LLC: 2048
rand_sets[42]: 1365
Assign rand_sets[43]: 47  LLC: 2048
rand_sets[43]: 47
Assign rand_sets[44]: 823  LLC: 2048
rand_sets[44]: 823
Assign rand_sets[45]: 686  LLC: 2048
rand_sets[45]: 686
Assign rand_sets[46]: 1637  LLC: 2048
rand_sets[46]: 1637
Assign rand_sets[47]: 1115  LLC: 2048
rand_sets[47]: 1115
Assign rand_sets[48]: 986  LLC: 2048
rand_sets[48]: 986
Assign rand_sets[49]: 258  LLC: 2048
rand_sets[49]: 258
Assign rand_sets[50]: 633  LLC: 2048
rand_sets[50]: 633
Assign rand_sets[51]: 920  LLC: 2048
rand_sets[51]: 920
Assign rand_sets[52]: 204  LLC: 2048
rand_sets[52]: 204
Assign rand_sets[53]: 227  LLC: 2048
rand_sets[53]: 227
Assign rand_sets[54]: 1818  LLC: 2048
rand_sets[54]: 1818
Assign rand_sets[55]: 886  LLC: 2048
rand_sets[55]: 886
Assign rand_sets[56]: 1422  LLC: 2048
rand_sets[56]: 1422
Assign rand_sets[57]: 607  LLC: 2048
rand_sets[57]: 607
Assign rand_sets[58]: 217  LLC: 2048
rand_sets[58]: 217
Assign rand_sets[59]: 1945  LLC: 2048
rand_sets[59]: 1945
Assign rand_sets[60]: 143  LLC: 2048
rand_sets[60]: 143
Assign rand_sets[61]: 1311  LLC: 2048
rand_sets[61]: 1311
Assign rand_sets[62]: 319  LLC: 2048
rand_sets[62]: 319
Assign rand_sets[63]: 1846  LLC: 2048
rand_sets[63]: 1846
 CLEAN-RRIP-POLICY-1: 1-2-1-3-0-3-0-1- CLEAN-RRIP-POLICY-2: 1-2-1-3-0-3-0-1-
 DIRTY-RRIP-POLICY-1: 2-2-1-3-1-3-1-1- DIRTY-RRIP-POLICY-2: 2-2-1-3-1-3-1-1-
 PSEL width: 10
Heartbeat CPU 0 instructions: 10000000 cycles: 4859184 heartbeat IPC: 2.05796 cumulative IPC: 2.05796 (Simulation time: 0 hr 0 min 18 sec) 
Heartbeat CPU 0 instructions: 20000000 cycles: 9790786 heartbeat IPC: 2.02774 cumulative IPC: 2.04274 (Simulation time: 0 hr 0 min 35 sec) 
Heartbeat CPU 0 instructions: 30000001 cycles: 14563048 heartbeat IPC: 2.09544 cumulative IPC: 2.06001 (Simulation time: 0 hr 0 min 50 sec) 
Heartbeat CPU 0 instructions: 40000000 cycles: 19400060 heartbeat IPC: 2.06739 cumulative IPC: 2.06185 (Simulation time: 0 hr 1 min 7 sec) 
Heartbeat CPU 0 instructions: 50000000 cycles: 24256593 heartbeat IPC: 2.05908 cumulative IPC: 2.0613 (Simulation time: 0 hr 1 min 24 sec) 
Heartbeat CPU 0 instructions: 60000000 cycles: 29182065 heartbeat IPC: 2.03026 cumulative IPC: 2.05606 (Simulation time: 0 hr 1 min 41 sec) 
Heartbeat CPU 0 instructions: 70000001 cycles: 33956802 heartbeat IPC: 2.09436 cumulative IPC: 2.06144 (Simulation time: 0 hr 1 min 56 sec) 
Heartbeat CPU 0 instructions: 80000000 cycles: 38793106 heartbeat IPC: 2.06769 cumulative IPC: 2.06222 (Simulation time: 0 hr 2 min 13 sec) 
Heartbeat CPU 0 instructions: 90000002 cycles: 43647173 heartbeat IPC: 2.06013 cumulative IPC: 2.06199 (Simulation time: 0 hr 2 min 30 sec) 
Heartbeat CPU 0 instructions: 100000000 cycles: 48565991 heartbeat IPC: 2.03301 cumulative IPC: 2.05905 (Simulation time: 0 hr 2 min 46 sec) 

Warmup complete CPU 0 instructions: 100000001 cycles: 48565992 (Simulation time: 0 hr 2 min 46 sec) 

Heartbeat CPU 0 instructions: 110000000 cycles: 61843759 heartbeat IPC: 0.753139 cumulative IPC: 0.753139 (Simulation time: 0 hr 3 min 10 sec) 
Heartbeat CPU 0 instructions: 120000000 cycles: 75603508 heartbeat IPC: 0.726757 cumulative IPC: 0.739713 (Simulation time: 0 hr 3 min 35 sec) 
Heartbeat CPU 0 instructions: 130000000 cycles: 89357185 heartbeat IPC: 0.727078 cumulative IPC: 0.735453 (Simulation time: 0 hr 4 min 0 sec) 
Heartbeat CPU 0 instructions: 140000000 cycles: 103618233 heartbeat IPC: 0.701211 cumulative IPC: 0.726583 (Simulation time: 0 hr 4 min 25 sec) 
Heartbeat CPU 0 instructions: 150000003 cycles: 116947562 heartbeat IPC: 0.750226 cumulative IPC: 0.731191 (Simulation time: 0 hr 4 min 48 sec) 
Heartbeat CPU 0 instructions: 160000000 cycles: 130706783 heartbeat IPC: 0.726785 cumulative IPC: 0.730453 (Simulation time: 0 hr 5 min 13 sec) 
Heartbeat CPU 0 instructions: 170000001 cycles: 144503118 heartbeat IPC: 0.72483 cumulative IPC: 0.729645 (Simulation time: 0 hr 5 min 38 sec) 
Heartbeat CPU 0 instructions: 180000000 cycles: 158739654 heartbeat IPC: 0.702418 cumulative IPC: 0.726126 (Simulation time: 0 hr 6 min 3 sec) 
Heartbeat CPU 0 instructions: 190000003 cycles: 172025377 heartbeat IPC: 0.752688 cumulative IPC: 0.728985 (Simulation time: 0 hr 6 min 26 sec) 
Heartbeat CPU 0 instructions: 200000000 cycles: 185779792 heartbeat IPC: 0.727039 cumulative IPC: 0.72879 (Simulation time: 0 hr 6 min 51 sec) 
Heartbeat CPU 0 instructions: 210000002 cycles: 199566403 heartbeat IPC: 0.725342 cumulative IPC: 0.728475 (Simulation time: 0 hr 7 min 16 sec) 
Heartbeat CPU 0 instructions: 220000000 cycles: 213797721 heartbeat IPC: 0.702675 cumulative IPC: 0.726253 (Simulation time: 0 hr 7 min 41 sec) 
Heartbeat CPU 0 instructions: 230000001 cycles: 226977767 heartbeat IPC: 0.758723 cumulative IPC: 0.728651 (Simulation time: 0 hr 8 min 4 sec) 
Heartbeat CPU 0 instructions: 240000000 cycles: 240723904 heartbeat IPC: 0.727477 cumulative IPC: 0.728567 (Simulation time: 0 hr 8 min 29 sec) 
Heartbeat CPU 0 instructions: 250000001 cycles: 254465293 heartbeat IPC: 0.727729 cumulative IPC: 0.728511 (Simulation time: 0 hr 8 min 54 sec) 
Heartbeat CPU 0 instructions: 260000000 cycles: 268597315 heartbeat IPC: 0.707613 cumulative IPC: 0.727169 (Simulation time: 0 hr 9 min 19 sec) 
Heartbeat CPU 0 instructions: 270000003 cycles: 281907210 heartbeat IPC: 0.751321 cumulative IPC: 0.728547 (Simulation time: 0 hr 9 min 41 sec) 
Heartbeat CPU 0 instructions: 280000000 cycles: 295664507 heartbeat IPC: 0.726887 cumulative IPC: 0.728454 (Simulation time: 0 hr 10 min 6 sec) 
Heartbeat CPU 0 instructions: 290000001 cycles: 309447099 heartbeat IPC: 0.725553 cumulative IPC: 0.728301 (Simulation time: 0 hr 10 min 31 sec) 
Heartbeat CPU 0 instructions: 300000000 cycles: 323525519 heartbeat IPC: 0.710307 cumulative IPC: 0.72738 (Simulation time: 0 hr 10 min 56 sec) 
Heartbeat CPU 0 instructions: 310000000 cycles: 336857411 heartbeat IPC: 0.750081 cumulative IPC: 0.72843 (Simulation time: 0 hr 11 min 19 sec) 
Heartbeat CPU 0 instructions: 320000000 cycles: 350656621 heartbeat IPC: 0.724679 cumulative IPC: 0.728258 (Simulation time: 0 hr 11 min 44 sec) 
Heartbeat CPU 0 instructions: 330000000 cycles: 364456829 heartbeat IPC: 0.724627 cumulative IPC: 0.7281 (Simulation time: 0 hr 12 min 9 sec) 
Heartbeat CPU 0 instructions: 340000000 cycles: 378516080 heartbeat IPC: 0.711275 cumulative IPC: 0.727383 (Simulation time: 0 hr 12 min 34 sec) 
Heartbeat CPU 0 instructions: 350000000 cycles: 391911609 heartbeat IPC: 0.746518 cumulative IPC: 0.728129 (Simulation time: 0 hr 12 min 57 sec) 
Heartbeat CPU 0 instructions: 360000000 cycles: 405741235 heartbeat IPC: 0.723085 cumulative IPC: 0.727934 (Simulation time: 0 hr 13 min 22 sec) 
Heartbeat CPU 0 instructions: 370000003 cycles: 419545428 heartbeat IPC: 0.724418 cumulative IPC: 0.727803 (Simulation time: 0 hr 13 min 47 sec) 
Heartbeat CPU 0 instructions: 380000000 cycles: 433566234 heartbeat IPC: 0.713226 cumulative IPC: 0.727272 (Simulation time: 0 hr 14 min 12 sec) 
Heartbeat CPU 0 instructions: 390000003 cycles: 446981425 heartbeat IPC: 0.745424 cumulative IPC: 0.727883 (Simulation time: 0 hr 14 min 34 sec) 
Heartbeat CPU 0 instructions: 400000000 cycles: 460799391 heartbeat IPC: 0.723695 cumulative IPC: 0.727743 (Simulation time: 0 hr 14 min 59 sec) 
Heartbeat CPU 0 instructions: 410000000 cycles: 474572971 heartbeat IPC: 0.726028 cumulative IPC: 0.727688 (Simulation time: 0 hr 15 min 24 sec) 
Heartbeat CPU 0 instructions: 420000000 cycles: 488585314 heartbeat IPC: 0.713657 cumulative IPC: 0.727241 (Simulation time: 0 hr 15 min 49 sec) 
Heartbeat CPU 0 instructions: 430000003 cycles: 502026881 heartbeat IPC: 0.743961 cumulative IPC: 0.727736 (Simulation time: 0 hr 16 min 12 sec) 
Heartbeat CPU 0 instructions: 440000000 cycles: 515851341 heartbeat IPC: 0.723355 cumulative IPC: 0.727607 (Simulation time: 0 hr 16 min 37 sec) 
Heartbeat CPU 0 instructions: 450000000 cycles: 529642482 heartbeat IPC: 0.725103 cumulative IPC: 0.727535 (Simulation time: 0 hr 17 min 2 sec) 
Heartbeat CPU 0 instructions: 460000000 cycles: 543630223 heartbeat IPC: 0.714912 cumulative IPC: 0.727178 (Simulation time: 0 hr 17 min 27 sec) 
Heartbeat CPU 0 instructions: 470000001 cycles: 557031035 heartbeat IPC: 0.746224 cumulative IPC: 0.72768 (Simulation time: 0 hr 17 min 50 sec) 
Heartbeat CPU 0 instructions: 480000000 cycles: 570830427 heartbeat IPC: 0.72467 cumulative IPC: 0.727601 (Simulation time: 0 hr 18 min 15 sec) 
Heartbeat CPU 0 instructions: 490000002 cycles: 584597770 heartbeat IPC: 0.726357 cumulative IPC: 0.727569 (Simulation time: 0 hr 18 min 39 sec) 
Heartbeat CPU 0 instructions: 500000000 cycles: 598590741 heartbeat IPC: 0.714644 cumulative IPC: 0.72724 (Simulation time: 0 hr 19 min 5 sec) 
Heartbeat CPU 0 instructions: 510000002 cycles: 611984333 heartbeat IPC: 0.746626 cumulative IPC: 0.727701 (Simulation time: 0 hr 19 min 27 sec) 
Heartbeat CPU 0 instructions: 520000000 cycles: 625764387 heartbeat IPC: 0.725686 cumulative IPC: 0.727653 (Simulation time: 0 hr 19 min 52 sec) 
Heartbeat CPU 0 instructions: 530000003 cycles: 639514952 heartbeat IPC: 0.727243 cumulative IPC: 0.727643 (Simulation time: 0 hr 20 min 17 sec) 
Heartbeat CPU 0 instructions: 540000000 cycles: 653531643 heartbeat IPC: 0.713435 cumulative IPC: 0.727314 (Simulation time: 0 hr 20 min 42 sec) 
Heartbeat CPU 0 instructions: 550000003 cycles: 666931109 heartbeat IPC: 0.746299 cumulative IPC: 0.727725 (Simulation time: 0 hr 21 min 5 sec) 
Heartbeat CPU 0 instructions: 560000000 cycles: 680695890 heartbeat IPC: 0.726492 cumulative IPC: 0.727699 (Simulation time: 0 hr 21 min 30 sec) 
Heartbeat CPU 0 instructions: 570000001 cycles: 694477917 heartbeat IPC: 0.725583 cumulative IPC: 0.727653 (Simulation time: 0 hr 21 min 55 sec) 
Heartbeat CPU 0 instructions: 580000000 cycles: 708516465 heartbeat IPC: 0.712324 cumulative IPC: 0.727327 (Simulation time: 0 hr 22 min 20 sec) 
Heartbeat CPU 0 instructions: 590000000 cycles: 721836778 heartbeat IPC: 0.750733 cumulative IPC: 0.72779 (Simulation time: 0 hr 22 min 42 sec) 
Heartbeat CPU 0 instructions: 600000000 cycles: 735606106 heartbeat IPC: 0.726252 cumulative IPC: 0.72776 (Simulation time: 0 hr 23 min 7 sec) 
Finished CPU 0 instructions: 500000001 cycles: 687040122 cumulative IPC: 0.72776 (Simulation time: 0 hr 23 min 7 sec) 

CPU 0 Branch Prediction Accuracy: 97.5275% MPKI: 2.1997
Number of Branches: 44482865 Number of Mispredictions: 1099852
Number of LOAD Instructions: 144955155
Number of LOAD Instructions (ROI): 144955155
Number of STORE Instructions: 55921098
Number of STORE Instructions (ROI): 55921098
Total Destination Memory Operands: 57111147
Total Destination Memory Operands (ROI): 57111147
Total Source Memory Operands: 144955155
Total Source Memory Operands (ROI): 144955155
Number of DEPENDED LOADS: 13454896
Number of DEPENDED LOADS (ROI): 13454896
Number of SQ_ADDED: 57111126
Number of SQ_ADDED (ROI): 57111126
Number of LQ_ADDED: 174762625
Number of LQ_ADDED (ROI): 174762625
Number of Instructions read from trace: 600000256

ChampSim completed all CPUs

Region of Interest Statistics

CPU 0 cumulative IPC: 0.72776 instructions: 500000001 cycles: 687040122
ITLB TOTAL     ACCESS:  136066779  HIT:  136064226  MISS:       2553
ITLB LOAD      ACCESS:  136066779  HIT:  136064226  MISS:       2553
ITLB RFO       ACCESS:          0  HIT:          0  MISS:          0
ITLB PREFETCH  ACCESS:          0  HIT:          0  MISS:          0
ITLB WRITEBACK ACCESS:          0  HIT:          0  MISS:          0
ITLB PREFETCH  REQUESTED:          0  ISSUED:          0  USEFUL:          0  USELESS:          0
ITLB TOTAL MSHR MERGED:       4404
ITLB LOAD MSHR MERGED:       4404
ITLB RFO MSHR MERGED:          0
ITLB PREFETCH MSHR MERGED:          0
ITLB WRITEBACK MSHR MERGED:          0
ITLB TOTAL ACCESSES:  136071183 HITS:  136064226 MISSES:       6957
ITLB LOAD ACCESSES:  136071183 HITS:  136064226 MISSES:       6957
ITLB RFO ACCESSES:          0 HITS:          0 MISSES:          0
ITLB PREFETCH ACCESSES:          0 HITS:          0 MISSES:          0
ITLB WRITEBACK ACCESSES:          0 HITS:          0 MISSES:          0
ITLB RQ ACCESS:  500000202
ITLB RQ TO_CACHE:  136071183
ITLB RQ MERGED:  363929019
ITLB RQ FORWARD:          0
ITLB WQ ACCESS:          0
ITLB WQ TO_CACHE:          0
ITLB WQ MERGED:          0
ITLB WQ FORWARD:          0
DTLB TOTAL     ACCESS:  111537615  HIT:  111401419  MISS:     136196
DTLB LOAD      ACCESS:   78944122  HIT:   78818494  MISS:     125628
DTLB RFO       ACCESS:   32593493  HIT:   32582925  MISS:      10568
DTLB PREFETCH  ACCESS:          0  HIT:          0  MISS:          0
DTLB WRITEBACK ACCESS:          0  HIT:          0  MISS:          0
DTLB PREFETCH  REQUESTED:          0  ISSUED:          0  USEFUL:          0  USELESS:          0
DTLB TOTAL MSHR MERGED:      63542
DTLB LOAD MSHR MERGED:      51116
DTLB RFO MSHR MERGED:      12426
DTLB PREFETCH MSHR MERGED:          0
DTLB WRITEBACK MSHR MERGED:          0
DTLB TOTAL ACCESSES:  111601157 HITS:  111401419 MISSES:     199738
DTLB LOAD ACCESSES:   78995238 HITS:   78818494 MISSES:     176744
DTLB RFO ACCESSES:   32605919 HITS:   32582925 MISSES:      22994
DTLB PREFETCH ACCESSES:          0 HITS:          0 MISSES:          0
DTLB WRITEBACK ACCESSES:          0 HITS:          0 MISSES:          0
DTLB RQ ACCESS:  157180550
DTLB RQ TO_CACHE:  111601157
DTLB RQ MERGED:   45579393
DTLB RQ FORWARD:          0
DTLB WQ ACCESS:          0
DTLB WQ TO_CACHE:          0
DTLB WQ MERGED:          0
DTLB WQ FORWARD:          0
L1D TOTAL     ACCESS:  198131947  HIT:  188290973  MISS:    9840974
L1D LOAD      ACCESS:   79937467  HIT:   75666858  MISS:    4270609
L1D RFO       ACCESS:   44479461  HIT:   43578896  MISS:     900565
L1D PREFETCH  ACCESS:   73715019  HIT:   69045219  MISS:    4669800
L1D WRITEBACK ACCESS:          0  HIT:          0  MISS:          0
L1D PREFETCH  REQUESTED:   80340252  ISSUED:   79884342  USEFUL:    1811536  USELESS:    2858173
L1D TOTAL MSHR MERGED:    2590210
L1D LOAD MSHR MERGED:     534449
L1D RFO MSHR MERGED:    1473229
L1D PREFETCH MSHR MERGED:     582532
L1D WRITEBACK MSHR MERGED:          0
L1D TOTAL ACCESSES:  200743839 HITS:  188312655 MISSES:   12431184
L1D LOAD ACCESSES:   80353322 HITS:   75679928 MISSES:    4673394
L1D RFO ACCESSES:   45949609 HITS:   43578896 MISSES:    2370713
L1D PREFETCH ACCESSES:   74440908 HITS:   69053831 MISSES:    5387077
L1D WRITEBACK ACCESSES:          0 HITS:          0 MISSES:          0
L1D RQ ACCESS:  109538580
L1D RQ TO_CACHE:   80340252
L1D RQ MERGED:   29185258
L1D RQ FORWARD:          0
L1D WQ ACCESS:   47641970
L1D WQ TO_CACHE:   45949609
L1D WQ MERGED:    1692361
L1D WQ FORWARD:      21682
L1I TOTAL     ACCESS:  161539098  HIT:  161275126  MISS:     263972
L1I LOAD      ACCESS:  161539098  HIT:  161275126  MISS:     263972
L1I RFO       ACCESS:          0  HIT:          0  MISS:          0
L1I PREFETCH  ACCESS:          0  HIT:          0  MISS:          0
L1I WRITEBACK ACCESS:          0  HIT:          0  MISS:          0
L1I PREFETCH  REQUESTED:          0  ISSUED:          0  USEFUL:          0  USELESS:          0
L1I TOTAL MSHR MERGED:     259982
L1I LOAD MSHR MERGED:     259982
L1I RFO MSHR MERGED:          0
L1I PREFETCH MSHR MERGED:          0
L1I WRITEBACK MSHR MERGED:          0
L1I TOTAL ACCESSES:  161799080 HITS:  161275126 MISSES:     523954
L1I LOAD ACCESSES:  161799080 HITS:  161275126 MISSES:     523954
L1I RFO ACCESSES:          0 HITS:          0 MISSES:          0
L1I PREFETCH ACCESSES:          0 HITS:          0 MISSES:          0
L1I WRITEBACK ACCESSES:          0 HITS:          0 MISSES:          0
L1I RQ ACCESS:  500000202
L1I RQ TO_CACHE:  161799080
L1I RQ MERGED:  338201122
L1I RQ FORWARD:          0
L1I WQ ACCESS:          0
L1I WQ TO_CACHE:          0
L1I WQ MERGED:          0
L1I WQ FORWARD:          0
L2C TOTAL     ACCESS:   11771722  HIT:   10382429  MISS:    1389293
L2C LOAD      ACCESS:    4402851  HIT:    3906160  MISS:     496691
L2C RFO       ACCESS:     897414  HIT:     536296  MISS:     361118
L2C PREFETCH  ACCESS:    5283958  HIT:    4755415  MISS:     528543
L2C WRITEBACK ACCESS:    1187499  HIT:    1184558  MISS:       2941
L2C PREFETCH  REQUESTED:     504662  ISSUED:     504662  USEFUL:     115096  USELESS:     413639
L2C TOTAL MSHR MERGED:       2093
L2C LOAD MSHR MERGED:        408
L2C RFO MSHR MERGED:          0
L2C PREFETCH MSHR MERGED:       1685
L2C WRITEBACK MSHR MERGED:          0
L2C TOTAL ACCESSES:   11776454 HITS:   10382650 MISSES:    1393804
L2C LOAD ACCESSES:    4402917 HITS:    3906226 MISSES:     496691
L2C RFO ACCESSES:     897484 HITS:     536366 MISSES:     361118
L2C PREFETCH ACCESSES:    5288554 HITS:    4755500 MISSES:     533054
L2C WRITEBACK ACCESSES:    1187499 HITS:    1184558 MISSES:       2941
L2C RQ ACCESS:    5300401
L2C RQ TO_CACHE:    5300265
L2C RQ MERGED:          0
L2C RQ FORWARD:          0
L2C WQ ACCESS:    1187499
L2C WQ TO_CACHE:    1187499
L2C WQ MERGED:          0
L2C WQ FORWARD:        221
LLC TOTAL     ACCESS:    1849395  HIT:     986711  MISS:     862684
LLC LOAD      ACCESS:     496281  HIT:     289774  MISS:     206507
LLC RFO       ACCESS:     361115  HIT:     145022  MISS:     216093
LLC PREFETCH  ACCESS:     531278  HIT:     294571  MISS:     236707
LLC WRITEBACK ACCESS:     460721  HIT:     257344  MISS:     203377
LLC PREFETCH  REQUESTED:          0  ISSUED:          0  USEFUL:       3928  USELESS:     232924
LLC TOTAL MSHR MERGED:         65
LLC LOAD MSHR MERGED:         24
LLC RFO MSHR MERGED:          0
LLC PREFETCH MSHR MERGED:         41
LLC WRITEBACK MSHR MERGED:          0
LLC TOTAL ACCESSES:    1849483 HITS:     986734 MISSES:     862749
LLC LOAD ACCESSES:     496283 HITS:     289776 MISSES:     206507
LLC RFO ACCESSES:     361118 HITS:     145025 MISSES:     216093
LLC PREFETCH ACCESSES:     531361 HITS:     294589 MISSES:     236772
LLC WRITEBACK ACCESSES:     460721 HITS:     257344 MISSES:     203377
LLC 0 RQ ACCESS:     857401
LLC 0 RQ TO_CACHE:     857396
LLC 0 RQ MERGED:          0
LLC 0 RQ FORWARD:          0
LLC WQ ACCESS:     460721
LLC WQ TO_CACHE:     460721
LLC WQ MERGED:          0
LLC WQ FORWARD:         23
Major fault: 0 Minor fault: 3073
CPU 0 L1D next line prefetcher final stats
CPU 0 L2C PC-based stride prefetcher final stats
All Misses: 1039827
All Hits: 1136260
SD Algo Stats - Switches: 0 SRR-Repls: 246006 BRR-Repls: 0

DRAM Statistics
 CHANNEL 0
 RQ ROW_BUFFER_HIT:     401909  ROW_BUFFER_MISS:     257058
 DBUS_CONGESTED:     534888
 WQ ROW_BUFFER_HIT:      43793  ROW_BUFFER_MISS:     189590  FULL:          0

 AVG_CONGESTED_CYCLE: 13
LOADS RETIRED: 120673965
INSTR RETIRED: 500000000
