
*** ChampSim Multicore Out-of-Order Simulator ***

Warmup Instructions: 100000000
Simulation Instructions: 500000000
Number of CPUs: 1
LLC sets: 2048
LLC ways: 16
Clean RRIP Policies: 1213030112130301 Dirty RRIP Policies: 2213131122131311 PSEL Width: 10 Track Set: 4294967295 PSEL Mask: 1 Demote Mask: 3040201030402010DS Algo: 0Window size: 0
Off-chip DRAM Size: 4096 MB Channels: 1 Width: 64-bit Data Rate: 1600 MT/s

CPU 0 runs /mnt/beegfs/iconst01/spec2017/x264.trace.gz
NOT SORTED
TRACE STRING: /mnt/beegfs/iconst01/spec2017/x264.trace.gz
SORTED
TRACE STRING: /mnt/beegfs/iconst01/spec2017/x264.trace.gz
INITIAL
TRACE STRING: /mnt/beegfs/iconst01/spec2017/x264.trace.gz

champsim_seed used: 276

CPU 0 L1D next line prefetcher
CPU 0 L2C IP-based stride prefetcher
Initialize DRRIP state
Assign rand_sets[0]: 454  LLC: 2048
rand_sets[0]: 454
Assign rand_sets[1]: 1662  LLC: 2048
rand_sets[1]: 1662
Assign rand_sets[2]: 1921  LLC: 2048
rand_sets[2]: 1921
Assign rand_sets[3]: 1131  LLC: 2048
rand_sets[3]: 1131
Assign rand_sets[4]: 331  LLC: 2048
rand_sets[4]: 331
Assign rand_sets[5]: 1531  LLC: 2048
rand_sets[5]: 1531
Assign rand_sets[6]: 482  LLC: 2048
rand_sets[6]: 482
Assign rand_sets[7]: 1275  LLC: 2048
rand_sets[7]: 1275
Assign rand_sets[8]: 1876  LLC: 2048
rand_sets[8]: 1876
Assign rand_sets[9]: 2038  LLC: 2048
rand_sets[9]: 2038
Assign rand_sets[10]: 701  LLC: 2048
rand_sets[10]: 701
Assign rand_sets[11]: 479  LLC: 2048
rand_sets[11]: 479
Assign rand_sets[12]: 892  LLC: 2048
rand_sets[12]: 892
Assign rand_sets[13]: 1820  LLC: 2048
rand_sets[13]: 1820
Assign rand_sets[14]: 1505  LLC: 2048
rand_sets[14]: 1505
Assign rand_sets[15]: 1159  LLC: 2048
rand_sets[15]: 1159
Assign rand_sets[16]: 513  LLC: 2048
rand_sets[16]: 513
Assign rand_sets[17]: 703  LLC: 2048
rand_sets[17]: 703
Assign rand_sets[18]: 561  LLC: 2048
rand_sets[18]: 561
Assign rand_sets[19]: 990  LLC: 2048
rand_sets[19]: 990
Assign rand_sets[20]: 342  LLC: 2048
rand_sets[20]: 342
Assign rand_sets[21]: 882  LLC: 2048
rand_sets[21]: 882
Assign rand_sets[22]: 15  LLC: 2048
rand_sets[22]: 15
Assign rand_sets[23]: 71  LLC: 2048
rand_sets[23]: 71
Assign rand_sets[24]: 1127  LLC: 2048
rand_sets[24]: 1127
Assign rand_sets[25]: 1382  LLC: 2048
rand_sets[25]: 1382
Assign rand_sets[26]: 647  LLC: 2048
rand_sets[26]: 647
Assign rand_sets[27]: 857  LLC: 2048
rand_sets[27]: 857
Assign rand_sets[28]: 1450  LLC: 2048
rand_sets[28]: 1450
Assign rand_sets[29]: 1160  LLC: 2048
rand_sets[29]: 1160
Assign rand_sets[30]: 1852  LLC: 2048
rand_sets[30]: 1852
Assign rand_sets[31]: 1881  LLC: 2048
rand_sets[31]: 1881
Assign rand_sets[32]: 1770  LLC: 2048
rand_sets[32]: 1770
Assign rand_sets[33]: 1622  LLC: 2048
rand_sets[33]: 1622
Assign rand_sets[34]: 275  LLC: 2048
rand_sets[34]: 275
Assign rand_sets[35]: 635  LLC: 2048
rand_sets[35]: 635
Assign rand_sets[36]: 466  LLC: 2048
rand_sets[36]: 466
Assign rand_sets[37]: 1413  LLC: 2048
rand_sets[37]: 1413
Assign rand_sets[38]: 417  LLC: 2048
rand_sets[38]: 417
Assign rand_sets[39]: 472  LLC: 2048
rand_sets[39]: 472
Assign rand_sets[40]: 1340  LLC: 2048
rand_sets[40]: 1340
Assign rand_sets[41]: 852  LLC: 2048
rand_sets[41]: 852
Assign rand_sets[42]: 1365  LLC: 2048
rand_sets[42]: 1365
Assign rand_sets[43]: 47  LLC: 2048
rand_sets[43]: 47
Assign rand_sets[44]: 823  LLC: 2048
rand_sets[44]: 823
Assign rand_sets[45]: 686  LLC: 2048
rand_sets[45]: 686
Assign rand_sets[46]: 1637  LLC: 2048
rand_sets[46]: 1637
Assign rand_sets[47]: 1115  LLC: 2048
rand_sets[47]: 1115
Assign rand_sets[48]: 986  LLC: 2048
rand_sets[48]: 986
Assign rand_sets[49]: 258  LLC: 2048
rand_sets[49]: 258
Assign rand_sets[50]: 633  LLC: 2048
rand_sets[50]: 633
Assign rand_sets[51]: 920  LLC: 2048
rand_sets[51]: 920
Assign rand_sets[52]: 204  LLC: 2048
rand_sets[52]: 204
Assign rand_sets[53]: 227  LLC: 2048
rand_sets[53]: 227
Assign rand_sets[54]: 1818  LLC: 2048
rand_sets[54]: 1818
Assign rand_sets[55]: 886  LLC: 2048
rand_sets[55]: 886
Assign rand_sets[56]: 1422  LLC: 2048
rand_sets[56]: 1422
Assign rand_sets[57]: 607  LLC: 2048
rand_sets[57]: 607
Assign rand_sets[58]: 217  LLC: 2048
rand_sets[58]: 217
Assign rand_sets[59]: 1945  LLC: 2048
rand_sets[59]: 1945
Assign rand_sets[60]: 143  LLC: 2048
rand_sets[60]: 143
Assign rand_sets[61]: 1311  LLC: 2048
rand_sets[61]: 1311
Assign rand_sets[62]: 319  LLC: 2048
rand_sets[62]: 319
Assign rand_sets[63]: 1846  LLC: 2048
rand_sets[63]: 1846
 CLEAN-RRIP-POLICY-1: 1-2-1-3-0-3-0-1- CLEAN-RRIP-POLICY-2: 1-2-1-3-0-3-0-1-
 DIRTY-RRIP-POLICY-1: 2-2-1-3-1-3-1-1- DIRTY-RRIP-POLICY-2: 2-2-1-3-1-3-1-1-
 PSEL width: 10
Heartbeat CPU 0 instructions: 10000000 cycles: 4124759 heartbeat IPC: 2.42438 cumulative IPC: 2.42438 (Simulation time: 0 hr 0 min 14 sec) 
Heartbeat CPU 0 instructions: 20000000 cycles: 8233863 heartbeat IPC: 2.43362 cumulative IPC: 2.42899 (Simulation time: 0 hr 0 min 28 sec) 
Heartbeat CPU 0 instructions: 30000003 cycles: 12464696 heartbeat IPC: 2.3636 cumulative IPC: 2.4068 (Simulation time: 0 hr 0 min 41 sec) 
Heartbeat CPU 0 instructions: 40000000 cycles: 16636669 heartbeat IPC: 2.39695 cumulative IPC: 2.40433 (Simulation time: 0 hr 0 min 54 sec) 
Heartbeat CPU 0 instructions: 50000000 cycles: 20699138 heartbeat IPC: 2.46156 cumulative IPC: 2.41556 (Simulation time: 0 hr 1 min 8 sec) 
Heartbeat CPU 0 instructions: 60000000 cycles: 25022626 heartbeat IPC: 2.31295 cumulative IPC: 2.39783 (Simulation time: 0 hr 1 min 22 sec) 
Heartbeat CPU 0 instructions: 70000000 cycles: 29370992 heartbeat IPC: 2.29971 cumulative IPC: 2.3833 (Simulation time: 0 hr 1 min 35 sec) 
Heartbeat CPU 0 instructions: 80000000 cycles: 33721162 heartbeat IPC: 2.29876 cumulative IPC: 2.3724 (Simulation time: 0 hr 1 min 49 sec) 
Heartbeat CPU 0 instructions: 90000002 cycles: 38032160 heartbeat IPC: 2.31965 cumulative IPC: 2.36642 (Simulation time: 0 hr 2 min 2 sec) 
Heartbeat CPU 0 instructions: 100000000 cycles: 42329079 heartbeat IPC: 2.32725 cumulative IPC: 2.36244 (Simulation time: 0 hr 2 min 16 sec) 

Warmup complete CPU 0 instructions: 100000001 cycles: 42329080 (Simulation time: 0 hr 2 min 16 sec) 

Heartbeat CPU 0 instructions: 110000001 cycles: 49383157 heartbeat IPC: 1.41762 cumulative IPC: 1.41762 (Simulation time: 0 hr 2 min 33 sec) 
Heartbeat CPU 0 instructions: 120000000 cycles: 58882088 heartbeat IPC: 1.05275 cumulative IPC: 1.20824 (Simulation time: 0 hr 2 min 53 sec) 
Heartbeat CPU 0 instructions: 130000000 cycles: 63693325 heartbeat IPC: 2.07847 cumulative IPC: 1.40422 (Simulation time: 0 hr 3 min 10 sec) 
Heartbeat CPU 0 instructions: 140000000 cycles: 68609868 heartbeat IPC: 2.03395 cumulative IPC: 1.52202 (Simulation time: 0 hr 3 min 27 sec) 
Heartbeat CPU 0 instructions: 150000002 cycles: 75431336 heartbeat IPC: 1.46596 cumulative IPC: 1.51047 (Simulation time: 0 hr 3 min 45 sec) 
Heartbeat CPU 0 instructions: 160000000 cycles: 83259473 heartbeat IPC: 1.27744 cumulative IPC: 1.4659 (Simulation time: 0 hr 4 min 3 sec) 
Heartbeat CPU 0 instructions: 170000000 cycles: 90657836 heartbeat IPC: 1.35165 cumulative IPC: 1.44841 (Simulation time: 0 hr 4 min 21 sec) 
Heartbeat CPU 0 instructions: 180000000 cycles: 97957979 heartbeat IPC: 1.36984 cumulative IPC: 1.4381 (Simulation time: 0 hr 4 min 39 sec) 
Heartbeat CPU 0 instructions: 190000002 cycles: 105128593 heartbeat IPC: 1.39458 cumulative IPC: 1.43313 (Simulation time: 0 hr 4 min 56 sec) 
Heartbeat CPU 0 instructions: 200000000 cycles: 112356130 heartbeat IPC: 1.3836 cumulative IPC: 1.42802 (Simulation time: 0 hr 5 min 14 sec) 
Heartbeat CPU 0 instructions: 210000000 cycles: 119226015 heartbeat IPC: 1.45563 cumulative IPC: 1.43049 (Simulation time: 0 hr 5 min 31 sec) 
Heartbeat CPU 0 instructions: 220000000 cycles: 125993854 heartbeat IPC: 1.47758 cumulative IPC: 1.4343 (Simulation time: 0 hr 5 min 48 sec) 
Heartbeat CPU 0 instructions: 230000003 cycles: 132725948 heartbeat IPC: 1.48542 cumulative IPC: 1.4381 (Simulation time: 0 hr 6 min 5 sec) 
Heartbeat CPU 0 instructions: 240000000 cycles: 139472691 heartbeat IPC: 1.4822 cumulative IPC: 1.44117 (Simulation time: 0 hr 6 min 22 sec) 
Heartbeat CPU 0 instructions: 250000001 cycles: 146200926 heartbeat IPC: 1.48627 cumulative IPC: 1.44409 (Simulation time: 0 hr 6 min 39 sec) 
Heartbeat CPU 0 instructions: 260000000 cycles: 152905903 heartbeat IPC: 1.49143 cumulative IPC: 1.44696 (Simulation time: 0 hr 6 min 56 sec) 
Heartbeat CPU 0 instructions: 270000001 cycles: 159882259 heartbeat IPC: 1.43341 cumulative IPC: 1.44615 (Simulation time: 0 hr 7 min 13 sec) 
Heartbeat CPU 0 instructions: 280000000 cycles: 167416425 heartbeat IPC: 1.32729 cumulative IPC: 1.43899 (Simulation time: 0 hr 7 min 31 sec) 
Heartbeat CPU 0 instructions: 290000000 cycles: 175338174 heartbeat IPC: 1.26235 cumulative IPC: 1.42847 (Simulation time: 0 hr 7 min 49 sec) 
Heartbeat CPU 0 instructions: 300000000 cycles: 183514097 heartbeat IPC: 1.2231 cumulative IPC: 1.41658 (Simulation time: 0 hr 8 min 7 sec) 
Heartbeat CPU 0 instructions: 310000002 cycles: 191815059 heartbeat IPC: 1.20468 cumulative IPC: 1.40481 (Simulation time: 0 hr 8 min 26 sec) 
Heartbeat CPU 0 instructions: 320000000 cycles: 201791574 heartbeat IPC: 1.00235 cumulative IPC: 1.37963 (Simulation time: 0 hr 8 min 46 sec) 
Heartbeat CPU 0 instructions: 330000002 cycles: 206428022 heartbeat IPC: 2.15682 cumulative IPC: 1.40159 (Simulation time: 0 hr 9 min 3 sec) 
Heartbeat CPU 0 instructions: 340000000 cycles: 211665923 heartbeat IPC: 1.90916 cumulative IPC: 1.41729 (Simulation time: 0 hr 9 min 21 sec) 
Heartbeat CPU 0 instructions: 350000000 cycles: 218858750 heartbeat IPC: 1.39027 cumulative IPC: 1.41619 (Simulation time: 0 hr 9 min 39 sec) 
Heartbeat CPU 0 instructions: 360000000 cycles: 226503852 heartbeat IPC: 1.30803 cumulative IPC: 1.4117 (Simulation time: 0 hr 9 min 57 sec) 
Heartbeat CPU 0 instructions: 370000000 cycles: 233901733 heartbeat IPC: 1.35174 cumulative IPC: 1.40939 (Simulation time: 0 hr 10 min 15 sec) 
Heartbeat CPU 0 instructions: 380000000 cycles: 241171598 heartbeat IPC: 1.37554 cumulative IPC: 1.40815 (Simulation time: 0 hr 10 min 32 sec) 
Heartbeat CPU 0 instructions: 390000000 cycles: 249289109 heartbeat IPC: 1.2319 cumulative IPC: 1.40124 (Simulation time: 0 hr 10 min 51 sec) 
Heartbeat CPU 0 instructions: 400000000 cycles: 257493649 heartbeat IPC: 1.21884 cumulative IPC: 1.39428 (Simulation time: 0 hr 11 min 9 sec) 
Heartbeat CPU 0 instructions: 410000001 cycles: 265316867 heartbeat IPC: 1.27825 cumulative IPC: 1.39021 (Simulation time: 0 hr 11 min 27 sec) 
Heartbeat CPU 0 instructions: 420000000 cycles: 273363971 heartbeat IPC: 1.24268 cumulative IPC: 1.38507 (Simulation time: 0 hr 11 min 46 sec) 
Heartbeat CPU 0 instructions: 430000001 cycles: 281616778 heartbeat IPC: 1.21171 cumulative IPC: 1.37909 (Simulation time: 0 hr 12 min 4 sec) 
Heartbeat CPU 0 instructions: 440000000 cycles: 289664940 heartbeat IPC: 1.24252 cumulative IPC: 1.37465 (Simulation time: 0 hr 12 min 23 sec) 
Heartbeat CPU 0 instructions: 450000001 cycles: 297531215 heartbeat IPC: 1.27125 cumulative IPC: 1.37146 (Simulation time: 0 hr 12 min 41 sec) 
Heartbeat CPU 0 instructions: 460000000 cycles: 307474441 heartbeat IPC: 1.00571 cumulative IPC: 1.35775 (Simulation time: 0 hr 13 min 1 sec) 
Heartbeat CPU 0 instructions: 470000002 cycles: 312101079 heartbeat IPC: 2.1614 cumulative IPC: 1.37153 (Simulation time: 0 hr 13 min 17 sec) 
Heartbeat CPU 0 instructions: 480000000 cycles: 317359643 heartbeat IPC: 1.90166 cumulative IPC: 1.38166 (Simulation time: 0 hr 13 min 34 sec) 
Heartbeat CPU 0 instructions: 490000001 cycles: 324669108 heartbeat IPC: 1.36809 cumulative IPC: 1.38131 (Simulation time: 0 hr 13 min 53 sec) 
Heartbeat CPU 0 instructions: 500000000 cycles: 333399448 heartbeat IPC: 1.14543 cumulative IPC: 1.37424 (Simulation time: 0 hr 14 min 13 sec) 
Heartbeat CPU 0 instructions: 510000002 cycles: 342130165 heartbeat IPC: 1.14538 cumulative IPC: 1.36757 (Simulation time: 0 hr 14 min 33 sec) 
Heartbeat CPU 0 instructions: 520000000 cycles: 350858542 heartbeat IPC: 1.14569 cumulative IPC: 1.3613 (Simulation time: 0 hr 14 min 54 sec) 
Heartbeat CPU 0 instructions: 530000000 cycles: 359564969 heartbeat IPC: 1.14858 cumulative IPC: 1.35546 (Simulation time: 0 hr 15 min 14 sec) 
Heartbeat CPU 0 instructions: 540000000 cycles: 367821186 heartbeat IPC: 1.21121 cumulative IPC: 1.3518 (Simulation time: 0 hr 15 min 33 sec) 
Heartbeat CPU 0 instructions: 550000000 cycles: 374857437 heartbeat IPC: 1.42121 cumulative IPC: 1.35327 (Simulation time: 0 hr 15 min 51 sec) 
Heartbeat CPU 0 instructions: 560000000 cycles: 381467906 heartbeat IPC: 1.51275 cumulative IPC: 1.35638 (Simulation time: 0 hr 16 min 8 sec) 
Heartbeat CPU 0 instructions: 570000002 cycles: 388055042 heartbeat IPC: 1.51811 cumulative IPC: 1.35946 (Simulation time: 0 hr 16 min 26 sec) 
Heartbeat CPU 0 instructions: 580000000 cycles: 394697866 heartbeat IPC: 1.50538 cumulative IPC: 1.36221 (Simulation time: 0 hr 16 min 43 sec) 
Heartbeat CPU 0 instructions: 590000002 cycles: 401381765 heartbeat IPC: 1.49613 cumulative IPC: 1.3647 (Simulation time: 0 hr 17 min 0 sec) 
Heartbeat CPU 0 instructions: 600000000 cycles: 408193077 heartbeat IPC: 1.46815 cumulative IPC: 1.36663 (Simulation time: 0 hr 17 min 17 sec) 
Finished CPU 0 instructions: 500000000 cycles: 365864005 cumulative IPC: 1.36663 (Simulation time: 0 hr 17 min 17 sec) 

CPU 0 Branch Prediction Accuracy: 93.4682% MPKI: 2.44079
Number of Branches: 18683822 Number of Mispredictions: 1220394
Number of LOAD Instructions: 142551610
Number of LOAD Instructions (ROI): 142551610
Number of STORE Instructions: 44807454
Number of STORE Instructions (ROI): 44807454
Total Destination Memory Operands: 48357071
Total Destination Memory Operands (ROI): 48357071
Total Source Memory Operands: 142551610
Total Source Memory Operands (ROI): 142551610
Number of DEPENDED LOADS: 7395140
Number of DEPENDED LOADS (ROI): 7395140
Number of SQ_ADDED: 48357051
Number of SQ_ADDED (ROI): 48357051
Number of LQ_ADDED: 157233223
Number of LQ_ADDED (ROI): 157233223
Number of Instructions read from trace: 600000256

ChampSim completed all CPUs

Region of Interest Statistics

CPU 0 cumulative IPC: 1.36663 instructions: 500000000 cycles: 365864005
ITLB TOTAL     ACCESS:   88176446  HIT:   88176377  MISS:         69
ITLB LOAD      ACCESS:   88176446  HIT:   88176377  MISS:         69
ITLB RFO       ACCESS:          0  HIT:          0  MISS:          0
ITLB PREFETCH  ACCESS:          0  HIT:          0  MISS:          0
ITLB WRITEBACK ACCESS:          0  HIT:          0  MISS:          0
ITLB PREFETCH  REQUESTED:          0  ISSUED:          0  USEFUL:          0  USELESS:          0
ITLB TOTAL MSHR MERGED:         86
ITLB LOAD MSHR MERGED:         86
ITLB RFO MSHR MERGED:          0
ITLB PREFETCH MSHR MERGED:          0
ITLB WRITEBACK MSHR MERGED:          0
ITLB TOTAL ACCESSES:   88176532 HITS:   88176377 MISSES:        155
ITLB LOAD ACCESSES:   88176532 HITS:   88176377 MISSES:        155
ITLB RFO ACCESSES:          0 HITS:          0 MISSES:          0
ITLB PREFETCH ACCESSES:          0 HITS:          0 MISSES:          0
ITLB WRITEBACK ACCESSES:          0 HITS:          0 MISSES:          0
ITLB RQ ACCESS:  500000000
ITLB RQ TO_CACHE:   88176532
ITLB RQ MERGED:  411823468
ITLB RQ FORWARD:          0
ITLB WQ ACCESS:          0
ITLB WQ TO_CACHE:          0
ITLB WQ MERGED:          0
ITLB WQ FORWARD:          0
DTLB TOTAL     ACCESS:   88203325  HIT:   88075910  MISS:     127415
DTLB LOAD      ACCESS:   59485487  HIT:   59393026  MISS:      92461
DTLB RFO       ACCESS:   28717838  HIT:   28682884  MISS:      34954
DTLB PREFETCH  ACCESS:          0  HIT:          0  MISS:          0
DTLB WRITEBACK ACCESS:          0  HIT:          0  MISS:          0
DTLB PREFETCH  REQUESTED:          0  ISSUED:          0  USEFUL:          0  USELESS:          0
DTLB TOTAL MSHR MERGED:     141096
DTLB LOAD MSHR MERGED:     107656
DTLB RFO MSHR MERGED:      33440
DTLB PREFETCH MSHR MERGED:          0
DTLB WRITEBACK MSHR MERGED:          0
DTLB TOTAL ACCESSES:   88344421 HITS:   88075910 MISSES:     268511
DTLB LOAD ACCESSES:   59593143 HITS:   59393026 MISSES:     200117
DTLB RFO ACCESSES:   28751278 HITS:   28682884 MISSES:      68394
DTLB PREFETCH ACCESSES:          0 HITS:          0 MISSES:          0
DTLB WRITEBACK ACCESSES:          0 HITS:          0 MISSES:          0
DTLB RQ ACCESS:  154558750
DTLB RQ TO_CACHE:   88344421
DTLB RQ MERGED:   66214329
DTLB RQ FORWARD:          0
DTLB WQ ACCESS:          0
DTLB WQ TO_CACHE:          0
DTLB WQ MERGED:          0
DTLB WQ FORWARD:          0
L1D TOTAL     ACCESS:  128079438  HIT:  124853882  MISS:    3225556
L1D LOAD      ACCESS:   53172325  HIT:   51976831  MISS:    1195494
L1D RFO       ACCESS:   37369029  HIT:   36754864  MISS:     614165
L1D PREFETCH  ACCESS:   37538084  HIT:   36122187  MISS:    1415897
L1D WRITEBACK ACCESS:          0  HIT:          0  MISS:          0
L1D PREFETCH  REQUESTED:   53657148  ISSUED:   52457104  USEFUL:     351943  USELESS:    1063919
L1D TOTAL MSHR MERGED:    2822025
L1D LOAD MSHR MERGED:     523757
L1D RFO MSHR MERGED:    1585404
L1D PREFETCH MSHR MERGED:     712864
L1D WRITEBACK MSHR MERGED:          0
L1D TOTAL ACCESSES:  130936336 HITS:  124888755 MISSES:    6047581
L1D LOAD ACCESSES:   53660020 HITS:   51979703 MISSES:    1680317
L1D RFO ACCESSES:   38952847 HITS:   36754864 MISSES:    2197983
L1D PREFETCH ACCESSES:   38323469 HITS:   36154188 MISSES:    2169281
L1D WRITEBACK ACCESSES:          0 HITS:          0 MISSES:          0
L1D RQ ACCESS:  113713858
L1D RQ TO_CACHE:   53657148
L1D RQ MERGED:   60053838
L1D RQ FORWARD:          0
L1D WQ ACCESS:   40844891
L1D WQ TO_CACHE:   38952847
L1D WQ MERGED:    1892044
L1D WQ FORWARD:      34873
L1I TOTAL     ACCESS:  108368628  HIT:  107809492  MISS:     559136
L1I LOAD      ACCESS:  108368628  HIT:  107809492  MISS:     559136
L1I RFO       ACCESS:          0  HIT:          0  MISS:          0
L1I PREFETCH  ACCESS:          0  HIT:          0  MISS:          0
L1I WRITEBACK ACCESS:          0  HIT:          0  MISS:          0
L1I PREFETCH  REQUESTED:          0  ISSUED:          0  USEFUL:          0  USELESS:          0
L1I TOTAL MSHR MERGED:     525571
L1I LOAD MSHR MERGED:     525571
L1I RFO MSHR MERGED:          0
L1I PREFETCH MSHR MERGED:          0
L1I WRITEBACK MSHR MERGED:          0
L1I TOTAL ACCESSES:  108894199 HITS:  107809492 MISSES:    1084707
L1I LOAD ACCESSES:  108894199 HITS:  107809492 MISSES:    1084707
L1I RFO ACCESSES:          0 HITS:          0 MISSES:          0
L1I PREFETCH ACCESSES:          0 HITS:          0 MISSES:          0
L1I WRITEBACK ACCESSES:          0 HITS:          0 MISSES:          0
L1I RQ ACCESS:  500000002
L1I RQ TO_CACHE:  108894199
L1I RQ MERGED:  391105803
L1I RQ FORWARD:          0
L1I WQ ACCESS:          0
L1I WQ TO_CACHE:          0
L1I WQ MERGED:          0
L1I WQ FORWARD:          0
L2C TOTAL     ACCESS:    4691693  HIT:    3865636  MISS:     826057
L2C LOAD      ACCESS:    1715580  HIT:    1562601  MISS:     152979
L2C RFO       ACCESS:     611164  HIT:     421163  MISS:     190001
L2C PREFETCH  ACCESS:    1662078  HIT:    1181188  MISS:     480890
L2C WRITEBACK ACCESS:     702871  HIT:     700684  MISS:       2187
L2C PREFETCH  REQUESTED:     256221  ISSUED:     256221  USEFUL:     172981  USELESS:     308575
L2C TOTAL MSHR MERGED:      13368
L2C LOAD MSHR MERGED:       4085
L2C RFO MSHR MERGED:          0
L2C PREFETCH MSHR MERGED:       9283
L2C WRITEBACK MSHR MERGED:          0
L2C TOTAL ACCESSES:    4711956 HITS:    3867237 MISSES:     844719
L2C LOAD ACCESSES:    1715696 HITS:    1562717 MISSES:     152979
L2C RFO ACCESSES:     612579 HITS:     422578 MISSES:     190001
L2C PREFETCH ACCESSES:    1680810 HITS:    1181258 MISSES:     499552
L2C WRITEBACK ACCESSES:     702871 HITS:     700684 MISSES:       2187
L2C RQ ACCESS:    2328275
L2C RQ TO_CACHE:    2326744
L2C RQ MERGED:          0
L2C RQ FORWARD:          0
L2C WQ ACCESS:     702871
L2C WQ TO_CACHE:     702871
L2C WQ MERGED:          0
L2C WQ FORWARD:       1601
LLC TOTAL     ACCESS:    1047567  HIT:     288322  MISS:     759245
LLC LOAD      ACCESS:     148890  HIT:      90424  MISS:      58466
LLC RFO       ACCESS:     189991  HIT:       7225  MISS:     182766
LLC PREFETCH  ACCESS:     487805  HIT:     151048  MISS:     336757
LLC WRITEBACK ACCESS:     220881  HIT:      39625  MISS:     181256
LLC PREFETCH  REQUESTED:          0  ISSUED:          0  USEFUL:       2315  USELESS:     335156
LLC TOTAL MSHR MERGED:       1739
LLC LOAD MSHR MERGED:        642
LLC RFO MSHR MERGED:          0
LLC PREFETCH MSHR MERGED:       1097
LLC WRITEBACK MSHR MERGED:          0
LLC TOTAL ACCESSES:    1049320 HITS:     288336 MISSES:     760984
LLC LOAD ACCESSES:     148894 HITS:      90428 MISSES:      58466
LLC RFO ACCESSES:     190001 HITS:       7235 MISSES:     182766
LLC PREFETCH ACCESSES:     489544 HITS:     151048 MISSES:     338496
LLC WRITEBACK ACCESSES:     220881 HITS:      39625 MISSES:     181256
LLC 0 RQ ACCESS:     338895
LLC 0 RQ TO_CACHE:     338881
LLC 0 RQ MERGED:          0
LLC 0 RQ FORWARD:          0
LLC WQ ACCESS:     220881
LLC WQ TO_CACHE:     220881
LLC WQ MERGED:          0
LLC WQ FORWARD:         14
Major fault: 0 Minor fault: 6811
CPU 0 L1D next line prefetcher final stats
CPU 0 L2C PC-based stride prefetcher final stats
All Misses: 898678
All Hits: 355872
SD Algo Stats - Switches: 0 SRR-Repls: 65933 BRR-Repls: 0

DRAM Statistics
 CHANNEL 0
 RQ ROW_BUFFER_HIT:     290995  ROW_BUFFER_MISS:     286924
 DBUS_CONGESTED:     400768
 WQ ROW_BUFFER_HIT:      25251  ROW_BUFFER_MISS:     190732  FULL:          0

 AVG_CONGESTED_CYCLE: 13
LOADS RETIRED: 119922929
INSTR RETIRED: 500000000
