
*** ChampSim Multicore Out-of-Order Simulator ***

Warmup Instructions: 100000000
Simulation Instructions: 500000000
Number of CPUs: 1
LLC sets: 2048
LLC ways: 16
Clean RRIP Policies: 2211010022110100 Dirty RRIP Policies: 201111002011110 PSEL Width: 10 Track Set: 4294967295 PSEL Mask: 1 Demote Mask: 4031244440312444DS Algo: 0Window size: 0
Off-chip DRAM Size: 4096 MB Channels: 1 Width: 64-bit Data Rate: 1600 MT/s

CPU 0 runs /mnt/beegfs/iconst01/spec2017/Gcc.trace.gz
NOT SORTED
TRACE STRING: /mnt/beegfs/iconst01/spec2017/Gcc.trace.gz
SORTED
TRACE STRING: /mnt/beegfs/iconst01/spec2017/Gcc.trace.gz
INITIAL
TRACE STRING: /mnt/beegfs/iconst01/spec2017/Gcc.trace.gz

champsim_seed used: 269

CPU 0 L1D next line prefetcher
CPU 0 L2C IP-based stride prefetcher
Initialize DRRIP state
Assign rand_sets[0]: 454  LLC: 2048
rand_sets[0]: 454
Assign rand_sets[1]: 1662  LLC: 2048
rand_sets[1]: 1662
Assign rand_sets[2]: 1921  LLC: 2048
rand_sets[2]: 1921
Assign rand_sets[3]: 1131  LLC: 2048
rand_sets[3]: 1131
Assign rand_sets[4]: 331  LLC: 2048
rand_sets[4]: 331
Assign rand_sets[5]: 1531  LLC: 2048
rand_sets[5]: 1531
Assign rand_sets[6]: 482  LLC: 2048
rand_sets[6]: 482
Assign rand_sets[7]: 1275  LLC: 2048
rand_sets[7]: 1275
Assign rand_sets[8]: 1876  LLC: 2048
rand_sets[8]: 1876
Assign rand_sets[9]: 2038  LLC: 2048
rand_sets[9]: 2038
Assign rand_sets[10]: 701  LLC: 2048
rand_sets[10]: 701
Assign rand_sets[11]: 479  LLC: 2048
rand_sets[11]: 479
Assign rand_sets[12]: 892  LLC: 2048
rand_sets[12]: 892
Assign rand_sets[13]: 1820  LLC: 2048
rand_sets[13]: 1820
Assign rand_sets[14]: 1505  LLC: 2048
rand_sets[14]: 1505
Assign rand_sets[15]: 1159  LLC: 2048
rand_sets[15]: 1159
Assign rand_sets[16]: 513  LLC: 2048
rand_sets[16]: 513
Assign rand_sets[17]: 703  LLC: 2048
rand_sets[17]: 703
Assign rand_sets[18]: 561  LLC: 2048
rand_sets[18]: 561
Assign rand_sets[19]: 990  LLC: 2048
rand_sets[19]: 990
Assign rand_sets[20]: 342  LLC: 2048
rand_sets[20]: 342
Assign rand_sets[21]: 882  LLC: 2048
rand_sets[21]: 882
Assign rand_sets[22]: 15  LLC: 2048
rand_sets[22]: 15
Assign rand_sets[23]: 71  LLC: 2048
rand_sets[23]: 71
Assign rand_sets[24]: 1127  LLC: 2048
rand_sets[24]: 1127
Assign rand_sets[25]: 1382  LLC: 2048
rand_sets[25]: 1382
Assign rand_sets[26]: 647  LLC: 2048
rand_sets[26]: 647
Assign rand_sets[27]: 857  LLC: 2048
rand_sets[27]: 857
Assign rand_sets[28]: 1450  LLC: 2048
rand_sets[28]: 1450
Assign rand_sets[29]: 1160  LLC: 2048
rand_sets[29]: 1160
Assign rand_sets[30]: 1852  LLC: 2048
rand_sets[30]: 1852
Assign rand_sets[31]: 1881  LLC: 2048
rand_sets[31]: 1881
Assign rand_sets[32]: 1770  LLC: 2048
rand_sets[32]: 1770
Assign rand_sets[33]: 1622  LLC: 2048
rand_sets[33]: 1622
Assign rand_sets[34]: 275  LLC: 2048
rand_sets[34]: 275
Assign rand_sets[35]: 635  LLC: 2048
rand_sets[35]: 635
Assign rand_sets[36]: 466  LLC: 2048
rand_sets[36]: 466
Assign rand_sets[37]: 1413  LLC: 2048
rand_sets[37]: 1413
Assign rand_sets[38]: 417  LLC: 2048
rand_sets[38]: 417
Assign rand_sets[39]: 472  LLC: 2048
rand_sets[39]: 472
Assign rand_sets[40]: 1340  LLC: 2048
rand_sets[40]: 1340
Assign rand_sets[41]: 852  LLC: 2048
rand_sets[41]: 852
Assign rand_sets[42]: 1365  LLC: 2048
rand_sets[42]: 1365
Assign rand_sets[43]: 47  LLC: 2048
rand_sets[43]: 47
Assign rand_sets[44]: 823  LLC: 2048
rand_sets[44]: 823
Assign rand_sets[45]: 686  LLC: 2048
rand_sets[45]: 686
Assign rand_sets[46]: 1637  LLC: 2048
rand_sets[46]: 1637
Assign rand_sets[47]: 1115  LLC: 2048
rand_sets[47]: 1115
Assign rand_sets[48]: 986  LLC: 2048
rand_sets[48]: 986
Assign rand_sets[49]: 258  LLC: 2048
rand_sets[49]: 258
Assign rand_sets[50]: 633  LLC: 2048
rand_sets[50]: 633
Assign rand_sets[51]: 920  LLC: 2048
rand_sets[51]: 920
Assign rand_sets[52]: 204  LLC: 2048
rand_sets[52]: 204
Assign rand_sets[53]: 227  LLC: 2048
rand_sets[53]: 227
Assign rand_sets[54]: 1818  LLC: 2048
rand_sets[54]: 1818
Assign rand_sets[55]: 886  LLC: 2048
rand_sets[55]: 886
Assign rand_sets[56]: 1422  LLC: 2048
rand_sets[56]: 1422
Assign rand_sets[57]: 607  LLC: 2048
rand_sets[57]: 607
Assign rand_sets[58]: 217  LLC: 2048
rand_sets[58]: 217
Assign rand_sets[59]: 1945  LLC: 2048
rand_sets[59]: 1945
Assign rand_sets[60]: 143  LLC: 2048
rand_sets[60]: 143
Assign rand_sets[61]: 1311  LLC: 2048
rand_sets[61]: 1311
Assign rand_sets[62]: 319  LLC: 2048
rand_sets[62]: 319
Assign rand_sets[63]: 1846  LLC: 2048
rand_sets[63]: 1846
 CLEAN-RRIP-POLICY-1: 2-2-1-1-0-1-0-0- CLEAN-RRIP-POLICY-2: 2-2-1-1-0-1-0-0-
 DIRTY-RRIP-POLICY-1: 0-2-0-1-1-1-1-0- DIRTY-RRIP-POLICY-2: 0-2-0-1-1-1-1-0-
 PSEL width: 10
Heartbeat CPU 0 instructions: 10000001 cycles: 7315911 heartbeat IPC: 1.36688 cumulative IPC: 1.36688 (Simulation time: 0 hr 0 min 15 sec) 
Heartbeat CPU 0 instructions: 20000000 cycles: 14307389 heartbeat IPC: 1.43031 cumulative IPC: 1.39788 (Simulation time: 0 hr 0 min 30 sec) 
Heartbeat CPU 0 instructions: 30000001 cycles: 21020467 heartbeat IPC: 1.48963 cumulative IPC: 1.42718 (Simulation time: 0 hr 0 min 46 sec) 
Heartbeat CPU 0 instructions: 40000000 cycles: 27481368 heartbeat IPC: 1.54777 cumulative IPC: 1.45553 (Simulation time: 0 hr 1 min 2 sec) 
Heartbeat CPU 0 instructions: 50000001 cycles: 33583200 heartbeat IPC: 1.63885 cumulative IPC: 1.48884 (Simulation time: 0 hr 1 min 18 sec) 
Heartbeat CPU 0 instructions: 60000000 cycles: 40064374 heartbeat IPC: 1.54293 cumulative IPC: 1.49759 (Simulation time: 0 hr 1 min 34 sec) 
Heartbeat CPU 0 instructions: 70000000 cycles: 47102489 heartbeat IPC: 1.42084 cumulative IPC: 1.48612 (Simulation time: 0 hr 1 min 49 sec) 
Heartbeat CPU 0 instructions: 80000000 cycles: 54192111 heartbeat IPC: 1.41051 cumulative IPC: 1.47623 (Simulation time: 0 hr 2 min 4 sec) 
Heartbeat CPU 0 instructions: 90000003 cycles: 61196524 heartbeat IPC: 1.42767 cumulative IPC: 1.47067 (Simulation time: 0 hr 2 min 19 sec) 
Heartbeat CPU 0 instructions: 100000000 cycles: 68363907 heartbeat IPC: 1.39521 cumulative IPC: 1.46276 (Simulation time: 0 hr 2 min 34 sec) 

Warmup complete CPU 0 instructions: 100000004 cycles: 68363908 (Simulation time: 0 hr 2 min 34 sec) 

Heartbeat CPU 0 instructions: 110000003 cycles: 96062378 heartbeat IPC: 0.361031 cumulative IPC: 0.361031 (Simulation time: 0 hr 3 min 3 sec) 
Heartbeat CPU 0 instructions: 120000000 cycles: 123549739 heartbeat IPC: 0.363803 cumulative IPC: 0.362412 (Simulation time: 0 hr 3 min 33 sec) 
Heartbeat CPU 0 instructions: 130000000 cycles: 148578966 heartbeat IPC: 0.399533 cumulative IPC: 0.373995 (Simulation time: 0 hr 4 min 2 sec) 
Heartbeat CPU 0 instructions: 140000000 cycles: 178056253 heartbeat IPC: 0.339244 cumulative IPC: 0.364656 (Simulation time: 0 hr 4 min 30 sec) 
Heartbeat CPU 0 instructions: 150000000 cycles: 207942227 heartbeat IPC: 0.334605 cumulative IPC: 0.358222 (Simulation time: 0 hr 4 min 59 sec) 
Heartbeat CPU 0 instructions: 160000000 cycles: 235363246 heartbeat IPC: 0.364684 cumulative IPC: 0.359283 (Simulation time: 0 hr 5 min 28 sec) 
Heartbeat CPU 0 instructions: 170000001 cycles: 263469703 heartbeat IPC: 0.35579 cumulative IPC: 0.35878 (Simulation time: 0 hr 5 min 58 sec) 
Heartbeat CPU 0 instructions: 180000000 cycles: 291958187 heartbeat IPC: 0.351019 cumulative IPC: 0.357791 (Simulation time: 0 hr 6 min 28 sec) 
Heartbeat CPU 0 instructions: 190000002 cycles: 320013243 heartbeat IPC: 0.356442 cumulative IPC: 0.357641 (Simulation time: 0 hr 6 min 57 sec) 
Heartbeat CPU 0 instructions: 200000000 cycles: 348362695 heartbeat IPC: 0.35274 cumulative IPC: 0.357144 (Simulation time: 0 hr 7 min 27 sec) 
Heartbeat CPU 0 instructions: 210000002 cycles: 376215129 heartbeat IPC: 0.359035 cumulative IPC: 0.357315 (Simulation time: 0 hr 7 min 56 sec) 
Heartbeat CPU 0 instructions: 220000000 cycles: 405329720 heartbeat IPC: 0.34347 cumulative IPC: 0.356119 (Simulation time: 0 hr 8 min 24 sec) 
Heartbeat CPU 0 instructions: 230000000 cycles: 432917753 heartbeat IPC: 0.362476 cumulative IPC: 0.3566 (Simulation time: 0 hr 8 min 53 sec) 
Heartbeat CPU 0 instructions: 240000000 cycles: 458889811 heartbeat IPC: 0.385029 cumulative IPC: 0.358491 (Simulation time: 0 hr 9 min 20 sec) 
Heartbeat CPU 0 instructions: 250000000 cycles: 489068133 heartbeat IPC: 0.331364 cumulative IPC: 0.356545 (Simulation time: 0 hr 9 min 51 sec) 
Heartbeat CPU 0 instructions: 260000000 cycles: 516210794 heartbeat IPC: 0.368424 cumulative IPC: 0.357265 (Simulation time: 0 hr 10 min 19 sec) 
Heartbeat CPU 0 instructions: 270000003 cycles: 544746994 heartbeat IPC: 0.350432 cumulative IPC: 0.356856 (Simulation time: 0 hr 10 min 50 sec) 
Heartbeat CPU 0 instructions: 280000000 cycles: 572976389 heartbeat IPC: 0.354241 cumulative IPC: 0.356709 (Simulation time: 0 hr 11 min 20 sec) 
Heartbeat CPU 0 instructions: 290000000 cycles: 601845922 heartbeat IPC: 0.346386 cumulative IPC: 0.356151 (Simulation time: 0 hr 11 min 50 sec) 
Heartbeat CPU 0 instructions: 300000000 cycles: 631750361 heartbeat IPC: 0.334399 cumulative IPC: 0.354996 (Simulation time: 0 hr 12 min 19 sec) 
Heartbeat CPU 0 instructions: 310000001 cycles: 661128633 heartbeat IPC: 0.340388 cumulative IPC: 0.354272 (Simulation time: 0 hr 12 min 48 sec) 
Heartbeat CPU 0 instructions: 320000000 cycles: 689378764 heartbeat IPC: 0.353981 cumulative IPC: 0.354259 (Simulation time: 0 hr 13 min 17 sec) 
Heartbeat CPU 0 instructions: 330000000 cycles: 718051113 heartbeat IPC: 0.348768 cumulative IPC: 0.354017 (Simulation time: 0 hr 13 min 45 sec) 
Heartbeat CPU 0 instructions: 340000000 cycles: 747354824 heartbeat IPC: 0.341254 cumulative IPC: 0.353466 (Simulation time: 0 hr 14 min 15 sec) 
Heartbeat CPU 0 instructions: 350000003 cycles: 774392540 heartbeat IPC: 0.369854 cumulative IPC: 0.354093 (Simulation time: 0 hr 14 min 43 sec) 
Heartbeat CPU 0 instructions: 360000000 cycles: 802496869 heartbeat IPC: 0.355817 cumulative IPC: 0.354159 (Simulation time: 0 hr 15 min 11 sec) 
Heartbeat CPU 0 instructions: 370000000 cycles: 830655919 heartbeat IPC: 0.355126 cumulative IPC: 0.354195 (Simulation time: 0 hr 15 min 39 sec) 
Heartbeat CPU 0 instructions: 380000000 cycles: 859145728 heartbeat IPC: 0.351003 cumulative IPC: 0.35408 (Simulation time: 0 hr 16 min 7 sec) 
Heartbeat CPU 0 instructions: 390000001 cycles: 886729746 heartbeat IPC: 0.362529 cumulative IPC: 0.354365 (Simulation time: 0 hr 16 min 34 sec) 
Heartbeat CPU 0 instructions: 400000000 cycles: 915356432 heartbeat IPC: 0.349324 cumulative IPC: 0.354194 (Simulation time: 0 hr 17 min 2 sec) 
Heartbeat CPU 0 instructions: 410000001 cycles: 942619889 heartbeat IPC: 0.366791 cumulative IPC: 0.354587 (Simulation time: 0 hr 17 min 30 sec) 
Heartbeat CPU 0 instructions: 420000000 cycles: 969892813 heartbeat IPC: 0.366664 cumulative IPC: 0.354953 (Simulation time: 0 hr 17 min 57 sec) 
Heartbeat CPU 0 instructions: 430000002 cycles: 997553171 heartbeat IPC: 0.361528 cumulative IPC: 0.355148 (Simulation time: 0 hr 18 min 25 sec) 
Heartbeat CPU 0 instructions: 440000000 cycles: 1027092235 heartbeat IPC: 0.338535 cumulative IPC: 0.354636 (Simulation time: 0 hr 18 min 53 sec) 
Heartbeat CPU 0 instructions: 450000002 cycles: 1056338387 heartbeat IPC: 0.341925 cumulative IPC: 0.35426 (Simulation time: 0 hr 19 min 21 sec) 
Heartbeat CPU 0 instructions: 460000000 cycles: 1084002617 heartbeat IPC: 0.361478 cumulative IPC: 0.354457 (Simulation time: 0 hr 19 min 49 sec) 
Heartbeat CPU 0 instructions: 470000000 cycles: 1111604000 heartbeat IPC: 0.362301 cumulative IPC: 0.354664 (Simulation time: 0 hr 20 min 17 sec) 
Heartbeat CPU 0 instructions: 480000000 cycles: 1139456117 heartbeat IPC: 0.359039 cumulative IPC: 0.354778 (Simulation time: 0 hr 20 min 45 sec) 
Heartbeat CPU 0 instructions: 490000000 cycles: 1167016899 heartbeat IPC: 0.362834 cumulative IPC: 0.35498 (Simulation time: 0 hr 21 min 12 sec) 
Heartbeat CPU 0 instructions: 500000000 cycles: 1195306302 heartbeat IPC: 0.353489 cumulative IPC: 0.354943 (Simulation time: 0 hr 21 min 40 sec) 
Heartbeat CPU 0 instructions: 510000000 cycles: 1230668363 heartbeat IPC: 0.282789 cumulative IPC: 0.352747 (Simulation time: 0 hr 22 min 12 sec) 
Heartbeat CPU 0 instructions: 520000000 cycles: 1258695881 heartbeat IPC: 0.356792 cumulative IPC: 0.352843 (Simulation time: 0 hr 22 min 41 sec) 
Heartbeat CPU 0 instructions: 530000001 cycles: 1287957074 heartbeat IPC: 0.34175 cumulative IPC: 0.352577 (Simulation time: 0 hr 23 min 10 sec) 
Heartbeat CPU 0 instructions: 540000000 cycles: 1315998396 heartbeat IPC: 0.356617 cumulative IPC: 0.352667 (Simulation time: 0 hr 23 min 39 sec) 
Heartbeat CPU 0 instructions: 550000001 cycles: 1345201510 heartbeat IPC: 0.342429 cumulative IPC: 0.352433 (Simulation time: 0 hr 24 min 9 sec) 
Heartbeat CPU 0 instructions: 560000000 cycles: 1370604418 heartbeat IPC: 0.393656 cumulative IPC: 0.353237 (Simulation time: 0 hr 24 min 37 sec) 
Heartbeat CPU 0 instructions: 570000000 cycles: 1400155449 heartbeat IPC: 0.338398 cumulative IPC: 0.352908 (Simulation time: 0 hr 25 min 7 sec) 
Heartbeat CPU 0 instructions: 580000000 cycles: 1428120042 heartbeat IPC: 0.357595 cumulative IPC: 0.353004 (Simulation time: 0 hr 25 min 36 sec) 
Heartbeat CPU 0 instructions: 590000001 cycles: 1452925657 heartbeat IPC: 0.403135 cumulative IPC: 0.353903 (Simulation time: 0 hr 26 min 3 sec) 
Heartbeat CPU 0 instructions: 600000000 cycles: 1479063149 heartbeat IPC: 0.382592 cumulative IPC: 0.354434 (Simulation time: 0 hr 26 min 32 sec) 
Finished CPU 0 instructions: 500000000 cycles: 1410699263 cumulative IPC: 0.354434 (Simulation time: 0 hr 26 min 32 sec) 

CPU 0 Branch Prediction Accuracy: 86.4311% MPKI: 26.2662
Number of Branches: 96788573 Number of Mispredictions: 13133102
Number of LOAD Instructions: 164682285
Number of LOAD Instructions (ROI): 164682285
Number of STORE Instructions: 78194750
Number of STORE Instructions (ROI): 78194750
Total Destination Memory Operands: 83268534
Total Destination Memory Operands (ROI): 83268534
Total Source Memory Operands: 164712438
Total Source Memory Operands (ROI): 164712438
Number of DEPENDED LOADS: 7061456
Number of DEPENDED LOADS (ROI): 7061456
Number of SQ_ADDED: 83268522
Number of SQ_ADDED (ROI): 83268522
Number of LQ_ADDED: 236589818
Number of LQ_ADDED (ROI): 236589818
Number of Instructions read from trace: 600000066

ChampSim completed all CPUs

Region of Interest Statistics

CPU 0 cumulative IPC: 0.354434 instructions: 500000000 cycles: 1410699263
ITLB TOTAL     ACCESS:  100511317  HIT:  100306871  MISS:     204446
ITLB LOAD      ACCESS:  100511317  HIT:  100306871  MISS:     204446
ITLB RFO       ACCESS:          0  HIT:          0  MISS:          0
ITLB PREFETCH  ACCESS:          0  HIT:          0  MISS:          0
ITLB WRITEBACK ACCESS:          0  HIT:          0  MISS:          0
ITLB PREFETCH  REQUESTED:          0  ISSUED:          0  USEFUL:          0  USELESS:          0
ITLB TOTAL MSHR MERGED:     172424
ITLB LOAD MSHR MERGED:     172424
ITLB RFO MSHR MERGED:          0
ITLB PREFETCH MSHR MERGED:          0
ITLB WRITEBACK MSHR MERGED:          0
ITLB TOTAL ACCESSES:  100683741 HITS:  100306871 MISSES:     376870
ITLB LOAD ACCESSES:  100683741 HITS:  100306871 MISSES:     376870
ITLB RFO ACCESSES:          0 HITS:          0 MISSES:          0
ITLB PREFETCH ACCESSES:          0 HITS:          0 MISSES:          0
ITLB WRITEBACK ACCESSES:          0 HITS:          0 MISSES:          0
ITLB RQ ACCESS:  500000057
ITLB RQ TO_CACHE:  100683741
ITLB RQ MERGED:  399316316
ITLB RQ FORWARD:          0
ITLB WQ ACCESS:          0
ITLB WQ TO_CACHE:          0
ITLB WQ MERGED:          0
ITLB WQ FORWARD:          0
DTLB TOTAL     ACCESS:  165334645  HIT:  164700300  MISS:     634345
DTLB LOAD      ACCESS:  106291143  HIT:  105721158  MISS:     569985
DTLB RFO       ACCESS:   59043502  HIT:   58979142  MISS:      64360
DTLB PREFETCH  ACCESS:          0  HIT:          0  MISS:          0
DTLB WRITEBACK ACCESS:          0  HIT:          0  MISS:          0
DTLB PREFETCH  REQUESTED:          0  ISSUED:          0  USEFUL:          0  USELESS:          0
DTLB TOTAL MSHR MERGED:      99943
DTLB LOAD MSHR MERGED:      59449
DTLB RFO MSHR MERGED:      40494
DTLB PREFETCH MSHR MERGED:          0
DTLB WRITEBACK MSHR MERGED:          0
DTLB TOTAL ACCESSES:  165434588 HITS:  164700300 MISSES:     734288
DTLB LOAD ACCESSES:  106350592 HITS:  105721158 MISSES:     629434
DTLB RFO ACCESSES:   59083996 HITS:   58979142 MISSES:     104854
DTLB PREFETCH ACCESSES:          0 HITS:          0 MISSES:          0
DTLB WRITEBACK ACCESSES:          0 HITS:          0 MISSES:          0
DTLB RQ ACCESS:  200309459
DTLB RQ TO_CACHE:  165434588
DTLB RQ MERGED:   34874871
DTLB RQ FORWARD:          0
DTLB WQ ACCESS:          0
DTLB WQ TO_CACHE:          0
DTLB WQ MERGED:          0
DTLB WQ FORWARD:          0
L1D TOTAL     ACCESS:  281838019  HIT:  273928643  MISS:    7909376
L1D LOAD      ACCESS:  110424327  HIT:  107149528  MISS:    3274799
L1D RFO       ACCESS:   67101763  HIT:   66210538  MISS:     891225
L1D PREFETCH  ACCESS:  104311929  HIT:  100568577  MISS:    3743352
L1D WRITEBACK ACCESS:          0  HIT:          0  MISS:          0
L1D PREFETCH  REQUESTED:  110814814  ISSUED:  109115464  USEFUL:    1664108  USELESS:    2079208
L1D TOTAL MSHR MERGED:    2862018
L1D LOAD MSHR MERGED:     484748
L1D RFO MSHR MERGED:    1884791
L1D PREFETCH MSHR MERGED:     492479
L1D WRITEBACK MSHR MERGED:          0
L1D TOTAL ACCESSES:  284727560 HITS:  273956166 MISSES:   10771394
L1D LOAD ACCESSES:  110816340 HITS:  107151054 MISSES:    3665286
L1D RFO ACCESSES:   68974141 HITS:   66210538 MISSES:    2763603
L1D PREFETCH ACCESSES:  104937079 HITS:  100594574 MISSES:    4342505
L1D WRITEBACK ACCESSES:          0 HITS:          0 MISSES:          0
L1D RQ ACCESS:  130756856
L1D RQ TO_CACHE:  110814817
L1D RQ MERGED:   19940513
L1D RQ FORWARD:          0
L1D WQ ACCESS:   69552603
L1D WQ TO_CACHE:   68974142
L1D WQ MERGED:     578461
L1D WQ FORWARD:      27523
L1I TOTAL     ACCESS:  126559121  HIT:  122320569  MISS:    4238552
L1I LOAD      ACCESS:  126559121  HIT:  122320569  MISS:    4238552
L1I RFO       ACCESS:          0  HIT:          0  MISS:          0
L1I PREFETCH  ACCESS:          0  HIT:          0  MISS:          0
L1I WRITEBACK ACCESS:          0  HIT:          0  MISS:          0
L1I PREFETCH  REQUESTED:          0  ISSUED:          0  USEFUL:          0  USELESS:          0
L1I TOTAL MSHR MERGED:    1834577
L1I LOAD MSHR MERGED:    1834577
L1I RFO MSHR MERGED:          0
L1I PREFETCH MSHR MERGED:          0
L1I WRITEBACK MSHR MERGED:          0
L1I TOTAL ACCESSES:  128393701 HITS:  122320569 MISSES:    6073132
L1I LOAD ACCESSES:  128393701 HITS:  122320569 MISSES:    6073132
L1I RFO ACCESSES:          0 HITS:          0 MISSES:          0
L1I PREFETCH ACCESSES:          0 HITS:          0 MISSES:          0
L1I WRITEBACK ACCESSES:          0 HITS:          0 MISSES:          0
L1I RQ ACCESS:  500000057
L1I RQ TO_CACHE:  128393701
L1I RQ MERGED:  371606356
L1I RQ FORWARD:          0
L1I WQ ACCESS:          0
L1I WQ TO_CACHE:          0
L1I WQ MERGED:          0
L1I WQ FORWARD:          0
L2C TOTAL     ACCESS:   14904365  HIT:   11157978  MISS:    3746387
L2C LOAD      ACCESS:    7418882  HIT:    5098631  MISS:    2320251
L2C RFO       ACCESS:     878711  HIT:     409926  MISS:     468785
L2C PREFETCH  ACCESS:    4567531  HIT:    3627437  MISS:     940094
L2C WRITEBACK ACCESS:    2039241  HIT:    2021984  MISS:      17257
L2C PREFETCH  REQUESTED:     842772  ISSUED:     842772  USEFUL:     203096  USELESS:     736704
L2C TOTAL MSHR MERGED:       7858
L2C LOAD MSHR MERGED:       1045
L2C RFO MSHR MERGED:          0
L2C PREFETCH MSHR MERGED:       6813
L2C WRITEBACK MSHR MERGED:          0
L2C TOTAL ACCESSES:   14913219 HITS:   11158433 MISSES:    3754786
L2C LOAD ACCESSES:    7419090 HITS:    5098839 MISSES:    2320251
L2C RFO ACCESSES:     878812 HITS:     410027 MISSES:     468785
L2C PREFETCH ACCESSES:    4576076 HITS:    3627583 MISSES:     948493
L2C WRITEBACK ACCESSES:    2039241 HITS:    2021984 MISSES:      17257
L2C RQ ACCESS:    8297905
L2C RQ TO_CACHE:    8297596
L2C RQ MERGED:          0
L2C RQ FORWARD:          0
L2C WQ ACCESS:    2039241
L2C WQ TO_CACHE:    2039241
L2C WQ MERGED:          0
L2C WQ FORWARD:        455
LLC TOTAL     ACCESS:    4609737  HIT:    4013271  MISS:     596466
LLC LOAD      ACCESS:    2319194  HIT:    2068615  MISS:     250579
LLC RFO       ACCESS:     468773  HIT:     377514  MISS:      91259
LLC PREFETCH  ACCESS:     941526  HIT:     700380  MISS:     241146
LLC WRITEBACK ACCESS:     880244  HIT:     866762  MISS:      13482
LLC PREFETCH  REQUESTED:          0  ISSUED:          0  USEFUL:      36468  USELESS:     205498
LLC TOTAL MSHR MERGED:        135
LLC LOAD MSHR MERGED:         42
LLC RFO MSHR MERGED:          0
LLC PREFETCH MSHR MERGED:         93
LLC WRITEBACK MSHR MERGED:          0
LLC TOTAL ACCESSES:    4609906 HITS:    4013305 MISSES:     596601
LLC LOAD ACCESSES:    2319206 HITS:    2068627 MISSES:     250579
LLC RFO ACCESSES:     468785 HITS:     377526 MISSES:      91259
LLC PREFETCH ACCESSES:     941671 HITS:     700390 MISSES:     241281
LLC WRITEBACK ACCESSES:     880244 HITS:     866762 MISSES:      13482
LLC 0 RQ ACCESS:    2787991
LLC 0 RQ TO_CACHE:    2787967
LLC 0 RQ MERGED:          0
LLC 0 RQ FORWARD:          0
LLC WQ ACCESS:     880244
LLC WQ TO_CACHE:     880244
LLC WQ MERGED:          0
LLC WQ FORWARD:         34
Major fault: 0 Minor fault: 12862
CPU 0 L1D next line prefetcher final stats
CPU 0 L2C PC-based stride prefetcher final stats
All Misses: 703834
All Hits: 4722909
SD Algo Stats - Switches: 0 SRR-Repls: 292474 BRR-Repls: 0

DRAM Statistics
 CHANNEL 0
 RQ ROW_BUFFER_HIT:     123072  ROW_BUFFER_MISS:     457953
 DBUS_CONGESTED:     417594
 WQ ROW_BUFFER_HIT:      26259  ROW_BUFFER_MISS:     226081  FULL:          0

 AVG_CONGESTED_CYCLE: 13
LOADS RETIRED: 136549171
INSTR RETIRED: 500000000
