
*** ChampSim Multicore Out-of-Order Simulator ***

Warmup Instructions: 100000000
Simulation Instructions: 500000000
Number of CPUs: 1
LLC sets: 2048
LLC ways: 16
Clean RRIP Policies: 1222100312221003 Dirty RRIP Policies: 212200302122003 PSEL Width: 10 Track Set: 4294967295 PSEL Mask: 1 Demote Mask: 2230143322301433DS Algo: 0Window size: 0
Off-chip DRAM Size: 4096 MB Channels: 1 Width: 64-bit Data Rate: 1600 MT/s

CPU 0 runs /mnt/beegfs/iconst01/spec2017/Gcc.trace.gz
NOT SORTED
TRACE STRING: /mnt/beegfs/iconst01/spec2017/Gcc.trace.gz
SORTED
TRACE STRING: /mnt/beegfs/iconst01/spec2017/Gcc.trace.gz
INITIAL
TRACE STRING: /mnt/beegfs/iconst01/spec2017/Gcc.trace.gz

champsim_seed used: 269

CPU 0 L1D next line prefetcher
CPU 0 L2C IP-based stride prefetcher
Initialize DRRIP state
Assign rand_sets[0]: 454  LLC: 2048
rand_sets[0]: 454
Assign rand_sets[1]: 1662  LLC: 2048
rand_sets[1]: 1662
Assign rand_sets[2]: 1921  LLC: 2048
rand_sets[2]: 1921
Assign rand_sets[3]: 1131  LLC: 2048
rand_sets[3]: 1131
Assign rand_sets[4]: 331  LLC: 2048
rand_sets[4]: 331
Assign rand_sets[5]: 1531  LLC: 2048
rand_sets[5]: 1531
Assign rand_sets[6]: 482  LLC: 2048
rand_sets[6]: 482
Assign rand_sets[7]: 1275  LLC: 2048
rand_sets[7]: 1275
Assign rand_sets[8]: 1876  LLC: 2048
rand_sets[8]: 1876
Assign rand_sets[9]: 2038  LLC: 2048
rand_sets[9]: 2038
Assign rand_sets[10]: 701  LLC: 2048
rand_sets[10]: 701
Assign rand_sets[11]: 479  LLC: 2048
rand_sets[11]: 479
Assign rand_sets[12]: 892  LLC: 2048
rand_sets[12]: 892
Assign rand_sets[13]: 1820  LLC: 2048
rand_sets[13]: 1820
Assign rand_sets[14]: 1505  LLC: 2048
rand_sets[14]: 1505
Assign rand_sets[15]: 1159  LLC: 2048
rand_sets[15]: 1159
Assign rand_sets[16]: 513  LLC: 2048
rand_sets[16]: 513
Assign rand_sets[17]: 703  LLC: 2048
rand_sets[17]: 703
Assign rand_sets[18]: 561  LLC: 2048
rand_sets[18]: 561
Assign rand_sets[19]: 990  LLC: 2048
rand_sets[19]: 990
Assign rand_sets[20]: 342  LLC: 2048
rand_sets[20]: 342
Assign rand_sets[21]: 882  LLC: 2048
rand_sets[21]: 882
Assign rand_sets[22]: 15  LLC: 2048
rand_sets[22]: 15
Assign rand_sets[23]: 71  LLC: 2048
rand_sets[23]: 71
Assign rand_sets[24]: 1127  LLC: 2048
rand_sets[24]: 1127
Assign rand_sets[25]: 1382  LLC: 2048
rand_sets[25]: 1382
Assign rand_sets[26]: 647  LLC: 2048
rand_sets[26]: 647
Assign rand_sets[27]: 857  LLC: 2048
rand_sets[27]: 857
Assign rand_sets[28]: 1450  LLC: 2048
rand_sets[28]: 1450
Assign rand_sets[29]: 1160  LLC: 2048
rand_sets[29]: 1160
Assign rand_sets[30]: 1852  LLC: 2048
rand_sets[30]: 1852
Assign rand_sets[31]: 1881  LLC: 2048
rand_sets[31]: 1881
Assign rand_sets[32]: 1770  LLC: 2048
rand_sets[32]: 1770
Assign rand_sets[33]: 1622  LLC: 2048
rand_sets[33]: 1622
Assign rand_sets[34]: 275  LLC: 2048
rand_sets[34]: 275
Assign rand_sets[35]: 635  LLC: 2048
rand_sets[35]: 635
Assign rand_sets[36]: 466  LLC: 2048
rand_sets[36]: 466
Assign rand_sets[37]: 1413  LLC: 2048
rand_sets[37]: 1413
Assign rand_sets[38]: 417  LLC: 2048
rand_sets[38]: 417
Assign rand_sets[39]: 472  LLC: 2048
rand_sets[39]: 472
Assign rand_sets[40]: 1340  LLC: 2048
rand_sets[40]: 1340
Assign rand_sets[41]: 852  LLC: 2048
rand_sets[41]: 852
Assign rand_sets[42]: 1365  LLC: 2048
rand_sets[42]: 1365
Assign rand_sets[43]: 47  LLC: 2048
rand_sets[43]: 47
Assign rand_sets[44]: 823  LLC: 2048
rand_sets[44]: 823
Assign rand_sets[45]: 686  LLC: 2048
rand_sets[45]: 686
Assign rand_sets[46]: 1637  LLC: 2048
rand_sets[46]: 1637
Assign rand_sets[47]: 1115  LLC: 2048
rand_sets[47]: 1115
Assign rand_sets[48]: 986  LLC: 2048
rand_sets[48]: 986
Assign rand_sets[49]: 258  LLC: 2048
rand_sets[49]: 258
Assign rand_sets[50]: 633  LLC: 2048
rand_sets[50]: 633
Assign rand_sets[51]: 920  LLC: 2048
rand_sets[51]: 920
Assign rand_sets[52]: 204  LLC: 2048
rand_sets[52]: 204
Assign rand_sets[53]: 227  LLC: 2048
rand_sets[53]: 227
Assign rand_sets[54]: 1818  LLC: 2048
rand_sets[54]: 1818
Assign rand_sets[55]: 886  LLC: 2048
rand_sets[55]: 886
Assign rand_sets[56]: 1422  LLC: 2048
rand_sets[56]: 1422
Assign rand_sets[57]: 607  LLC: 2048
rand_sets[57]: 607
Assign rand_sets[58]: 217  LLC: 2048
rand_sets[58]: 217
Assign rand_sets[59]: 1945  LLC: 2048
rand_sets[59]: 1945
Assign rand_sets[60]: 143  LLC: 2048
rand_sets[60]: 143
Assign rand_sets[61]: 1311  LLC: 2048
rand_sets[61]: 1311
Assign rand_sets[62]: 319  LLC: 2048
rand_sets[62]: 319
Assign rand_sets[63]: 1846  LLC: 2048
rand_sets[63]: 1846
 CLEAN-RRIP-POLICY-1: 1-2-2-2-1-0-0-3- CLEAN-RRIP-POLICY-2: 1-2-2-2-1-0-0-3-
 DIRTY-RRIP-POLICY-1: 0-2-1-2-2-0-0-3- DIRTY-RRIP-POLICY-2: 0-2-1-2-2-0-0-3-
 PSEL width: 10
Heartbeat CPU 0 instructions: 10000001 cycles: 7320815 heartbeat IPC: 1.36597 cumulative IPC: 1.36597 (Simulation time: 0 hr 0 min 15 sec) 
Heartbeat CPU 0 instructions: 20000000 cycles: 14325307 heartbeat IPC: 1.42766 cumulative IPC: 1.39613 (Simulation time: 0 hr 0 min 30 sec) 
Heartbeat CPU 0 instructions: 30000001 cycles: 21041670 heartbeat IPC: 1.4889 cumulative IPC: 1.42574 (Simulation time: 0 hr 0 min 46 sec) 
Heartbeat CPU 0 instructions: 40000000 cycles: 27503463 heartbeat IPC: 1.54756 cumulative IPC: 1.45436 (Simulation time: 0 hr 1 min 2 sec) 
Heartbeat CPU 0 instructions: 50000001 cycles: 33606235 heartbeat IPC: 1.6386 cumulative IPC: 1.48782 (Simulation time: 0 hr 1 min 18 sec) 
Heartbeat CPU 0 instructions: 60000000 cycles: 40088364 heartbeat IPC: 1.5427 cumulative IPC: 1.49669 (Simulation time: 0 hr 1 min 34 sec) 
Heartbeat CPU 0 instructions: 70000000 cycles: 47131029 heartbeat IPC: 1.41992 cumulative IPC: 1.48522 (Simulation time: 0 hr 1 min 49 sec) 
Heartbeat CPU 0 instructions: 80000000 cycles: 54225868 heartbeat IPC: 1.40948 cumulative IPC: 1.47531 (Simulation time: 0 hr 2 min 4 sec) 
Heartbeat CPU 0 instructions: 90000003 cycles: 61235524 heartbeat IPC: 1.4266 cumulative IPC: 1.46974 (Simulation time: 0 hr 2 min 19 sec) 
Heartbeat CPU 0 instructions: 100000000 cycles: 68407839 heartbeat IPC: 1.39425 cumulative IPC: 1.46182 (Simulation time: 0 hr 2 min 33 sec) 

Warmup complete CPU 0 instructions: 100000004 cycles: 68407840 (Simulation time: 0 hr 2 min 33 sec) 

Heartbeat CPU 0 instructions: 110000003 cycles: 96771596 heartbeat IPC: 0.352563 cumulative IPC: 0.352563 (Simulation time: 0 hr 3 min 2 sec) 
Heartbeat CPU 0 instructions: 120000000 cycles: 124427850 heartbeat IPC: 0.361582 cumulative IPC: 0.357015 (Simulation time: 0 hr 3 min 32 sec) 
Heartbeat CPU 0 instructions: 130000000 cycles: 149647735 heartbeat IPC: 0.396513 cumulative IPC: 0.369277 (Simulation time: 0 hr 4 min 1 sec) 
Heartbeat CPU 0 instructions: 140000000 cycles: 180527382 heartbeat IPC: 0.323838 cumulative IPC: 0.356762 (Simulation time: 0 hr 4 min 30 sec) 
Heartbeat CPU 0 instructions: 150000000 cycles: 211236635 heartbeat IPC: 0.325635 cumulative IPC: 0.350069 (Simulation time: 0 hr 4 min 59 sec) 
Heartbeat CPU 0 instructions: 160000000 cycles: 238931868 heartbeat IPC: 0.361073 cumulative IPC: 0.351857 (Simulation time: 0 hr 5 min 27 sec) 
Heartbeat CPU 0 instructions: 170000001 cycles: 267283858 heartbeat IPC: 0.352709 cumulative IPC: 0.351978 (Simulation time: 0 hr 5 min 57 sec) 
Heartbeat CPU 0 instructions: 180000000 cycles: 296113560 heartbeat IPC: 0.346864 cumulative IPC: 0.351331 (Simulation time: 0 hr 6 min 27 sec) 
Heartbeat CPU 0 instructions: 190000002 cycles: 324606524 heartbeat IPC: 0.350964 cumulative IPC: 0.35129 (Simulation time: 0 hr 6 min 56 sec) 
Heartbeat CPU 0 instructions: 200000000 cycles: 353398183 heartbeat IPC: 0.347323 cumulative IPC: 0.350889 (Simulation time: 0 hr 7 min 26 sec) 
Heartbeat CPU 0 instructions: 210000002 cycles: 381703092 heartbeat IPC: 0.353296 cumulative IPC: 0.351106 (Simulation time: 0 hr 7 min 55 sec) 
Heartbeat CPU 0 instructions: 220000000 cycles: 412021288 heartbeat IPC: 0.329835 cumulative IPC: 0.34923 (Simulation time: 0 hr 8 min 23 sec) 
Heartbeat CPU 0 instructions: 230000000 cycles: 440059774 heartbeat IPC: 0.356653 cumulative IPC: 0.34979 (Simulation time: 0 hr 8 min 52 sec) 
Heartbeat CPU 0 instructions: 240000000 cycles: 466359803 heartbeat IPC: 0.380228 cumulative IPC: 0.351801 (Simulation time: 0 hr 9 min 19 sec) 
Heartbeat CPU 0 instructions: 250000000 cycles: 496651784 heartbeat IPC: 0.33012 cumulative IPC: 0.350268 (Simulation time: 0 hr 9 min 49 sec) 
Heartbeat CPU 0 instructions: 260000000 cycles: 523880408 heartbeat IPC: 0.367261 cumulative IPC: 0.351283 (Simulation time: 0 hr 10 min 18 sec) 
Heartbeat CPU 0 instructions: 270000003 cycles: 552549643 heartbeat IPC: 0.348806 cumulative IPC: 0.351137 (Simulation time: 0 hr 10 min 48 sec) 
Heartbeat CPU 0 instructions: 280000000 cycles: 581029930 heartbeat IPC: 0.35112 cumulative IPC: 0.351136 (Simulation time: 0 hr 11 min 18 sec) 
Heartbeat CPU 0 instructions: 290000000 cycles: 610196728 heartbeat IPC: 0.342856 cumulative IPC: 0.35069 (Simulation time: 0 hr 11 min 48 sec) 
Heartbeat CPU 0 instructions: 300000000 cycles: 641015270 heartbeat IPC: 0.32448 cumulative IPC: 0.349279 (Simulation time: 0 hr 12 min 17 sec) 
Heartbeat CPU 0 instructions: 310000001 cycles: 671016369 heartbeat IPC: 0.333321 cumulative IPC: 0.348485 (Simulation time: 0 hr 12 min 46 sec) 
Heartbeat CPU 0 instructions: 320000000 cycles: 699945311 heartbeat IPC: 0.345675 cumulative IPC: 0.348356 (Simulation time: 0 hr 13 min 14 sec) 
Heartbeat CPU 0 instructions: 330000000 cycles: 729086189 heartbeat IPC: 0.343161 cumulative IPC: 0.348127 (Simulation time: 0 hr 13 min 43 sec) 
Heartbeat CPU 0 instructions: 340000000 cycles: 758926914 heartbeat IPC: 0.335113 cumulative IPC: 0.347565 (Simulation time: 0 hr 14 min 12 sec) 
Heartbeat CPU 0 instructions: 350000003 cycles: 786330458 heartbeat IPC: 0.364916 cumulative IPC: 0.348227 (Simulation time: 0 hr 14 min 41 sec) 
Heartbeat CPU 0 instructions: 360000000 cycles: 816501547 heartbeat IPC: 0.331443 cumulative IPC: 0.34755 (Simulation time: 0 hr 15 min 9 sec) 
Heartbeat CPU 0 instructions: 370000000 cycles: 846761971 heartbeat IPC: 0.330465 cumulative IPC: 0.346886 (Simulation time: 0 hr 15 min 38 sec) 
Heartbeat CPU 0 instructions: 380000000 cycles: 877379952 heartbeat IPC: 0.326605 cumulative IPC: 0.346118 (Simulation time: 0 hr 16 min 6 sec) 
Heartbeat CPU 0 instructions: 390000001 cycles: 907128072 heartbeat IPC: 0.336156 cumulative IPC: 0.345765 (Simulation time: 0 hr 16 min 34 sec) 
Heartbeat CPU 0 instructions: 400000000 cycles: 937782665 heartbeat IPC: 0.326215 cumulative IPC: 0.345076 (Simulation time: 0 hr 17 min 3 sec) 
Heartbeat CPU 0 instructions: 410000001 cycles: 967249574 heartbeat IPC: 0.339364 cumulative IPC: 0.344888 (Simulation time: 0 hr 17 min 31 sec) 
Heartbeat CPU 0 instructions: 420000000 cycles: 996733754 heartbeat IPC: 0.339165 cumulative IPC: 0.344707 (Simulation time: 0 hr 17 min 59 sec) 
Heartbeat CPU 0 instructions: 430000002 cycles: 1026629342 heartbeat IPC: 0.334498 cumulative IPC: 0.344388 (Simulation time: 0 hr 18 min 27 sec) 
Heartbeat CPU 0 instructions: 440000000 cycles: 1057816547 heartbeat IPC: 0.320644 cumulative IPC: 0.34364 (Simulation time: 0 hr 18 min 56 sec) 
Heartbeat CPU 0 instructions: 450000002 cycles: 1088796687 heartbeat IPC: 0.322787 cumulative IPC: 0.343006 (Simulation time: 0 hr 19 min 24 sec) 
Heartbeat CPU 0 instructions: 460000000 cycles: 1118603314 heartbeat IPC: 0.335496 cumulative IPC: 0.342793 (Simulation time: 0 hr 19 min 52 sec) 
Heartbeat CPU 0 instructions: 470000000 cycles: 1148072252 heartbeat IPC: 0.33934 cumulative IPC: 0.342699 (Simulation time: 0 hr 20 min 20 sec) 
Heartbeat CPU 0 instructions: 480000000 cycles: 1177778799 heartbeat IPC: 0.336626 cumulative IPC: 0.342536 (Simulation time: 0 hr 20 min 48 sec) 
Heartbeat CPU 0 instructions: 490000000 cycles: 1207199735 heartbeat IPC: 0.339894 cumulative IPC: 0.342468 (Simulation time: 0 hr 21 min 16 sec) 
Heartbeat CPU 0 instructions: 500000000 cycles: 1237084094 heartbeat IPC: 0.334623 cumulative IPC: 0.342268 (Simulation time: 0 hr 21 min 44 sec) 
Heartbeat CPU 0 instructions: 510000000 cycles: 1272515805 heartbeat IPC: 0.282233 cumulative IPC: 0.340501 (Simulation time: 0 hr 22 min 15 sec) 
Heartbeat CPU 0 instructions: 520000000 cycles: 1300623421 heartbeat IPC: 0.355775 cumulative IPC: 0.340849 (Simulation time: 0 hr 22 min 43 sec) 
Heartbeat CPU 0 instructions: 530000001 cycles: 1331013607 heartbeat IPC: 0.329054 cumulative IPC: 0.340566 (Simulation time: 0 hr 23 min 12 sec) 
Heartbeat CPU 0 instructions: 540000000 cycles: 1359872443 heartbeat IPC: 0.346514 cumulative IPC: 0.340698 (Simulation time: 0 hr 23 min 41 sec) 
Heartbeat CPU 0 instructions: 550000001 cycles: 1389287228 heartbeat IPC: 0.339965 cumulative IPC: 0.340682 (Simulation time: 0 hr 24 min 11 sec) 
Heartbeat CPU 0 instructions: 560000000 cycles: 1414931792 heartbeat IPC: 0.389946 cumulative IPC: 0.34162 (Simulation time: 0 hr 24 min 38 sec) 
Heartbeat CPU 0 instructions: 570000000 cycles: 1445156769 heartbeat IPC: 0.330852 cumulative IPC: 0.341384 (Simulation time: 0 hr 25 min 7 sec) 
Heartbeat CPU 0 instructions: 580000000 cycles: 1473743399 heartbeat IPC: 0.349814 cumulative IPC: 0.341555 (Simulation time: 0 hr 25 min 36 sec) 
Heartbeat CPU 0 instructions: 590000001 cycles: 1498958397 heartbeat IPC: 0.396589 cumulative IPC: 0.342525 (Simulation time: 0 hr 26 min 3 sec) 
Heartbeat CPU 0 instructions: 600000000 cycles: 1525945765 heartbeat IPC: 0.370544 cumulative IPC: 0.343044 (Simulation time: 0 hr 26 min 31 sec) 
Finished CPU 0 instructions: 500000000 cycles: 1457537947 cumulative IPC: 0.343044 (Simulation time: 0 hr 26 min 31 sec) 

CPU 0 Branch Prediction Accuracy: 86.4311% MPKI: 26.2662
Number of Branches: 96788573 Number of Mispredictions: 13133102
Number of LOAD Instructions: 164682285
Number of LOAD Instructions (ROI): 164682285
Number of STORE Instructions: 78194750
Number of STORE Instructions (ROI): 78194750
Total Destination Memory Operands: 83268534
Total Destination Memory Operands (ROI): 83268534
Total Source Memory Operands: 164712438
Total Source Memory Operands (ROI): 164712438
Number of DEPENDED LOADS: 7061640
Number of DEPENDED LOADS (ROI): 7061640
Number of SQ_ADDED: 83268522
Number of SQ_ADDED (ROI): 83268522
Number of LQ_ADDED: 236300181
Number of LQ_ADDED (ROI): 236300181
Number of Instructions read from trace: 600000066

ChampSim completed all CPUs

Region of Interest Statistics

CPU 0 cumulative IPC: 0.343044 instructions: 500000000 cycles: 1457537947
ITLB TOTAL     ACCESS:  100510731  HIT:  100306285  MISS:     204446
ITLB LOAD      ACCESS:  100510731  HIT:  100306285  MISS:     204446
ITLB RFO       ACCESS:          0  HIT:          0  MISS:          0
ITLB PREFETCH  ACCESS:          0  HIT:          0  MISS:          0
ITLB WRITEBACK ACCESS:          0  HIT:          0  MISS:          0
ITLB PREFETCH  REQUESTED:          0  ISSUED:          0  USEFUL:          0  USELESS:          0
ITLB TOTAL MSHR MERGED:     172424
ITLB LOAD MSHR MERGED:     172424
ITLB RFO MSHR MERGED:          0
ITLB PREFETCH MSHR MERGED:          0
ITLB WRITEBACK MSHR MERGED:          0
ITLB TOTAL ACCESSES:  100683155 HITS:  100306285 MISSES:     376870
ITLB LOAD ACCESSES:  100683155 HITS:  100306285 MISSES:     376870
ITLB RFO ACCESSES:          0 HITS:          0 MISSES:          0
ITLB PREFETCH ACCESSES:          0 HITS:          0 MISSES:          0
ITLB WRITEBACK ACCESSES:          0 HITS:          0 MISSES:          0
ITLB RQ ACCESS:  500000057
ITLB RQ TO_CACHE:  100683155
ITLB RQ MERGED:  399316902
ITLB RQ FORWARD:          0
ITLB WQ ACCESS:          0
ITLB WQ TO_CACHE:          0
ITLB WQ MERGED:          0
ITLB WQ FORWARD:          0
DTLB TOTAL     ACCESS:  165346369  HIT:  164712017  MISS:     634352
DTLB LOAD      ACCESS:  106298009  HIT:  105727986  MISS:     570023
DTLB RFO       ACCESS:   59048360  HIT:   58984031  MISS:      64329
DTLB PREFETCH  ACCESS:          0  HIT:          0  MISS:          0
DTLB WRITEBACK ACCESS:          0  HIT:          0  MISS:          0
DTLB PREFETCH  REQUESTED:          0  ISSUED:          0  USEFUL:          0  USELESS:          0
DTLB TOTAL MSHR MERGED:      99699
DTLB LOAD MSHR MERGED:      59326
DTLB RFO MSHR MERGED:      40373
DTLB PREFETCH MSHR MERGED:          0
DTLB WRITEBACK MSHR MERGED:          0
DTLB TOTAL ACCESSES:  165446068 HITS:  164712017 MISSES:     734051
DTLB LOAD ACCESSES:  106357335 HITS:  105727986 MISSES:     629349
DTLB RFO ACCESSES:   59088733 HITS:   58984031 MISSES:     104702
DTLB PREFETCH ACCESSES:          0 HITS:          0 MISSES:          0
DTLB WRITEBACK ACCESSES:          0 HITS:          0 MISSES:          0
DTLB RQ ACCESS:  200309282
DTLB RQ TO_CACHE:  165446068
DTLB RQ MERGED:   34863214
DTLB RQ FORWARD:          0
DTLB WQ ACCESS:          0
DTLB WQ TO_CACHE:          0
DTLB WQ MERGED:          0
DTLB WQ FORWARD:          0
L1D TOTAL     ACCESS:  281883258  HIT:  273973761  MISS:    7909497
L1D LOAD      ACCESS:  110437207  HIT:  107162845  MISS:    3274362
L1D RFO       ACCESS:   67117164  HIT:   66226564  MISS:     890600
L1D PREFETCH  ACCESS:  104328887  HIT:  100584352  MISS:    3744535
L1D WRITEBACK ACCESS:          0  HIT:          0  MISS:          0
L1D PREFETCH  REQUESTED:  110824516  ISSUED:  109125019  USEFUL:    1665174  USELESS:    2079325
L1D TOTAL MSHR MERGED:    2841796
L1D LOAD MSHR MERGED:     481471
L1D RFO MSHR MERGED:    1868948
L1D PREFETCH MSHR MERGED:     491377
L1D WRITEBACK MSHR MERGED:          0
L1D TOTAL ACCESSES:  284752474 HITS:  274001181 MISSES:   10751293
L1D LOAD ACCESSES:  110825975 HITS:  107164304 MISSES:    3661671
L1D RFO ACCESSES:   68974236 HITS:   66226564 MISSES:    2747672
L1D PREFETCH ACCESSES:  104952263 HITS:  100610313 MISSES:    4341950
L1D WRITEBACK ACCESSES:          0 HITS:          0 MISSES:          0
L1D RQ ACCESS:  130756679
L1D RQ TO_CACHE:  110824519
L1D RQ MERGED:   19930701
L1D RQ FORWARD:          0
L1D WQ ACCESS:   69552603
L1D WQ TO_CACHE:   68974237
L1D WQ MERGED:     578366
L1D WQ FORWARD:      27420
L1I TOTAL     ACCESS:  126554997  HIT:  122316470  MISS:    4238527
L1I LOAD      ACCESS:  126554997  HIT:  122316470  MISS:    4238527
L1I RFO       ACCESS:          0  HIT:          0  MISS:          0
L1I PREFETCH  ACCESS:          0  HIT:          0  MISS:          0
L1I WRITEBACK ACCESS:          0  HIT:          0  MISS:          0
L1I PREFETCH  REQUESTED:          0  ISSUED:          0  USEFUL:          0  USELESS:          0
L1I TOTAL MSHR MERGED:    1837896
L1I LOAD MSHR MERGED:    1837896
L1I RFO MSHR MERGED:          0
L1I PREFETCH MSHR MERGED:          0
L1I WRITEBACK MSHR MERGED:          0
L1I TOTAL ACCESSES:  128392896 HITS:  122316470 MISSES:    6076426
L1I LOAD ACCESSES:  128392896 HITS:  122316470 MISSES:    6076426
L1I RFO ACCESSES:          0 HITS:          0 MISSES:          0
L1I PREFETCH ACCESSES:          0 HITS:          0 MISSES:          0
L1I WRITEBACK ACCESSES:          0 HITS:          0 MISSES:          0
L1I RQ ACCESS:  500000057
L1I RQ TO_CACHE:  128392896
L1I RQ MERGED:  371607161
L1I RQ FORWARD:          0
L1I WQ ACCESS:          0
L1I WQ TO_CACHE:          0
L1I WQ MERGED:          0
L1I WQ FORWARD:          0
L2C TOTAL     ACCESS:   14905121  HIT:   11158716  MISS:    3746405
L2C LOAD      ACCESS:    7418523  HIT:    5098651  MISS:    2319872
L2C RFO       ACCESS:     878630  HIT:     409968  MISS:     468662
L2C PREFETCH  ACCESS:    4568690  HIT:    3628080  MISS:     940610
L2C WRITEBACK ACCESS:    2039278  HIT:    2022017  MISS:      17261
L2C PREFETCH  REQUESTED:     842745  ISSUED:     842745  USEFUL:     203331  USELESS:     736985
L2C TOTAL MSHR MERGED:       7290
L2C LOAD MSHR MERGED:        877
L2C RFO MSHR MERGED:          0
L2C PREFETCH MSHR MERGED:       6413
L2C WRITEBACK MSHR MERGED:          0
L2C TOTAL ACCESSES:   14913342 HITS:   11159159 MISSES:    3754183
L2C LOAD ACCESSES:    7418727 HITS:    5098855 MISSES:    2319872
L2C RFO ACCESSES:     878724 HITS:     410062 MISSES:     468662
L2C PREFETCH ACCESSES:    4576613 HITS:    3628225 MISSES:     948388
L2C WRITEBACK ACCESSES:    2039278 HITS:    2022017 MISSES:      17261
L2C RQ ACCESS:    8297454
L2C RQ TO_CACHE:    8297156
L2C RQ MERGED:          0
L2C RQ FORWARD:          0
L2C WQ ACCESS:    2039278
L2C WQ TO_CACHE:    2039278
L2C WQ MERGED:          0
L2C WQ FORWARD:        443
LLC TOTAL     ACCESS:    4609735  HIT:    3480103  MISS:    1129632
LLC LOAD      ACCESS:    2318981  HIT:    1578182  MISS:     740799
LLC RFO       ACCESS:     468652  HIT:     397648  MISS:      71004
LLC PREFETCH  ACCESS:     941850  HIT:     702487  MISS:     239363
LLC WRITEBACK ACCESS:     880252  HIT:     801786  MISS:      78466
LLC PREFETCH  REQUESTED:          0  ISSUED:          0  USEFUL:      26891  USELESS:     211115
LLC TOTAL MSHR MERGED:        103
LLC LOAD MSHR MERGED:         39
LLC RFO MSHR MERGED:          0
LLC PREFETCH MSHR MERGED:         64
LLC WRITEBACK MSHR MERGED:          0
LLC TOTAL ACCESSES:    4609877 HITS:    3480142 MISSES:    1129735
LLC LOAD ACCESSES:    2318995 HITS:    1578196 MISSES:     740799
LLC RFO ACCESSES:     468662 HITS:     397658 MISSES:      71004
LLC PREFETCH ACCESSES:     941968 HITS:     702502 MISSES:     239466
LLC WRITEBACK ACCESSES:     880252 HITS:     801786 MISSES:      78466
LLC 0 RQ ACCESS:    2787657
LLC 0 RQ TO_CACHE:    2787633
LLC 0 RQ MERGED:          0
LLC 0 RQ FORWARD:          0
LLC WQ ACCESS:     880252
LLC WQ TO_CACHE:     880252
LLC WQ MERGED:          0
LLC WQ FORWARD:         39
Major fault: 0 Minor fault: 12862
CPU 0 L1D next line prefetcher final stats
CPU 0 L2C PC-based stride prefetcher final stats
All Misses: 1327864
All Hits: 4098875
SD Algo Stats - Switches: 0 SRR-Repls: 866799 BRR-Repls: 0

DRAM Statistics
 CHANNEL 0
 RQ ROW_BUFFER_HIT:     319058  ROW_BUFFER_MISS:     730483
 DBUS_CONGESTED:     467515
 WQ ROW_BUFFER_HIT:      16487  ROW_BUFFER_MISS:     218029  FULL:          0

 AVG_CONGESTED_CYCLE: 13
LOADS RETIRED: 136549171
INSTR RETIRED: 500000000
