
*** ChampSim Multicore Out-of-Order Simulator ***

Warmup Instructions: 100000000
Simulation Instructions: 500000000
Number of CPUs: 1
LLC sets: 2048
LLC ways: 16
Clean RRIP Policies: 2213230222132302 Dirty RRIP Policies: 1203130212031302 PSEL Width: 10 Track Set: 4294967295 PSEL Mask: 1 Demote Mask: 1040100310401003DS Algo: 0Window size: 0
Off-chip DRAM Size: 4096 MB Channels: 1 Width: 64-bit Data Rate: 1600 MT/s

CPU 0 runs /mnt/beegfs/iconst01/spec2017/Parest.trace.gz
NOT SORTED
TRACE STRING: /mnt/beegfs/iconst01/spec2017/Parest.trace.gz
SORTED
TRACE STRING: /mnt/beegfs/iconst01/spec2017/Parest.trace.gz
INITIAL
TRACE STRING: /mnt/beegfs/iconst01/spec2017/Parest.trace.gz

champsim_seed used: 623

CPU 0 L1D next line prefetcher
CPU 0 L2C IP-based stride prefetcher
Initialize DRRIP state
Assign rand_sets[0]: 454  LLC: 2048
rand_sets[0]: 454
Assign rand_sets[1]: 1662  LLC: 2048
rand_sets[1]: 1662
Assign rand_sets[2]: 1921  LLC: 2048
rand_sets[2]: 1921
Assign rand_sets[3]: 1131  LLC: 2048
rand_sets[3]: 1131
Assign rand_sets[4]: 331  LLC: 2048
rand_sets[4]: 331
Assign rand_sets[5]: 1531  LLC: 2048
rand_sets[5]: 1531
Assign rand_sets[6]: 482  LLC: 2048
rand_sets[6]: 482
Assign rand_sets[7]: 1275  LLC: 2048
rand_sets[7]: 1275
Assign rand_sets[8]: 1876  LLC: 2048
rand_sets[8]: 1876
Assign rand_sets[9]: 2038  LLC: 2048
rand_sets[9]: 2038
Assign rand_sets[10]: 701  LLC: 2048
rand_sets[10]: 701
Assign rand_sets[11]: 479  LLC: 2048
rand_sets[11]: 479
Assign rand_sets[12]: 892  LLC: 2048
rand_sets[12]: 892
Assign rand_sets[13]: 1820  LLC: 2048
rand_sets[13]: 1820
Assign rand_sets[14]: 1505  LLC: 2048
rand_sets[14]: 1505
Assign rand_sets[15]: 1159  LLC: 2048
rand_sets[15]: 1159
Assign rand_sets[16]: 513  LLC: 2048
rand_sets[16]: 513
Assign rand_sets[17]: 703  LLC: 2048
rand_sets[17]: 703
Assign rand_sets[18]: 561  LLC: 2048
rand_sets[18]: 561
Assign rand_sets[19]: 990  LLC: 2048
rand_sets[19]: 990
Assign rand_sets[20]: 342  LLC: 2048
rand_sets[20]: 342
Assign rand_sets[21]: 882  LLC: 2048
rand_sets[21]: 882
Assign rand_sets[22]: 15  LLC: 2048
rand_sets[22]: 15
Assign rand_sets[23]: 71  LLC: 2048
rand_sets[23]: 71
Assign rand_sets[24]: 1127  LLC: 2048
rand_sets[24]: 1127
Assign rand_sets[25]: 1382  LLC: 2048
rand_sets[25]: 1382
Assign rand_sets[26]: 647  LLC: 2048
rand_sets[26]: 647
Assign rand_sets[27]: 857  LLC: 2048
rand_sets[27]: 857
Assign rand_sets[28]: 1450  LLC: 2048
rand_sets[28]: 1450
Assign rand_sets[29]: 1160  LLC: 2048
rand_sets[29]: 1160
Assign rand_sets[30]: 1852  LLC: 2048
rand_sets[30]: 1852
Assign rand_sets[31]: 1881  LLC: 2048
rand_sets[31]: 1881
Assign rand_sets[32]: 1770  LLC: 2048
rand_sets[32]: 1770
Assign rand_sets[33]: 1622  LLC: 2048
rand_sets[33]: 1622
Assign rand_sets[34]: 275  LLC: 2048
rand_sets[34]: 275
Assign rand_sets[35]: 635  LLC: 2048
rand_sets[35]: 635
Assign rand_sets[36]: 466  LLC: 2048
rand_sets[36]: 466
Assign rand_sets[37]: 1413  LLC: 2048
rand_sets[37]: 1413
Assign rand_sets[38]: 417  LLC: 2048
rand_sets[38]: 417
Assign rand_sets[39]: 472  LLC: 2048
rand_sets[39]: 472
Assign rand_sets[40]: 1340  LLC: 2048
rand_sets[40]: 1340
Assign rand_sets[41]: 852  LLC: 2048
rand_sets[41]: 852
Assign rand_sets[42]: 1365  LLC: 2048
rand_sets[42]: 1365
Assign rand_sets[43]: 47  LLC: 2048
rand_sets[43]: 47
Assign rand_sets[44]: 823  LLC: 2048
rand_sets[44]: 823
Assign rand_sets[45]: 686  LLC: 2048
rand_sets[45]: 686
Assign rand_sets[46]: 1637  LLC: 2048
rand_sets[46]: 1637
Assign rand_sets[47]: 1115  LLC: 2048
rand_sets[47]: 1115
Assign rand_sets[48]: 986  LLC: 2048
rand_sets[48]: 986
Assign rand_sets[49]: 258  LLC: 2048
rand_sets[49]: 258
Assign rand_sets[50]: 633  LLC: 2048
rand_sets[50]: 633
Assign rand_sets[51]: 920  LLC: 2048
rand_sets[51]: 920
Assign rand_sets[52]: 204  LLC: 2048
rand_sets[52]: 204
Assign rand_sets[53]: 227  LLC: 2048
rand_sets[53]: 227
Assign rand_sets[54]: 1818  LLC: 2048
rand_sets[54]: 1818
Assign rand_sets[55]: 886  LLC: 2048
rand_sets[55]: 886
Assign rand_sets[56]: 1422  LLC: 2048
rand_sets[56]: 1422
Assign rand_sets[57]: 607  LLC: 2048
rand_sets[57]: 607
Assign rand_sets[58]: 217  LLC: 2048
rand_sets[58]: 217
Assign rand_sets[59]: 1945  LLC: 2048
rand_sets[59]: 1945
Assign rand_sets[60]: 143  LLC: 2048
rand_sets[60]: 143
Assign rand_sets[61]: 1311  LLC: 2048
rand_sets[61]: 1311
Assign rand_sets[62]: 319  LLC: 2048
rand_sets[62]: 319
Assign rand_sets[63]: 1846  LLC: 2048
rand_sets[63]: 1846
 CLEAN-RRIP-POLICY-1: 2-2-1-3-2-3-0-2- CLEAN-RRIP-POLICY-2: 2-2-1-3-2-3-0-2-
 DIRTY-RRIP-POLICY-1: 1-2-0-3-1-3-0-2- DIRTY-RRIP-POLICY-2: 1-2-0-3-1-3-0-2-
 PSEL width: 10
Heartbeat CPU 0 instructions: 10000001 cycles: 4387173 heartbeat IPC: 2.27937 cumulative IPC: 2.27937 (Simulation time: 0 hr 0 min 14 sec) 
Heartbeat CPU 0 instructions: 20000000 cycles: 8781534 heartbeat IPC: 2.27564 cumulative IPC: 2.27751 (Simulation time: 0 hr 0 min 28 sec) 
Heartbeat CPU 0 instructions: 30000003 cycles: 13213552 heartbeat IPC: 2.25631 cumulative IPC: 2.2704 (Simulation time: 0 hr 0 min 42 sec) 
Heartbeat CPU 0 instructions: 40000000 cycles: 17644270 heartbeat IPC: 2.25697 cumulative IPC: 2.26702 (Simulation time: 0 hr 0 min 56 sec) 
Heartbeat CPU 0 instructions: 50000000 cycles: 22052802 heartbeat IPC: 2.26833 cumulative IPC: 2.26729 (Simulation time: 0 hr 1 min 10 sec) 
Heartbeat CPU 0 instructions: 60000000 cycles: 26458859 heartbeat IPC: 2.2696 cumulative IPC: 2.26767 (Simulation time: 0 hr 1 min 23 sec) 
Heartbeat CPU 0 instructions: 70000000 cycles: 30859930 heartbeat IPC: 2.27217 cumulative IPC: 2.26831 (Simulation time: 0 hr 1 min 37 sec) 
Heartbeat CPU 0 instructions: 80000000 cycles: 35255678 heartbeat IPC: 2.27493 cumulative IPC: 2.26914 (Simulation time: 0 hr 1 min 51 sec) 
Heartbeat CPU 0 instructions: 90000000 cycles: 39650116 heartbeat IPC: 2.2756 cumulative IPC: 2.26985 (Simulation time: 0 hr 2 min 5 sec) 
Heartbeat CPU 0 instructions: 100000000 cycles: 44047580 heartbeat IPC: 2.27404 cumulative IPC: 2.27027 (Simulation time: 0 hr 2 min 19 sec) 

Warmup complete CPU 0 instructions: 100000002 cycles: 44047590 (Simulation time: 0 hr 2 min 19 sec) 

Heartbeat CPU 0 instructions: 110000000 cycles: 54015961 heartbeat IPC: 1.00317 cumulative IPC: 1.00317 (Simulation time: 0 hr 2 min 37 sec) 
Heartbeat CPU 0 instructions: 120000000 cycles: 63025726 heartbeat IPC: 1.10991 cumulative IPC: 1.05384 (Simulation time: 0 hr 2 min 54 sec) 
Heartbeat CPU 0 instructions: 130000000 cycles: 72092286 heartbeat IPC: 1.10295 cumulative IPC: 1.06972 (Simulation time: 0 hr 3 min 12 sec) 
Heartbeat CPU 0 instructions: 140000000 cycles: 81307279 heartbeat IPC: 1.08519 cumulative IPC: 1.07355 (Simulation time: 0 hr 3 min 29 sec) 
Heartbeat CPU 0 instructions: 150000000 cycles: 92372722 heartbeat IPC: 0.903714 cumulative IPC: 1.03466 (Simulation time: 0 hr 3 min 47 sec) 
Heartbeat CPU 0 instructions: 160000000 cycles: 102414727 heartbeat IPC: 0.995817 cumulative IPC: 1.02798 (Simulation time: 0 hr 4 min 5 sec) 
Heartbeat CPU 0 instructions: 170000000 cycles: 112216386 heartbeat IPC: 1.02024 cumulative IPC: 1.02686 (Simulation time: 0 hr 4 min 22 sec) 
Heartbeat CPU 0 instructions: 180000000 cycles: 121861234 heartbeat IPC: 1.03682 cumulative IPC: 1.0281 (Simulation time: 0 hr 4 min 40 sec) 
Heartbeat CPU 0 instructions: 190000002 cycles: 131644448 heartbeat IPC: 1.02216 cumulative IPC: 1.02743 (Simulation time: 0 hr 4 min 57 sec) 
Heartbeat CPU 0 instructions: 200000000 cycles: 140900336 heartbeat IPC: 1.08039 cumulative IPC: 1.0325 (Simulation time: 0 hr 5 min 15 sec) 
Heartbeat CPU 0 instructions: 210000000 cycles: 150542441 heartbeat IPC: 1.03712 cumulative IPC: 1.03291 (Simulation time: 0 hr 5 min 32 sec) 
Heartbeat CPU 0 instructions: 220000000 cycles: 159522600 heartbeat IPC: 1.11357 cumulative IPC: 1.03919 (Simulation time: 0 hr 5 min 50 sec) 
Heartbeat CPU 0 instructions: 230000001 cycles: 171714858 heartbeat IPC: 0.820193 cumulative IPC: 1.01827 (Simulation time: 0 hr 6 min 9 sec) 
Heartbeat CPU 0 instructions: 240000000 cycles: 182164548 heartbeat IPC: 0.956966 cumulative IPC: 1.01363 (Simulation time: 0 hr 6 min 26 sec) 
Heartbeat CPU 0 instructions: 250000002 cycles: 191991455 heartbeat IPC: 1.01761 cumulative IPC: 1.0139 (Simulation time: 0 hr 6 min 44 sec) 
Heartbeat CPU 0 instructions: 260000000 cycles: 201555310 heartbeat IPC: 1.0456 cumulative IPC: 1.01582 (Simulation time: 0 hr 7 min 1 sec) 
Heartbeat CPU 0 instructions: 270000001 cycles: 210965539 heartbeat IPC: 1.06267 cumulative IPC: 1.01846 (Simulation time: 0 hr 7 min 19 sec) 
Heartbeat CPU 0 instructions: 280000000 cycles: 220671658 heartbeat IPC: 1.03028 cumulative IPC: 1.01911 (Simulation time: 0 hr 7 min 36 sec) 
Heartbeat CPU 0 instructions: 290000002 cycles: 229766787 heartbeat IPC: 1.09949 cumulative IPC: 1.02305 (Simulation time: 0 hr 7 min 53 sec) 
Heartbeat CPU 0 instructions: 300000000 cycles: 239326850 heartbeat IPC: 1.04602 cumulative IPC: 1.02417 (Simulation time: 0 hr 8 min 11 sec) 
Heartbeat CPU 0 instructions: 310000000 cycles: 248358233 heartbeat IPC: 1.10725 cumulative IPC: 1.02785 (Simulation time: 0 hr 8 min 28 sec) 
Heartbeat CPU 0 instructions: 320000000 cycles: 257514389 heartbeat IPC: 1.09216 cumulative IPC: 1.03061 (Simulation time: 0 hr 8 min 46 sec) 
Heartbeat CPU 0 instructions: 330000002 cycles: 266831829 heartbeat IPC: 1.07326 cumulative IPC: 1.03239 (Simulation time: 0 hr 9 min 3 sec) 
Heartbeat CPU 0 instructions: 340000000 cycles: 276762267 heartbeat IPC: 1.007 cumulative IPC: 1.03131 (Simulation time: 0 hr 9 min 21 sec) 
Heartbeat CPU 0 instructions: 350000000 cycles: 287068137 heartbeat IPC: 0.970321 cumulative IPC: 1.02872 (Simulation time: 0 hr 9 min 39 sec) 
Heartbeat CPU 0 instructions: 360000000 cycles: 296811099 heartbeat IPC: 1.02638 cumulative IPC: 1.02863 (Simulation time: 0 hr 9 min 56 sec) 
Heartbeat CPU 0 instructions: 370000000 cycles: 306291850 heartbeat IPC: 1.05477 cumulative IPC: 1.02957 (Simulation time: 0 hr 10 min 13 sec) 
Heartbeat CPU 0 instructions: 380000000 cycles: 315609526 heartbeat IPC: 1.07323 cumulative IPC: 1.03107 (Simulation time: 0 hr 10 min 31 sec) 
Heartbeat CPU 0 instructions: 390000002 cycles: 324705401 heartbeat IPC: 1.0994 cumulative IPC: 1.03329 (Simulation time: 0 hr 10 min 48 sec) 
Heartbeat CPU 0 instructions: 400000000 cycles: 334216518 heartbeat IPC: 1.0514 cumulative IPC: 1.03388 (Simulation time: 0 hr 11 min 5 sec) 
Heartbeat CPU 0 instructions: 410000000 cycles: 343118245 heartbeat IPC: 1.12338 cumulative IPC: 1.03654 (Simulation time: 0 hr 11 min 23 sec) 
Heartbeat CPU 0 instructions: 420000000 cycles: 353977271 heartbeat IPC: 0.920893 cumulative IPC: 1.03249 (Simulation time: 0 hr 11 min 41 sec) 
Heartbeat CPU 0 instructions: 430000000 cycles: 364811849 heartbeat IPC: 0.922971 cumulative IPC: 1.02879 (Simulation time: 0 hr 11 min 59 sec) 
Heartbeat CPU 0 instructions: 440000000 cycles: 374672024 heartbeat IPC: 1.01418 cumulative IPC: 1.02836 (Simulation time: 0 hr 12 min 16 sec) 
Heartbeat CPU 0 instructions: 450000000 cycles: 384424622 heartbeat IPC: 1.02537 cumulative IPC: 1.02827 (Simulation time: 0 hr 12 min 33 sec) 
Heartbeat CPU 0 instructions: 460000000 cycles: 394134507 heartbeat IPC: 1.02988 cumulative IPC: 1.02832 (Simulation time: 0 hr 12 min 51 sec) 
Heartbeat CPU 0 instructions: 470000000 cycles: 403896924 heartbeat IPC: 1.02434 cumulative IPC: 1.02821 (Simulation time: 0 hr 13 min 8 sec) 
Heartbeat CPU 0 instructions: 480000000 cycles: 413113812 heartbeat IPC: 1.08496 cumulative IPC: 1.02963 (Simulation time: 0 hr 13 min 25 sec) 
Heartbeat CPU 0 instructions: 490000002 cycles: 422820151 heartbeat IPC: 1.03025 cumulative IPC: 1.02964 (Simulation time: 0 hr 13 min 43 sec) 
Heartbeat CPU 0 instructions: 500000000 cycles: 432126430 heartbeat IPC: 1.07454 cumulative IPC: 1.03072 (Simulation time: 0 hr 14 min 0 sec) 
Heartbeat CPU 0 instructions: 510000000 cycles: 441252773 heartbeat IPC: 1.09573 cumulative IPC: 1.03221 (Simulation time: 0 hr 14 min 17 sec) 
Heartbeat CPU 0 instructions: 520000000 cycles: 450660635 heartbeat IPC: 1.06294 cumulative IPC: 1.03292 (Simulation time: 0 hr 14 min 35 sec) 
Heartbeat CPU 0 instructions: 530000001 cycles: 460850341 heartbeat IPC: 0.981383 cumulative IPC: 1.03166 (Simulation time: 0 hr 14 min 53 sec) 
Heartbeat CPU 0 instructions: 540000000 cycles: 471322977 heartbeat IPC: 0.954869 cumulative IPC: 1.02978 (Simulation time: 0 hr 15 min 10 sec) 
Heartbeat CPU 0 instructions: 550000003 cycles: 481266279 heartbeat IPC: 1.0057 cumulative IPC: 1.02923 (Simulation time: 0 hr 15 min 27 sec) 
Heartbeat CPU 0 instructions: 560000000 cycles: 490941686 heartbeat IPC: 1.03355 cumulative IPC: 1.02933 (Simulation time: 0 hr 15 min 45 sec) 
Heartbeat CPU 0 instructions: 570000002 cycles: 500447569 heartbeat IPC: 1.05198 cumulative IPC: 1.0298 (Simulation time: 0 hr 16 min 2 sec) 
Heartbeat CPU 0 instructions: 580000000 cycles: 509729762 heartbeat IPC: 1.07733 cumulative IPC: 1.03075 (Simulation time: 0 hr 16 min 19 sec) 
Heartbeat CPU 0 instructions: 590000001 cycles: 519360714 heartbeat IPC: 1.03832 cumulative IPC: 1.0309 (Simulation time: 0 hr 16 min 37 sec) 
Heartbeat CPU 0 instructions: 600000000 cycles: 528568246 heartbeat IPC: 1.08607 cumulative IPC: 1.03195 (Simulation time: 0 hr 16 min 54 sec) 
Finished CPU 0 instructions: 500000000 cycles: 484520670 cumulative IPC: 1.03195 (Simulation time: 0 hr 16 min 54 sec) 

CPU 0 Branch Prediction Accuracy: 97.8526% MPKI: 2.66709
Number of Branches: 62099103 Number of Mispredictions: 1333545
Number of LOAD Instructions: 210576465
Number of LOAD Instructions (ROI): 210576465
Number of STORE Instructions: 16915507
Number of STORE Instructions (ROI): 16915507
Total Destination Memory Operands: 16918869
Total Destination Memory Operands (ROI): 16918869
Total Source Memory Operands: 210576465
Total Source Memory Operands (ROI): 210576465
Number of DEPENDED LOADS: 345506
Number of DEPENDED LOADS (ROI): 345506
Number of SQ_ADDED: 16918826
Number of SQ_ADDED (ROI): 16918826
Number of LQ_ADDED: 210605019
Number of LQ_ADDED (ROI): 210605019
Number of Instructions read from trace: 600000257

ChampSim completed all CPUs

Region of Interest Statistics

CPU 0 cumulative IPC: 1.03195 instructions: 500000000 cycles: 484520670
ITLB TOTAL     ACCESS:   76349965  HIT:   76349927  MISS:         38
ITLB LOAD      ACCESS:   76349965  HIT:   76349927  MISS:         38
ITLB RFO       ACCESS:          0  HIT:          0  MISS:          0
ITLB PREFETCH  ACCESS:          0  HIT:          0  MISS:          0
ITLB WRITEBACK ACCESS:          0  HIT:          0  MISS:          0
ITLB PREFETCH  REQUESTED:          0  ISSUED:          0  USEFUL:          0  USELESS:          0
ITLB TOTAL MSHR MERGED:         37
ITLB LOAD MSHR MERGED:         37
ITLB RFO MSHR MERGED:          0
ITLB PREFETCH MSHR MERGED:          0
ITLB WRITEBACK MSHR MERGED:          0
ITLB TOTAL ACCESSES:   76350002 HITS:   76349927 MISSES:         75
ITLB LOAD ACCESSES:   76350002 HITS:   76349927 MISSES:         75
ITLB RFO ACCESSES:          0 HITS:          0 MISSES:          0
ITLB PREFETCH ACCESSES:          0 HITS:          0 MISSES:          0
ITLB WRITEBACK ACCESSES:          0 HITS:          0 MISSES:          0
ITLB RQ ACCESS:  500000188
ITLB RQ TO_CACHE:   76350003
ITLB RQ MERGED:  423650185
ITLB RQ FORWARD:          0
ITLB WQ ACCESS:          0
ITLB WQ TO_CACHE:          0
ITLB WQ MERGED:          0
ITLB WQ FORWARD:          0
DTLB TOTAL     ACCESS:  136726950  HIT:  136524155  MISS:     202795
DTLB LOAD      ACCESS:  128664831  HIT:  128464757  MISS:     200074
DTLB RFO       ACCESS:    8062119  HIT:    8059398  MISS:       2721
DTLB PREFETCH  ACCESS:          0  HIT:          0  MISS:          0
DTLB WRITEBACK ACCESS:          0  HIT:          0  MISS:          0
DTLB PREFETCH  REQUESTED:          0  ISSUED:          0  USEFUL:          0  USELESS:          0
DTLB TOTAL MSHR MERGED:     447806
DTLB LOAD MSHR MERGED:     444076
DTLB RFO MSHR MERGED:       3730
DTLB PREFETCH MSHR MERGED:          0
DTLB WRITEBACK MSHR MERGED:          0
DTLB TOTAL ACCESSES:  137174756 HITS:  136524155 MISSES:     650601
DTLB LOAD ACCESSES:  129108907 HITS:  128464757 MISSES:     644150
DTLB RFO ACCESSES:    8065849 HITS:    8059398 MISSES:       6451
DTLB PREFETCH ACCESSES:          0 HITS:          0 MISSES:          0
DTLB WRITEBACK ACCESSES:          0 HITS:          0 MISSES:          0
DTLB RQ ACCESS:  189419056
DTLB RQ TO_CACHE:  137174756
DTLB RQ MERGED:   52244300
DTLB RQ FORWARD:          0
DTLB WQ ACCESS:          0
DTLB WQ TO_CACHE:          0
DTLB WQ MERGED:          0
DTLB WQ FORWARD:          0
L1D TOTAL     ACCESS:  125130909  HIT:  107573939  MISS:   17556970
L1D LOAD      ACCESS:   72245651  HIT:   61957272  MISS:   10288379
L1D RFO       ACCESS:   14013344  HIT:   13860506  MISS:     152838
L1D PREFETCH  ACCESS:   38871914  HIT:   31756161  MISS:    7115753
L1D WRITEBACK ACCESS:          0  HIT:          0  MISS:          0
L1D PREFETCH  REQUESTED:   85467694  ISSUED:   84147778  USEFUL:    5856349  USELESS:    1259415
L1D TOTAL MSHR MERGED:   31687901
L1D LOAD MSHR MERGED:   18397989
L1D RFO MSHR MERGED:     266997
L1D PREFETCH MSHR MERGED:   13022915
L1D WRITEBACK MSHR MERGED:          0
L1D TOTAL ACCESSES:  156819288 HITS:  107574418 MISSES:   49244870
L1D LOAD ACCESSES:   85467701 HITS:   61957279 MISSES:   23510422
L1D RFO ACCESSES:   14280310 HITS:   13860506 MISSES:     419804
L1D PREFETCH ACCESSES:   57071277 HITS:   31756633 MISSES:   25314644
L1D WRITEBACK ACCESSES:          0 HITS:          0 MISSES:          0
L1D RQ ACCESS:  175130034
L1D RQ TO_CACHE:   85467694
L1D RQ MERGED:   89662333
L1D RQ FORWARD:          0
L1D WQ ACCESS:   14289037
L1D WQ TO_CACHE:   14280310
L1D WQ MERGED:       8727
L1D WQ FORWARD:        479
L1I TOTAL     ACCESS:   93379020  HIT:   93377224  MISS:       1796
L1I LOAD      ACCESS:   93379020  HIT:   93377224  MISS:       1796
L1I RFO       ACCESS:          0  HIT:          0  MISS:          0
L1I PREFETCH  ACCESS:          0  HIT:          0  MISS:          0
L1I WRITEBACK ACCESS:          0  HIT:          0  MISS:          0
L1I PREFETCH  REQUESTED:          0  ISSUED:          0  USEFUL:          0  USELESS:          0
L1I TOTAL MSHR MERGED:       2332
L1I LOAD MSHR MERGED:       2332
L1I RFO MSHR MERGED:          0
L1I PREFETCH MSHR MERGED:          0
L1I WRITEBACK MSHR MERGED:          0
L1I TOTAL ACCESSES:   93381352 HITS:   93377224 MISSES:       4128
L1I LOAD ACCESSES:   93381352 HITS:   93377224 MISSES:       4128
L1I RFO ACCESSES:          0 HITS:          0 MISSES:          0
L1I PREFETCH ACCESSES:          0 HITS:          0 MISSES:          0
L1I WRITEBACK ACCESSES:          0 HITS:          0 MISSES:          0
L1I RQ ACCESS:  500000187
L1I RQ TO_CACHE:   93381352
L1I RQ MERGED:  406618835
L1I RQ FORWARD:          0
L1I WQ ACCESS:          0
L1I WQ TO_CACHE:          0
L1I WQ MERGED:          0
L1I WQ FORWARD:          0
L2C TOTAL     ACCESS:   20902071  HIT:    8672928  MISS:   12229143
L2C LOAD      ACCESS:    5114205  HIT:    2145485  MISS:    2968720
L2C RFO       ACCESS:     152807  HIT:       6516  MISS:     146291
L2C PREFETCH  ACCESS:   13862308  HIT:    4748286  MISS:    9114022
L2C WRITEBACK ACCESS:    1772751  HIT:    1772641  MISS:        110
L2C PREFETCH  REQUESTED:    1813785  ISSUED:    1813785  USEFUL:    1065963  USELESS:    8049723
L2C TOTAL MSHR MERGED:      98142
L2C LOAD MSHR MERGED:      22593
L2C RFO MSHR MERGED:          0
L2C PREFETCH MSHR MERGED:      75549
L2C WRITEBACK MSHR MERGED:          0
L2C TOTAL ACCESSES:   21024823 HITS:    8672971 MISSES:   12351852
L2C LOAD ACCESSES:    5114229 HITS:    2145509 MISSES:    2968720
L2C RFO ACCESSES:     152807 HITS:       6516 MISSES:     146291
L2C PREFETCH ACCESSES:   13985036 HITS:    4748305 MISSES:    9236731
L2C WRITEBACK ACCESSES:    1772751 HITS:    1772641 MISSES:        110
L2C RQ ACCESS:    5267036
L2C RQ TO_CACHE:    5267012
L2C RQ MERGED:          0
L2C RQ FORWARD:          0
L2C WQ ACCESS:    1772751
L2C WQ TO_CACHE:    1772751
L2C WQ MERGED:          0
L2C WQ FORWARD:         43
LLC TOTAL     ACCESS:   12534109  HIT:    6822314  MISS:    5711795
LLC LOAD      ACCESS:    2946109  HIT:    2496941  MISS:     449168
LLC RFO       ACCESS:     146291  HIT:      79186  MISS:      67105
LLC PREFETCH  ACCESS:    9155724  HIT:    4010786  MISS:    5144938
LLC WRITEBACK ACCESS:     285985  HIT:     235401  MISS:      50584
LLC PREFETCH  REQUESTED:          0  ISSUED:          0  USEFUL:       7384  USELESS:    5137425
LLC TOTAL MSHR MERGED:        864
LLC LOAD MSHR MERGED:        164
LLC RFO MSHR MERGED:          0
LLC PREFETCH MSHR MERGED:        700
LLC WRITEBACK MSHR MERGED:          0
LLC TOTAL ACCESSES:   12535005 HITS:    6822346 MISSES:    5712659
LLC LOAD ACCESSES:    2946127 HITS:    2496959 MISSES:     449168
LLC RFO ACCESSES:     146291 HITS:      79186 MISSES:      67105
LLC PREFETCH ACCESSES:    9156602 HITS:    4010800 MISSES:    5145802
LLC WRITEBACK ACCESSES:     285985 HITS:     235401 MISSES:      50584
LLC 0 RQ ACCESS:    3092418
LLC 0 RQ TO_CACHE:    3092400
LLC 0 RQ MERGED:          0
LLC 0 RQ FORWARD:          0
LLC WQ ACCESS:     285985
LLC WQ TO_CACHE:     285985
LLC WQ MERGED:          0
LLC WQ FORWARD:         32
Major fault: 0 Minor fault: 6524
CPU 0 L1D next line prefetcher final stats
CPU 0 L2C PC-based stride prefetcher final stats
All Misses: 7508322
All Hits: 7550801
SD Algo Stats - Switches: 0 SRR-Repls: 475893 BRR-Repls: 0

DRAM Statistics
 CHANNEL 0
 RQ ROW_BUFFER_HIT:    4859593  ROW_BUFFER_MISS:     794282
 DBUS_CONGESTED:    2036158
 WQ ROW_BUFFER_HIT:      14417  ROW_BUFFER_MISS:      70022  FULL:          0

 AVG_CONGESTED_CYCLE: 12
LOADS RETIRED: 175418235
INSTR RETIRED: 500000000
