
*** ChampSim Multicore Out-of-Order Simulator ***

Warmup Instructions: 100000000
Simulation Instructions: 500000000
Number of CPUs: 1
LLC sets: 2048
LLC ways: 16
Clean RRIP Policies: 2213230322132303 Dirty RRIP Policies: 2203130322031303 PSEL Width: 10 Track Set: 4294967295 PSEL Mask: 1 Demote Mask: 3044100030441000DS Algo: 0Window size: 0
Off-chip DRAM Size: 4096 MB Channels: 1 Width: 64-bit Data Rate: 1600 MT/s

CPU 0 runs /mnt/beegfs/iconst01/spec2017/Mcf.trace.gz
NOT SORTED
TRACE STRING: /mnt/beegfs/iconst01/spec2017/Mcf.trace.gz
SORTED
TRACE STRING: /mnt/beegfs/iconst01/spec2017/Mcf.trace.gz
INITIAL
TRACE STRING: /mnt/beegfs/iconst01/spec2017/Mcf.trace.gz

champsim_seed used: 278

CPU 0 L1D next line prefetcher
CPU 0 L2C IP-based stride prefetcher
Initialize DRRIP state
Assign rand_sets[0]: 454  LLC: 2048
rand_sets[0]: 454
Assign rand_sets[1]: 1662  LLC: 2048
rand_sets[1]: 1662
Assign rand_sets[2]: 1921  LLC: 2048
rand_sets[2]: 1921
Assign rand_sets[3]: 1131  LLC: 2048
rand_sets[3]: 1131
Assign rand_sets[4]: 331  LLC: 2048
rand_sets[4]: 331
Assign rand_sets[5]: 1531  LLC: 2048
rand_sets[5]: 1531
Assign rand_sets[6]: 482  LLC: 2048
rand_sets[6]: 482
Assign rand_sets[7]: 1275  LLC: 2048
rand_sets[7]: 1275
Assign rand_sets[8]: 1876  LLC: 2048
rand_sets[8]: 1876
Assign rand_sets[9]: 2038  LLC: 2048
rand_sets[9]: 2038
Assign rand_sets[10]: 701  LLC: 2048
rand_sets[10]: 701
Assign rand_sets[11]: 479  LLC: 2048
rand_sets[11]: 479
Assign rand_sets[12]: 892  LLC: 2048
rand_sets[12]: 892
Assign rand_sets[13]: 1820  LLC: 2048
rand_sets[13]: 1820
Assign rand_sets[14]: 1505  LLC: 2048
rand_sets[14]: 1505
Assign rand_sets[15]: 1159  LLC: 2048
rand_sets[15]: 1159
Assign rand_sets[16]: 513  LLC: 2048
rand_sets[16]: 513
Assign rand_sets[17]: 703  LLC: 2048
rand_sets[17]: 703
Assign rand_sets[18]: 561  LLC: 2048
rand_sets[18]: 561
Assign rand_sets[19]: 990  LLC: 2048
rand_sets[19]: 990
Assign rand_sets[20]: 342  LLC: 2048
rand_sets[20]: 342
Assign rand_sets[21]: 882  LLC: 2048
rand_sets[21]: 882
Assign rand_sets[22]: 15  LLC: 2048
rand_sets[22]: 15
Assign rand_sets[23]: 71  LLC: 2048
rand_sets[23]: 71
Assign rand_sets[24]: 1127  LLC: 2048
rand_sets[24]: 1127
Assign rand_sets[25]: 1382  LLC: 2048
rand_sets[25]: 1382
Assign rand_sets[26]: 647  LLC: 2048
rand_sets[26]: 647
Assign rand_sets[27]: 857  LLC: 2048
rand_sets[27]: 857
Assign rand_sets[28]: 1450  LLC: 2048
rand_sets[28]: 1450
Assign rand_sets[29]: 1160  LLC: 2048
rand_sets[29]: 1160
Assign rand_sets[30]: 1852  LLC: 2048
rand_sets[30]: 1852
Assign rand_sets[31]: 1881  LLC: 2048
rand_sets[31]: 1881
Assign rand_sets[32]: 1770  LLC: 2048
rand_sets[32]: 1770
Assign rand_sets[33]: 1622  LLC: 2048
rand_sets[33]: 1622
Assign rand_sets[34]: 275  LLC: 2048
rand_sets[34]: 275
Assign rand_sets[35]: 635  LLC: 2048
rand_sets[35]: 635
Assign rand_sets[36]: 466  LLC: 2048
rand_sets[36]: 466
Assign rand_sets[37]: 1413  LLC: 2048
rand_sets[37]: 1413
Assign rand_sets[38]: 417  LLC: 2048
rand_sets[38]: 417
Assign rand_sets[39]: 472  LLC: 2048
rand_sets[39]: 472
Assign rand_sets[40]: 1340  LLC: 2048
rand_sets[40]: 1340
Assign rand_sets[41]: 852  LLC: 2048
rand_sets[41]: 852
Assign rand_sets[42]: 1365  LLC: 2048
rand_sets[42]: 1365
Assign rand_sets[43]: 47  LLC: 2048
rand_sets[43]: 47
Assign rand_sets[44]: 823  LLC: 2048
rand_sets[44]: 823
Assign rand_sets[45]: 686  LLC: 2048
rand_sets[45]: 686
Assign rand_sets[46]: 1637  LLC: 2048
rand_sets[46]: 1637
Assign rand_sets[47]: 1115  LLC: 2048
rand_sets[47]: 1115
Assign rand_sets[48]: 986  LLC: 2048
rand_sets[48]: 986
Assign rand_sets[49]: 258  LLC: 2048
rand_sets[49]: 258
Assign rand_sets[50]: 633  LLC: 2048
rand_sets[50]: 633
Assign rand_sets[51]: 920  LLC: 2048
rand_sets[51]: 920
Assign rand_sets[52]: 204  LLC: 2048
rand_sets[52]: 204
Assign rand_sets[53]: 227  LLC: 2048
rand_sets[53]: 227
Assign rand_sets[54]: 1818  LLC: 2048
rand_sets[54]: 1818
Assign rand_sets[55]: 886  LLC: 2048
rand_sets[55]: 886
Assign rand_sets[56]: 1422  LLC: 2048
rand_sets[56]: 1422
Assign rand_sets[57]: 607  LLC: 2048
rand_sets[57]: 607
Assign rand_sets[58]: 217  LLC: 2048
rand_sets[58]: 217
Assign rand_sets[59]: 1945  LLC: 2048
rand_sets[59]: 1945
Assign rand_sets[60]: 143  LLC: 2048
rand_sets[60]: 143
Assign rand_sets[61]: 1311  LLC: 2048
rand_sets[61]: 1311
Assign rand_sets[62]: 319  LLC: 2048
rand_sets[62]: 319
Assign rand_sets[63]: 1846  LLC: 2048
rand_sets[63]: 1846
 CLEAN-RRIP-POLICY-1: 2-2-1-3-2-3-0-3- CLEAN-RRIP-POLICY-2: 2-2-1-3-2-3-0-3-
 DIRTY-RRIP-POLICY-1: 2-2-0-3-1-3-0-3- DIRTY-RRIP-POLICY-2: 2-2-0-3-1-3-0-3-
 PSEL width: 10
Heartbeat CPU 0 instructions: 10000002 cycles: 6266273 heartbeat IPC: 1.59585 cumulative IPC: 1.59585 (Simulation time: 0 hr 0 min 13 sec) 
Heartbeat CPU 0 instructions: 20000000 cycles: 12503870 heartbeat IPC: 1.60318 cumulative IPC: 1.5995 (Simulation time: 0 hr 0 min 26 sec) 
Heartbeat CPU 0 instructions: 30000000 cycles: 18730472 heartbeat IPC: 1.60601 cumulative IPC: 1.60167 (Simulation time: 0 hr 0 min 39 sec) 
Heartbeat CPU 0 instructions: 40000000 cycles: 24953706 heartbeat IPC: 1.60688 cumulative IPC: 1.60297 (Simulation time: 0 hr 0 min 52 sec) 
Heartbeat CPU 0 instructions: 50000003 cycles: 31178511 heartbeat IPC: 1.60648 cumulative IPC: 1.60367 (Simulation time: 0 hr 1 min 5 sec) 
Heartbeat CPU 0 instructions: 60000000 cycles: 37384921 heartbeat IPC: 1.61124 cumulative IPC: 1.60493 (Simulation time: 0 hr 1 min 18 sec) 
Heartbeat CPU 0 instructions: 70000003 cycles: 43613298 heartbeat IPC: 1.60556 cumulative IPC: 1.60502 (Simulation time: 0 hr 1 min 31 sec) 
Heartbeat CPU 0 instructions: 80000000 cycles: 49852197 heartbeat IPC: 1.60285 cumulative IPC: 1.60474 (Simulation time: 0 hr 1 min 44 sec) 
Heartbeat CPU 0 instructions: 90000000 cycles: 56089108 heartbeat IPC: 1.60336 cumulative IPC: 1.60459 (Simulation time: 0 hr 1 min 57 sec) 
Heartbeat CPU 0 instructions: 100000000 cycles: 62315956 heartbeat IPC: 1.60595 cumulative IPC: 1.60473 (Simulation time: 0 hr 2 min 10 sec) 

Warmup complete CPU 0 instructions: 100000001 cycles: 62315957 (Simulation time: 0 hr 2 min 10 sec) 

Heartbeat CPU 0 instructions: 110000000 cycles: 89252250 heartbeat IPC: 0.371246 cumulative IPC: 0.371246 (Simulation time: 0 hr 2 min 36 sec) 
Heartbeat CPU 0 instructions: 120000000 cycles: 116087683 heartbeat IPC: 0.372642 cumulative IPC: 0.371943 (Simulation time: 0 hr 3 min 2 sec) 
Heartbeat CPU 0 instructions: 130000000 cycles: 142908638 heartbeat IPC: 0.372843 cumulative IPC: 0.372242 (Simulation time: 0 hr 3 min 28 sec) 
Heartbeat CPU 0 instructions: 140000000 cycles: 169569464 heartbeat IPC: 0.375082 cumulative IPC: 0.372948 (Simulation time: 0 hr 3 min 53 sec) 
Heartbeat CPU 0 instructions: 150000003 cycles: 196026655 heartbeat IPC: 0.377969 cumulative IPC: 0.373942 (Simulation time: 0 hr 4 min 19 sec) 
Heartbeat CPU 0 instructions: 160000000 cycles: 222729641 heartbeat IPC: 0.37449 cumulative IPC: 0.374033 (Simulation time: 0 hr 4 min 45 sec) 
Heartbeat CPU 0 instructions: 170000001 cycles: 249203034 heartbeat IPC: 0.377738 cumulative IPC: 0.374558 (Simulation time: 0 hr 5 min 11 sec) 
Heartbeat CPU 0 instructions: 180000000 cycles: 275620872 heartbeat IPC: 0.378532 cumulative IPC: 0.37505 (Simulation time: 0 hr 5 min 37 sec) 
Heartbeat CPU 0 instructions: 190000003 cycles: 301936256 heartbeat IPC: 0.380006 cumulative IPC: 0.375594 (Simulation time: 0 hr 6 min 3 sec) 
Heartbeat CPU 0 instructions: 200000000 cycles: 328283892 heartbeat IPC: 0.379541 cumulative IPC: 0.375985 (Simulation time: 0 hr 6 min 29 sec) 
Heartbeat CPU 0 instructions: 210000003 cycles: 354664072 heartbeat IPC: 0.379073 cumulative IPC: 0.376264 (Simulation time: 0 hr 6 min 55 sec) 
Heartbeat CPU 0 instructions: 220000000 cycles: 381259405 heartbeat IPC: 0.376006 cumulative IPC: 0.376242 (Simulation time: 0 hr 7 min 21 sec) 
Heartbeat CPU 0 instructions: 230000002 cycles: 407384107 heartbeat IPC: 0.38278 cumulative IPC: 0.376737 (Simulation time: 0 hr 7 min 46 sec) 
Heartbeat CPU 0 instructions: 240000000 cycles: 433851707 heartbeat IPC: 0.37782 cumulative IPC: 0.376814 (Simulation time: 0 hr 8 min 12 sec) 
Heartbeat CPU 0 instructions: 250000000 cycles: 460113938 heartbeat IPC: 0.380775 cumulative IPC: 0.377076 (Simulation time: 0 hr 8 min 38 sec) 
Heartbeat CPU 0 instructions: 260000000 cycles: 486270053 heartbeat IPC: 0.38232 cumulative IPC: 0.377399 (Simulation time: 0 hr 9 min 4 sec) 
Heartbeat CPU 0 instructions: 270000001 cycles: 512532358 heartbeat IPC: 0.380774 cumulative IPC: 0.377596 (Simulation time: 0 hr 9 min 30 sec) 
Heartbeat CPU 0 instructions: 280000000 cycles: 538648689 heartbeat IPC: 0.382902 cumulative IPC: 0.377887 (Simulation time: 0 hr 9 min 56 sec) 
Heartbeat CPU 0 instructions: 290000001 cycles: 564843575 heartbeat IPC: 0.381754 cumulative IPC: 0.378089 (Simulation time: 0 hr 10 min 21 sec) 
Heartbeat CPU 0 instructions: 300000000 cycles: 591222639 heartbeat IPC: 0.379088 cumulative IPC: 0.378139 (Simulation time: 0 hr 10 min 47 sec) 
Heartbeat CPU 0 instructions: 310000003 cycles: 617210170 heartbeat IPC: 0.3848 cumulative IPC: 0.378451 (Simulation time: 0 hr 11 min 13 sec) 
Heartbeat CPU 0 instructions: 320000000 cycles: 643525278 heartbeat IPC: 0.38001 cumulative IPC: 0.378521 (Simulation time: 0 hr 11 min 39 sec) 
Heartbeat CPU 0 instructions: 330000003 cycles: 669500945 heartbeat IPC: 0.384976 cumulative IPC: 0.378797 (Simulation time: 0 hr 12 min 5 sec) 
Heartbeat CPU 0 instructions: 340000000 cycles: 695826138 heartbeat IPC: 0.379864 cumulative IPC: 0.378842 (Simulation time: 0 hr 12 min 31 sec) 
Heartbeat CPU 0 instructions: 350000002 cycles: 722137058 heartbeat IPC: 0.38007 cumulative IPC: 0.378891 (Simulation time: 0 hr 12 min 56 sec) 
Heartbeat CPU 0 instructions: 360000000 cycles: 748579538 heartbeat IPC: 0.378179 cumulative IPC: 0.378863 (Simulation time: 0 hr 13 min 22 sec) 
Heartbeat CPU 0 instructions: 370000000 cycles: 774770584 heartbeat IPC: 0.38181 cumulative IPC: 0.378971 (Simulation time: 0 hr 13 min 47 sec) 
Heartbeat CPU 0 instructions: 380000000 cycles: 800761195 heartbeat IPC: 0.384754 cumulative IPC: 0.379175 (Simulation time: 0 hr 14 min 13 sec) 
Heartbeat CPU 0 instructions: 390000002 cycles: 826721646 heartbeat IPC: 0.385201 cumulative IPC: 0.37938 (Simulation time: 0 hr 14 min 38 sec) 
Heartbeat CPU 0 instructions: 400000000 cycles: 852905204 heartbeat IPC: 0.381919 cumulative IPC: 0.379464 (Simulation time: 0 hr 15 min 4 sec) 
Heartbeat CPU 0 instructions: 410000002 cycles: 878903489 heartbeat IPC: 0.384641 cumulative IPC: 0.379629 (Simulation time: 0 hr 15 min 29 sec) 
Heartbeat CPU 0 instructions: 420000000 cycles: 904604326 heartbeat IPC: 0.389092 cumulative IPC: 0.379917 (Simulation time: 0 hr 15 min 55 sec) 
Heartbeat CPU 0 instructions: 430000000 cycles: 930616493 heartbeat IPC: 0.384435 cumulative IPC: 0.380053 (Simulation time: 0 hr 16 min 20 sec) 
Heartbeat CPU 0 instructions: 440000000 cycles: 956255803 heartbeat IPC: 0.390026 cumulative IPC: 0.380339 (Simulation time: 0 hr 16 min 45 sec) 
Heartbeat CPU 0 instructions: 450000000 cycles: 982576778 heartbeat IPC: 0.379925 cumulative IPC: 0.380327 (Simulation time: 0 hr 17 min 12 sec) 
Heartbeat CPU 0 instructions: 460000000 cycles: 1008791059 heartbeat IPC: 0.381471 cumulative IPC: 0.380359 (Simulation time: 0 hr 17 min 38 sec) 
Heartbeat CPU 0 instructions: 470000001 cycles: 1034733102 heartbeat IPC: 0.385475 cumulative IPC: 0.380495 (Simulation time: 0 hr 18 min 4 sec) 
Heartbeat CPU 0 instructions: 480000000 cycles: 1060904779 heartbeat IPC: 0.382092 cumulative IPC: 0.380537 (Simulation time: 0 hr 18 min 30 sec) 
Heartbeat CPU 0 instructions: 490000000 cycles: 1087200939 heartbeat IPC: 0.380284 cumulative IPC: 0.380531 (Simulation time: 0 hr 18 min 57 sec) 
Heartbeat CPU 0 instructions: 500000000 cycles: 1113889205 heartbeat IPC: 0.374696 cumulative IPC: 0.380382 (Simulation time: 0 hr 19 min 23 sec) 
Heartbeat CPU 0 instructions: 510000003 cycles: 1140394417 heartbeat IPC: 0.377284 cumulative IPC: 0.380306 (Simulation time: 0 hr 19 min 49 sec) 
Heartbeat CPU 0 instructions: 520000000 cycles: 1167018768 heartbeat IPC: 0.375596 cumulative IPC: 0.380193 (Simulation time: 0 hr 20 min 15 sec) 
Heartbeat CPU 0 instructions: 530000003 cycles: 1193702589 heartbeat IPC: 0.374759 cumulative IPC: 0.380065 (Simulation time: 0 hr 20 min 41 sec) 
Heartbeat CPU 0 instructions: 540000000 cycles: 1220254995 heartbeat IPC: 0.376614 cumulative IPC: 0.379985 (Simulation time: 0 hr 21 min 8 sec) 
Heartbeat CPU 0 instructions: 550000000 cycles: 1246817279 heartbeat IPC: 0.376474 cumulative IPC: 0.379907 (Simulation time: 0 hr 21 min 34 sec) 
Heartbeat CPU 0 instructions: 560000000 cycles: 1273767886 heartbeat IPC: 0.371049 cumulative IPC: 0.37971 (Simulation time: 0 hr 22 min 0 sec) 
Heartbeat CPU 0 instructions: 570000001 cycles: 1300672201 heartbeat IPC: 0.371688 cumulative IPC: 0.379535 (Simulation time: 0 hr 22 min 27 sec) 
Heartbeat CPU 0 instructions: 580000000 cycles: 1327527426 heartbeat IPC: 0.372367 cumulative IPC: 0.379383 (Simulation time: 0 hr 22 min 53 sec) 
Heartbeat CPU 0 instructions: 590000000 cycles: 1354597102 heartbeat IPC: 0.369417 cumulative IPC: 0.379174 (Simulation time: 0 hr 23 min 19 sec) 
Heartbeat CPU 0 instructions: 600000000 cycles: 1381834364 heartbeat IPC: 0.367144 cumulative IPC: 0.378926 (Simulation time: 0 hr 23 min 46 sec) 
Finished CPU 0 instructions: 500000003 cycles: 1319518420 cumulative IPC: 0.378926 (Simulation time: 0 hr 23 min 46 sec) 

CPU 0 Branch Prediction Accuracy: 91.1342% MPKI: 18.7968
Number of Branches: 106006945 Number of Mispredictions: 9398408
Number of LOAD Instructions: 207894007
Number of LOAD Instructions (ROI): 207894007
Number of STORE Instructions: 54285997
Number of STORE Instructions (ROI): 54285997
Total Destination Memory Operands: 57463404
Total Destination Memory Operands (ROI): 57463404
Total Source Memory Operands: 207894007
Total Source Memory Operands (ROI): 207894007
Number of DEPENDED LOADS: 18169943
Number of DEPENDED LOADS (ROI): 18169943
Number of SQ_ADDED: 57463404
Number of SQ_ADDED (ROI): 57463404
Number of LQ_ADDED: 209996442
Number of LQ_ADDED (ROI): 209996442
Number of Instructions read from trace: 600000039

ChampSim completed all CPUs

Region of Interest Statistics

CPU 0 cumulative IPC: 0.378926 instructions: 500000003 cycles: 1319518420
ITLB TOTAL     ACCESS:   96448565  HIT:   96448565  MISS:          0
ITLB LOAD      ACCESS:   96448565  HIT:   96448565  MISS:          0
ITLB RFO       ACCESS:          0  HIT:          0  MISS:          0
ITLB PREFETCH  ACCESS:          0  HIT:          0  MISS:          0
ITLB WRITEBACK ACCESS:          0  HIT:          0  MISS:          0
ITLB PREFETCH  REQUESTED:          0  ISSUED:          0  USEFUL:          0  USELESS:          0
ITLB TOTAL MSHR MERGED:          0
ITLB LOAD MSHR MERGED:          0
ITLB RFO MSHR MERGED:          0
ITLB PREFETCH MSHR MERGED:          0
ITLB WRITEBACK MSHR MERGED:          0
ITLB TOTAL ACCESSES:   96448565 HITS:   96448565 MISSES:          0
ITLB LOAD ACCESSES:   96448565 HITS:   96448565 MISSES:          0
ITLB RFO ACCESSES:          0 HITS:          0 MISSES:          0
ITLB PREFETCH ACCESSES:          0 HITS:          0 MISSES:          0
ITLB WRITEBACK ACCESSES:          0 HITS:          0 MISSES:          0
ITLB RQ ACCESS:  499999980
ITLB RQ TO_CACHE:   96448565
ITLB RQ MERGED:  403551415
ITLB RQ FORWARD:          0
ITLB WQ ACCESS:          0
ITLB WQ TO_CACHE:          0
ITLB WQ MERGED:          0
ITLB WQ FORWARD:          0
DTLB TOTAL     ACCESS:  155126455  HIT:  150214325  MISS:    4912130
DTLB LOAD      ACCESS:  117680380  HIT:  113289897  MISS:    4390483
DTLB RFO       ACCESS:   37446075  HIT:   36924428  MISS:     521647
DTLB PREFETCH  ACCESS:          0  HIT:          0  MISS:          0
DTLB WRITEBACK ACCESS:          0  HIT:          0  MISS:          0
DTLB PREFETCH  REQUESTED:          0  ISSUED:          0  USEFUL:          0  USELESS:          0
DTLB TOTAL MSHR MERGED:     451953
DTLB LOAD MSHR MERGED:     160423
DTLB RFO MSHR MERGED:     291530
DTLB PREFETCH MSHR MERGED:          0
DTLB WRITEBACK MSHR MERGED:          0
DTLB TOTAL ACCESSES:  155578408 HITS:  150214325 MISSES:    5364083
DTLB LOAD ACCESSES:  117840803 HITS:  113289897 MISSES:    4550906
DTLB RFO ACCESSES:   37737605 HITS:   36924428 MISSES:     813177
DTLB PREFETCH ACCESSES:          0 HITS:          0 MISSES:          0
DTLB WRITEBACK ACCESSES:          0 HITS:          0 MISSES:          0
DTLB RQ ACCESS:  205914105
DTLB RQ TO_CACHE:  155578408
DTLB RQ MERGED:   50335697
DTLB RQ FORWARD:          0
DTLB WQ ACCESS:          0
DTLB WQ TO_CACHE:          0
DTLB WQ MERGED:          0
DTLB WQ FORWARD:          0
L1D TOTAL     ACCESS:  277137305  HIT:  242314679  MISS:   34822626
L1D LOAD      ACCESS:  125377786  HIT:  107774559  MISS:   17603227
L1D RFO       ACCESS:   41129580  HIT:   38817759  MISS:    2311821
L1D PREFETCH  ACCESS:  110629939  HIT:   95722361  MISS:   14907578
L1D WRITEBACK ACCESS:          0  HIT:          0  MISS:          0
L1D PREFETCH  REQUESTED:  126237729  ISSUED:  124718289  USEFUL:    2740982  USELESS:   12166621
L1D TOTAL MSHR MERGED:    8499009
L1D LOAD MSHR MERGED:    1543362
L1D RFO MSHR MERGED:    3765638
L1D PREFETCH MSHR MERGED:    3190009
L1D WRITEBACK MSHR MERGED:          0
L1D TOTAL ACCESSES:  285722925 HITS:  242401289 MISSES:   43321636
L1D LOAD ACCESSES:  126237760 HITS:  107774590 MISSES:   18463170
L1D RFO ACCESSES:   44894728 HITS:   38817759 MISSES:    6076969
L1D PREFETCH ACCESSES:  114590437 HITS:   95808940 MISSES:   18781497
L1D WRITEBACK ACCESSES:          0 HITS:          0 MISSES:          0
L1D RQ ACCESS:  158367224
L1D RQ TO_CACHE:  126237729
L1D RQ MERGED:   32129464
L1D RQ FORWARD:          0
L1D WQ ACCESS:   47546882
L1D WQ TO_CACHE:   44894728
L1D WQ MERGED:    2652154
L1D WQ FORWARD:      86610
L1I TOTAL     ACCESS:  132845255  HIT:  132845255  MISS:          0
L1I LOAD      ACCESS:  132845255  HIT:  132845255  MISS:          0
L1I RFO       ACCESS:          0  HIT:          0  MISS:          0
L1I PREFETCH  ACCESS:          0  HIT:          0  MISS:          0
L1I WRITEBACK ACCESS:          0  HIT:          0  MISS:          0
L1I PREFETCH  REQUESTED:          0  ISSUED:          0  USEFUL:          0  USELESS:          0
L1I TOTAL MSHR MERGED:          0
L1I LOAD MSHR MERGED:          0
L1I RFO MSHR MERGED:          0
L1I PREFETCH MSHR MERGED:          0
L1I WRITEBACK MSHR MERGED:          0
L1I TOTAL ACCESSES:  132845255 HITS:  132845255 MISSES:          0
L1I LOAD ACCESSES:  132845255 HITS:  132845255 MISSES:          0
L1I RFO ACCESSES:          0 HITS:          0 MISSES:          0
L1I PREFETCH ACCESSES:          0 HITS:          0 MISSES:          0
L1I WRITEBACK ACCESSES:          0 HITS:          0 MISSES:          0
L1I RQ ACCESS:  499999980
L1I RQ TO_CACHE:  132845255
L1I RQ MERGED:  367154725
L1I RQ FORWARD:          0
L1I WQ ACCESS:          0
L1I WQ TO_CACHE:          0
L1I WQ MERGED:          0
L1I WQ FORWARD:          0
L2C TOTAL     ACCESS:   39593119  HIT:   20623769  MISS:   18969350
L2C LOAD      ACCESS:   16919755  HIT:    8567763  MISS:    8351992
L2C RFO       ACCESS:    2311282  HIT:     630671  MISS:    1680611
L2C PREFETCH  ACCESS:   17139636  HIT:    8206637  MISS:    8932999
L2C WRITEBACK ACCESS:    3222446  HIT:    3218698  MISS:       3748
L2C PREFETCH  REQUESTED:    2804904  ISSUED:    2804904  USEFUL:    1309280  USELESS:    7623442
L2C TOTAL MSHR MERGED:     488867
L2C LOAD MSHR MERGED:      64772
L2C RFO MSHR MERGED:          0
L2C PREFETCH MSHR MERGED:     424095
L2C WRITEBACK MSHR MERGED:          0
L2C TOTAL ACCESSES:   40148569 HITS:   20623920 MISSES:   19524649
L2C LOAD ACCESSES:   16919808 HITS:    8567816 MISSES:    8351992
L2C RFO ACCESSES:    2311331 HITS:     630720 MISSES:    1680611
L2C PREFETCH ACCESSES:   17694984 HITS:    8206686 MISSES:    9488298
L2C WRITEBACK ACCESSES:    3222446 HITS:    3218698 MISSES:       3748
L2C RQ ACCESS:   19231139
L2C RQ TO_CACHE:   19231037
L2C RQ MERGED:          0
L2C RQ FORWARD:          0
L2C WQ ACCESS:    3222446
L2C WQ TO_CACHE:    3222446
L2C WQ MERGED:          0
L2C WQ FORWARD:        151
LLC TOTAL     ACCESS:   21180757  HIT:   13502059  MISS:    7678698
LLC LOAD      ACCESS:    8287202  HIT:    4799247  MISS:    3487955
LLC RFO       ACCESS:    1680546  HIT:    1669218  MISS:      11328
LLC PREFETCH  ACCESS:    9037215  HIT:    4874403  MISS:    4162812
LLC WRITEBACK ACCESS:    2175794  HIT:    2159191  MISS:      16603
LLC PREFETCH  REQUESTED:          0  ISSUED:          0  USEFUL:     182166  USELESS:    3983228
LLC TOTAL MSHR MERGED:      22978
LLC LOAD MSHR MERGED:       6689
LLC RFO MSHR MERGED:          0
LLC PREFETCH MSHR MERGED:      16289
LLC WRITEBACK MSHR MERGED:          0
LLC TOTAL ACCESSES:   21203844 HITS:   13502167 MISSES:    7701677
LLC LOAD ACCESSES:    8287220 HITS:    4799265 MISSES:    3487955
LLC RFO ACCESSES:    1680611 HITS:    1669283 MISSES:      11328
LLC PREFETCH ACCESSES:    9060219 HITS:    4874428 MISSES:    4185791
LLC WRITEBACK ACCESSES:    2175794 HITS:    2159191 MISSES:      16603
LLC 0 RQ ACCESS:    9967831
LLC 0 RQ TO_CACHE:    9967748
LLC 0 RQ MERGED:          0
LLC 0 RQ FORWARD:          0
LLC WQ ACCESS:    2175795
LLC WQ TO_CACHE:    2175795
LLC WQ MERGED:          0
LLC WQ FORWARD:        108
Major fault: 0 Minor fault: 56391
CPU 0 L1D next line prefetcher final stats
CPU 0 L2C PC-based stride prefetcher final stats
All Misses: 9384369
All Hits: 15173153
SD Algo Stats - Switches: 0 SRR-Repls: 3920073 BRR-Repls: 0

DRAM Statistics
 CHANNEL 0
 RQ ROW_BUFFER_HIT:    5121951  ROW_BUFFER_MISS:    2524073
 DBUS_CONGESTED:    3692091
 WQ ROW_BUFFER_HIT:        666  ROW_BUFFER_MISS:      23588  FULL:          0

 AVG_CONGESTED_CYCLE: 12
LOADS RETIRED: 173631671
INSTR RETIRED: 500000000
