
*** ChampSim Multicore Out-of-Order Simulator ***

Warmup Instructions: 100000000
Simulation Instructions: 500000000
Number of CPUs: 1
LLC sets: 2048
LLC ways: 16
Clean RRIP Policies: 2213230322132303 Dirty RRIP Policies: 2203130322031303 PSEL Width: 10 Track Set: 4294967295 PSEL Mask: 1 Demote Mask: 3044100030441000DS Algo: 0Window size: 0
Off-chip DRAM Size: 4096 MB Channels: 1 Width: 64-bit Data Rate: 1600 MT/s

CPU 0 runs /mnt/beegfs/iconst01/spec2017/Xz.trace.gz
NOT SORTED
TRACE STRING: /mnt/beegfs/iconst01/spec2017/Xz.trace.gz
SORTED
TRACE STRING: /mnt/beegfs/iconst01/spec2017/Xz.trace.gz
INITIAL
TRACE STRING: /mnt/beegfs/iconst01/spec2017/Xz.trace.gz

champsim_seed used: 210

CPU 0 L1D next line prefetcher
CPU 0 L2C IP-based stride prefetcher
Initialize DRRIP state
Assign rand_sets[0]: 454  LLC: 2048
rand_sets[0]: 454
Assign rand_sets[1]: 1662  LLC: 2048
rand_sets[1]: 1662
Assign rand_sets[2]: 1921  LLC: 2048
rand_sets[2]: 1921
Assign rand_sets[3]: 1131  LLC: 2048
rand_sets[3]: 1131
Assign rand_sets[4]: 331  LLC: 2048
rand_sets[4]: 331
Assign rand_sets[5]: 1531  LLC: 2048
rand_sets[5]: 1531
Assign rand_sets[6]: 482  LLC: 2048
rand_sets[6]: 482
Assign rand_sets[7]: 1275  LLC: 2048
rand_sets[7]: 1275
Assign rand_sets[8]: 1876  LLC: 2048
rand_sets[8]: 1876
Assign rand_sets[9]: 2038  LLC: 2048
rand_sets[9]: 2038
Assign rand_sets[10]: 701  LLC: 2048
rand_sets[10]: 701
Assign rand_sets[11]: 479  LLC: 2048
rand_sets[11]: 479
Assign rand_sets[12]: 892  LLC: 2048
rand_sets[12]: 892
Assign rand_sets[13]: 1820  LLC: 2048
rand_sets[13]: 1820
Assign rand_sets[14]: 1505  LLC: 2048
rand_sets[14]: 1505
Assign rand_sets[15]: 1159  LLC: 2048
rand_sets[15]: 1159
Assign rand_sets[16]: 513  LLC: 2048
rand_sets[16]: 513
Assign rand_sets[17]: 703  LLC: 2048
rand_sets[17]: 703
Assign rand_sets[18]: 561  LLC: 2048
rand_sets[18]: 561
Assign rand_sets[19]: 990  LLC: 2048
rand_sets[19]: 990
Assign rand_sets[20]: 342  LLC: 2048
rand_sets[20]: 342
Assign rand_sets[21]: 882  LLC: 2048
rand_sets[21]: 882
Assign rand_sets[22]: 15  LLC: 2048
rand_sets[22]: 15
Assign rand_sets[23]: 71  LLC: 2048
rand_sets[23]: 71
Assign rand_sets[24]: 1127  LLC: 2048
rand_sets[24]: 1127
Assign rand_sets[25]: 1382  LLC: 2048
rand_sets[25]: 1382
Assign rand_sets[26]: 647  LLC: 2048
rand_sets[26]: 647
Assign rand_sets[27]: 857  LLC: 2048
rand_sets[27]: 857
Assign rand_sets[28]: 1450  LLC: 2048
rand_sets[28]: 1450
Assign rand_sets[29]: 1160  LLC: 2048
rand_sets[29]: 1160
Assign rand_sets[30]: 1852  LLC: 2048
rand_sets[30]: 1852
Assign rand_sets[31]: 1881  LLC: 2048
rand_sets[31]: 1881
Assign rand_sets[32]: 1770  LLC: 2048
rand_sets[32]: 1770
Assign rand_sets[33]: 1622  LLC: 2048
rand_sets[33]: 1622
Assign rand_sets[34]: 275  LLC: 2048
rand_sets[34]: 275
Assign rand_sets[35]: 635  LLC: 2048
rand_sets[35]: 635
Assign rand_sets[36]: 466  LLC: 2048
rand_sets[36]: 466
Assign rand_sets[37]: 1413  LLC: 2048
rand_sets[37]: 1413
Assign rand_sets[38]: 417  LLC: 2048
rand_sets[38]: 417
Assign rand_sets[39]: 472  LLC: 2048
rand_sets[39]: 472
Assign rand_sets[40]: 1340  LLC: 2048
rand_sets[40]: 1340
Assign rand_sets[41]: 852  LLC: 2048
rand_sets[41]: 852
Assign rand_sets[42]: 1365  LLC: 2048
rand_sets[42]: 1365
Assign rand_sets[43]: 47  LLC: 2048
rand_sets[43]: 47
Assign rand_sets[44]: 823  LLC: 2048
rand_sets[44]: 823
Assign rand_sets[45]: 686  LLC: 2048
rand_sets[45]: 686
Assign rand_sets[46]: 1637  LLC: 2048
rand_sets[46]: 1637
Assign rand_sets[47]: 1115  LLC: 2048
rand_sets[47]: 1115
Assign rand_sets[48]: 986  LLC: 2048
rand_sets[48]: 986
Assign rand_sets[49]: 258  LLC: 2048
rand_sets[49]: 258
Assign rand_sets[50]: 633  LLC: 2048
rand_sets[50]: 633
Assign rand_sets[51]: 920  LLC: 2048
rand_sets[51]: 920
Assign rand_sets[52]: 204  LLC: 2048
rand_sets[52]: 204
Assign rand_sets[53]: 227  LLC: 2048
rand_sets[53]: 227
Assign rand_sets[54]: 1818  LLC: 2048
rand_sets[54]: 1818
Assign rand_sets[55]: 886  LLC: 2048
rand_sets[55]: 886
Assign rand_sets[56]: 1422  LLC: 2048
rand_sets[56]: 1422
Assign rand_sets[57]: 607  LLC: 2048
rand_sets[57]: 607
Assign rand_sets[58]: 217  LLC: 2048
rand_sets[58]: 217
Assign rand_sets[59]: 1945  LLC: 2048
rand_sets[59]: 1945
Assign rand_sets[60]: 143  LLC: 2048
rand_sets[60]: 143
Assign rand_sets[61]: 1311  LLC: 2048
rand_sets[61]: 1311
Assign rand_sets[62]: 319  LLC: 2048
rand_sets[62]: 319
Assign rand_sets[63]: 1846  LLC: 2048
rand_sets[63]: 1846
 CLEAN-RRIP-POLICY-1: 2-2-1-3-2-3-0-3- CLEAN-RRIP-POLICY-2: 2-2-1-3-2-3-0-3-
 DIRTY-RRIP-POLICY-1: 2-2-0-3-1-3-0-3- DIRTY-RRIP-POLICY-2: 2-2-0-3-1-3-0-3-
 PSEL width: 10
Heartbeat CPU 0 instructions: 10000000 cycles: 4305334 heartbeat IPC: 2.3227 cumulative IPC: 2.3227 (Simulation time: 0 hr 0 min 11 sec) 
Heartbeat CPU 0 instructions: 20000000 cycles: 8617445 heartbeat IPC: 2.31905 cumulative IPC: 2.32087 (Simulation time: 0 hr 0 min 23 sec) 
Heartbeat CPU 0 instructions: 30000003 cycles: 13161645 heartbeat IPC: 2.20061 cumulative IPC: 2.27935 (Simulation time: 0 hr 0 min 36 sec) 
Heartbeat CPU 0 instructions: 40000000 cycles: 17516371 heartbeat IPC: 2.29636 cumulative IPC: 2.28358 (Simulation time: 0 hr 0 min 48 sec) 
Heartbeat CPU 0 instructions: 50000001 cycles: 21879493 heartbeat IPC: 2.29194 cumulative IPC: 2.28524 (Simulation time: 0 hr 1 min 0 sec) 
Heartbeat CPU 0 instructions: 60000000 cycles: 26179919 heartbeat IPC: 2.32535 cumulative IPC: 2.29183 (Simulation time: 0 hr 1 min 11 sec) 
Heartbeat CPU 0 instructions: 70000001 cycles: 30245966 heartbeat IPC: 2.45939 cumulative IPC: 2.31436 (Simulation time: 0 hr 1 min 22 sec) 
Heartbeat CPU 0 instructions: 80000000 cycles: 34524906 heartbeat IPC: 2.33703 cumulative IPC: 2.31717 (Simulation time: 0 hr 1 min 34 sec) 
Heartbeat CPU 0 instructions: 90000001 cycles: 38741654 heartbeat IPC: 2.3715 cumulative IPC: 2.32308 (Simulation time: 0 hr 1 min 45 sec) 
Heartbeat CPU 0 instructions: 100000000 cycles: 42982137 heartbeat IPC: 2.35822 cumulative IPC: 2.32655 (Simulation time: 0 hr 1 min 57 sec) 

Warmup complete CPU 0 instructions: 100000001 cycles: 42982138 (Simulation time: 0 hr 1 min 57 sec) 

Heartbeat CPU 0 instructions: 110000000 cycles: 53160350 heartbeat IPC: 0.982491 cumulative IPC: 0.982491 (Simulation time: 0 hr 2 min 14 sec) 
Heartbeat CPU 0 instructions: 120000000 cycles: 63848067 heartbeat IPC: 0.935654 cumulative IPC: 0.9585 (Simulation time: 0 hr 2 min 32 sec) 
Heartbeat CPU 0 instructions: 130000001 cycles: 74489965 heartbeat IPC: 0.939682 cumulative IPC: 0.952144 (Simulation time: 0 hr 2 min 50 sec) 
Heartbeat CPU 0 instructions: 140000000 cycles: 84199400 heartbeat IPC: 1.02993 cumulative IPC: 0.970467 (Simulation time: 0 hr 3 min 7 sec) 
Heartbeat CPU 0 instructions: 150000001 cycles: 94544159 heartbeat IPC: 0.966673 cumulative IPC: 0.969706 (Simulation time: 0 hr 3 min 24 sec) 
Heartbeat CPU 0 instructions: 160000000 cycles: 104625364 heartbeat IPC: 0.991945 cumulative IPC: 0.973343 (Simulation time: 0 hr 3 min 42 sec) 
Heartbeat CPU 0 instructions: 170000000 cycles: 114312025 heartbeat IPC: 1.03235 cumulative IPC: 0.981356 (Simulation time: 0 hr 3 min 59 sec) 
Heartbeat CPU 0 instructions: 180000000 cycles: 124894478 heartbeat IPC: 0.94496 cumulative IPC: 0.976654 (Simulation time: 0 hr 4 min 17 sec) 
Heartbeat CPU 0 instructions: 190000001 cycles: 135162837 heartbeat IPC: 0.973866 cumulative IPC: 0.976343 (Simulation time: 0 hr 4 min 34 sec) 
Heartbeat CPU 0 instructions: 200000000 cycles: 145758964 heartbeat IPC: 0.943741 cumulative IPC: 0.972982 (Simulation time: 0 hr 4 min 52 sec) 
Heartbeat CPU 0 instructions: 210000002 cycles: 158283451 heartbeat IPC: 0.798436 cumulative IPC: 0.954022 (Simulation time: 0 hr 5 min 11 sec) 
Heartbeat CPU 0 instructions: 220000000 cycles: 170884761 heartbeat IPC: 0.793568 cumulative IPC: 0.938214 (Simulation time: 0 hr 5 min 30 sec) 
Heartbeat CPU 0 instructions: 230000000 cycles: 183121896 heartbeat IPC: 0.817185 cumulative IPC: 0.927645 (Simulation time: 0 hr 5 min 49 sec) 
Heartbeat CPU 0 instructions: 240000000 cycles: 195277543 heartbeat IPC: 0.822663 cumulative IPC: 0.919266 (Simulation time: 0 hr 6 min 7 sec) 
Heartbeat CPU 0 instructions: 250000000 cycles: 207290599 heartbeat IPC: 0.832428 cumulative IPC: 0.912917 (Simulation time: 0 hr 6 min 26 sec) 
Heartbeat CPU 0 instructions: 260000000 cycles: 218865414 heartbeat IPC: 0.863945 cumulative IPC: 0.909694 (Simulation time: 0 hr 6 min 45 sec) 
Heartbeat CPU 0 instructions: 270000003 cycles: 230760450 heartbeat IPC: 0.840687 cumulative IPC: 0.905323 (Simulation time: 0 hr 7 min 3 sec) 
Heartbeat CPU 0 instructions: 280000000 cycles: 242331890 heartbeat IPC: 0.864196 cumulative IPC: 0.902936 (Simulation time: 0 hr 7 min 22 sec) 
Heartbeat CPU 0 instructions: 290000002 cycles: 253869996 heartbeat IPC: 0.866694 cumulative IPC: 0.900953 (Simulation time: 0 hr 7 min 40 sec) 
Heartbeat CPU 0 instructions: 300000000 cycles: 266345062 heartbeat IPC: 0.801599 cumulative IPC: 0.895404 (Simulation time: 0 hr 7 min 59 sec) 
Heartbeat CPU 0 instructions: 310000000 cycles: 278509852 heartbeat IPC: 0.822045 cumulative IPC: 0.891615 (Simulation time: 0 hr 8 min 18 sec) 
Heartbeat CPU 0 instructions: 320000000 cycles: 291180955 heartbeat IPC: 0.789197 cumulative IPC: 0.886386 (Simulation time: 0 hr 8 min 37 sec) 
Heartbeat CPU 0 instructions: 330000003 cycles: 303145810 heartbeat IPC: 0.835781 cumulative IPC: 0.884059 (Simulation time: 0 hr 8 min 55 sec) 
Heartbeat CPU 0 instructions: 340000000 cycles: 315298215 heartbeat IPC: 0.822882 cumulative IPC: 0.881329 (Simulation time: 0 hr 9 min 14 sec) 
Heartbeat CPU 0 instructions: 350000001 cycles: 326317788 heartbeat IPC: 0.907476 cumulative IPC: 0.882346 (Simulation time: 0 hr 9 min 32 sec) 
Heartbeat CPU 0 instructions: 360000000 cycles: 338144670 heartbeat IPC: 0.845531 cumulative IPC: 0.880871 (Simulation time: 0 hr 9 min 50 sec) 
Heartbeat CPU 0 instructions: 370000001 cycles: 349600747 heartbeat IPC: 0.872899 cumulative IPC: 0.880573 (Simulation time: 0 hr 10 min 9 sec) 
Heartbeat CPU 0 instructions: 380000000 cycles: 360631543 heartbeat IPC: 0.906553 cumulative IPC: 0.881475 (Simulation time: 0 hr 10 min 27 sec) 
Heartbeat CPU 0 instructions: 390000003 cycles: 371291261 heartbeat IPC: 0.938111 cumulative IPC: 0.883314 (Simulation time: 0 hr 10 min 45 sec) 
Heartbeat CPU 0 instructions: 400000000 cycles: 381553738 heartbeat IPC: 0.974423 cumulative IPC: 0.886075 (Simulation time: 0 hr 11 min 3 sec) 
Heartbeat CPU 0 instructions: 410000000 cycles: 392100794 heartbeat IPC: 0.948132 cumulative IPC: 0.88795 (Simulation time: 0 hr 11 min 21 sec) 
Heartbeat CPU 0 instructions: 420000000 cycles: 401507512 heartbeat IPC: 1.06307 cumulative IPC: 0.892545 (Simulation time: 0 hr 11 min 38 sec) 
Heartbeat CPU 0 instructions: 430000002 cycles: 410601392 heartbeat IPC: 1.09964 cumulative IPC: 0.897668 (Simulation time: 0 hr 11 min 55 sec) 
Heartbeat CPU 0 instructions: 440000000 cycles: 420887671 heartbeat IPC: 0.972169 cumulative IPC: 0.899696 (Simulation time: 0 hr 12 min 13 sec) 
Heartbeat CPU 0 instructions: 450000002 cycles: 432004045 heartbeat IPC: 0.899574 cumulative IPC: 0.899692 (Simulation time: 0 hr 12 min 31 sec) 
Heartbeat CPU 0 instructions: 460000000 cycles: 443585824 heartbeat IPC: 0.863425 cumulative IPC: 0.898644 (Simulation time: 0 hr 12 min 49 sec) 
Heartbeat CPU 0 instructions: 470000003 cycles: 453803480 heartbeat IPC: 0.978698 cumulative IPC: 0.900635 (Simulation time: 0 hr 13 min 7 sec) 
Heartbeat CPU 0 instructions: 480000000 cycles: 464363738 heartbeat IPC: 0.946946 cumulative IPC: 0.901795 (Simulation time: 0 hr 13 min 24 sec) 
Heartbeat CPU 0 instructions: 490000000 cycles: 474336090 heartbeat IPC: 1.00277 cumulative IPC: 0.90413 (Simulation time: 0 hr 13 min 42 sec) 
Heartbeat CPU 0 instructions: 500000000 cycles: 486142414 heartbeat IPC: 0.847004 cumulative IPC: 0.902608 (Simulation time: 0 hr 14 min 0 sec) 
Heartbeat CPU 0 instructions: 510000002 cycles: 498602258 heartbeat IPC: 0.802578 cumulative IPC: 0.899872 (Simulation time: 0 hr 14 min 19 sec) 
Heartbeat CPU 0 instructions: 520000000 cycles: 510521281 heartbeat IPC: 0.838995 cumulative IPC: 0.89832 (Simulation time: 0 hr 14 min 37 sec) 
Heartbeat CPU 0 instructions: 530000001 cycles: 522423204 heartbeat IPC: 0.8402 cumulative IPC: 0.896878 (Simulation time: 0 hr 14 min 55 sec) 
Heartbeat CPU 0 instructions: 540000000 cycles: 534074243 heartbeat IPC: 0.858292 cumulative IPC: 0.895962 (Simulation time: 0 hr 15 min 13 sec) 
Heartbeat CPU 0 instructions: 550000001 cycles: 545497871 heartbeat IPC: 0.875379 cumulative IPC: 0.895494 (Simulation time: 0 hr 15 min 31 sec) 
Heartbeat CPU 0 instructions: 560000000 cycles: 557093964 heartbeat IPC: 0.862359 cumulative IPC: 0.894747 (Simulation time: 0 hr 15 min 50 sec) 
Heartbeat CPU 0 instructions: 570000000 cycles: 568527587 heartbeat IPC: 0.874613 cumulative IPC: 0.894309 (Simulation time: 0 hr 16 min 7 sec) 
Heartbeat CPU 0 instructions: 580000000 cycles: 579311667 heartbeat IPC: 0.927293 cumulative IPC: 0.894972 (Simulation time: 0 hr 16 min 25 sec) 
Heartbeat CPU 0 instructions: 590000003 cycles: 590717020 heartbeat IPC: 0.876782 cumulative IPC: 0.894593 (Simulation time: 0 hr 16 min 43 sec) 
Heartbeat CPU 0 instructions: 600000000 cycles: 601322330 heartbeat IPC: 0.942924 cumulative IPC: 0.895511 (Simulation time: 0 hr 17 min 0 sec) 
Finished CPU 0 instructions: 500000001 cycles: 558340200 cumulative IPC: 0.895511 (Simulation time: 0 hr 17 min 0 sec) 

CPU 0 Branch Prediction Accuracy: 93.0095% MPKI: 10.0046
Number of Branches: 71558147 Number of Mispredictions: 5002285
Number of LOAD Instructions: 145708893
Number of LOAD Instructions (ROI): 145708893
Number of STORE Instructions: 40463820
Number of STORE Instructions (ROI): 40463820
Total Destination Memory Operands: 45240498
Total Destination Memory Operands (ROI): 45240498
Total Source Memory Operands: 145708893
Total Source Memory Operands (ROI): 145708893
Number of DEPENDED LOADS: 10666216
Number of DEPENDED LOADS (ROI): 10666216
Number of SQ_ADDED: 45240498
Number of SQ_ADDED (ROI): 45240498
Number of LQ_ADDED: 193336595
Number of LQ_ADDED (ROI): 193336595
Number of Instructions read from trace: 600000002

ChampSim completed all CPUs

Region of Interest Statistics

CPU 0 cumulative IPC: 0.895511 instructions: 500000001 cycles: 558340200
ITLB TOTAL     ACCESS:   77989356  HIT:   77989355  MISS:          1
ITLB LOAD      ACCESS:   77989356  HIT:   77989355  MISS:          1
ITLB RFO       ACCESS:          0  HIT:          0  MISS:          0
ITLB PREFETCH  ACCESS:          0  HIT:          0  MISS:          0
ITLB WRITEBACK ACCESS:          0  HIT:          0  MISS:          0
ITLB PREFETCH  REQUESTED:          0  ISSUED:          0  USEFUL:          0  USELESS:          0
ITLB TOTAL MSHR MERGED:          0
ITLB LOAD MSHR MERGED:          0
ITLB RFO MSHR MERGED:          0
ITLB PREFETCH MSHR MERGED:          0
ITLB WRITEBACK MSHR MERGED:          0
ITLB TOTAL ACCESSES:   77989356 HITS:   77989355 MISSES:          1
ITLB LOAD ACCESSES:   77989356 HITS:   77989355 MISSES:          1
ITLB RFO ACCESSES:          0 HITS:          0 MISSES:          0
ITLB PREFETCH ACCESSES:          0 HITS:          0 MISSES:          0
ITLB WRITEBACK ACCESSES:          0 HITS:          0 MISSES:          0
ITLB RQ ACCESS:  499999995
ITLB RQ TO_CACHE:   77989356
ITLB RQ MERGED:  422010639
ITLB RQ FORWARD:          0
ITLB WQ ACCESS:          0
ITLB WQ TO_CACHE:          0
ITLB WQ MERGED:          0
ITLB WQ FORWARD:          0
DTLB TOTAL     ACCESS:   98672488  HIT:   97791151  MISS:     881337
DTLB LOAD      ACCESS:   70893292  HIT:   70031758  MISS:     861534
DTLB RFO       ACCESS:   27779196  HIT:   27759393  MISS:      19803
DTLB PREFETCH  ACCESS:          0  HIT:          0  MISS:          0
DTLB WRITEBACK ACCESS:          0  HIT:          0  MISS:          0
DTLB PREFETCH  REQUESTED:          0  ISSUED:          0  USEFUL:          0  USELESS:          0
DTLB TOTAL MSHR MERGED:      87316
DTLB LOAD MSHR MERGED:      65570
DTLB RFO MSHR MERGED:      21746
DTLB PREFETCH MSHR MERGED:          0
DTLB WRITEBACK MSHR MERGED:          0
DTLB TOTAL ACCESSES:   98759804 HITS:   97791151 MISSES:     968653
DTLB LOAD ACCESSES:   70958862 HITS:   70031758 MISSES:     927104
DTLB RFO ACCESSES:   27800942 HITS:   27759393 MISSES:      41549
DTLB PREFETCH ACCESSES:          0 HITS:          0 MISSES:          0
DTLB WRITEBACK ACCESSES:          0 HITS:          0 MISSES:          0
DTLB RQ ACCESS:  150278839
DTLB RQ TO_CACHE:   98759804
DTLB RQ MERGED:   51519035
DTLB RQ FORWARD:          0
DTLB WQ ACCESS:          0
DTLB WQ TO_CACHE:          0
DTLB WQ MERGED:          0
DTLB WQ FORWARD:          0
L1D TOTAL     ACCESS:  173340960  HIT:  169172323  MISS:    4168637
L1D LOAD      ACCESS:   75287821  HIT:   73406475  MISS:    1881346
L1D RFO       ACCESS:   36778505  HIT:   36571898  MISS:     206607
L1D PREFETCH  ACCESS:   61274634  HIT:   59193950  MISS:    2080684
L1D WRITEBACK ACCESS:          0  HIT:          0  MISS:          0
L1D PREFETCH  REQUESTED:   75392794  ISSUED:   74828628  USEFUL:     415115  USELESS:    1665558
L1D TOTAL MSHR MERGED:     378046
L1D LOAD MSHR MERGED:     113765
L1D RFO MSHR MERGED:     132898
L1D PREFETCH MSHR MERGED:     131383
L1D WRITEBACK MSHR MERGED:          0
L1D TOTAL ACCESSES:  173870196 HITS:  169323513 MISSES:    4546683
L1D LOAD ACCESSES:   75395380 HITS:   73409061 MISSES:    1986319
L1D RFO ACCESSES:   36910008 HITS:   36571898 MISSES:     338110
L1D PREFETCH ACCESSES:   61564808 HITS:   59342554 MISSES:    2222254
L1D WRITEBACK ACCESSES:          0 HITS:          0 MISSES:          0
L1D RQ ACCESS:  112616436
L1D RQ TO_CACHE:   75392794
L1D RQ MERGED:   37221056
L1D RQ FORWARD:          0
L1D WQ ACCESS:   37662403
L1D WQ TO_CACHE:   36910008
L1D WQ MERGED:     752395
L1D WQ FORWARD:     151190
L1I TOTAL     ACCESS:  100697689  HIT:  100697664  MISS:         25
L1I LOAD      ACCESS:  100697689  HIT:  100697664  MISS:         25
L1I RFO       ACCESS:          0  HIT:          0  MISS:          0
L1I PREFETCH  ACCESS:          0  HIT:          0  MISS:          0
L1I WRITEBACK ACCESS:          0  HIT:          0  MISS:          0
L1I PREFETCH  REQUESTED:          0  ISSUED:          0  USEFUL:          0  USELESS:          0
L1I TOTAL MSHR MERGED:         10
L1I LOAD MSHR MERGED:         10
L1I RFO MSHR MERGED:          0
L1I PREFETCH MSHR MERGED:          0
L1I WRITEBACK MSHR MERGED:          0
L1I TOTAL ACCESSES:  100697699 HITS:  100697664 MISSES:         35
L1I LOAD ACCESSES:  100697699 HITS:  100697664 MISSES:         35
L1I RFO ACCESSES:          0 HITS:          0 MISSES:          0
L1I PREFETCH ACCESSES:          0 HITS:          0 MISSES:          0
L1I WRITEBACK ACCESSES:          0 HITS:          0 MISSES:          0
L1I RQ ACCESS:  499999995
L1I RQ TO_CACHE:  100697699
L1I RQ MERGED:  399302296
L1I RQ FORWARD:          0
L1I WQ ACCESS:          0
L1I WQ TO_CACHE:          0
L1I WQ MERGED:          0
L1I WQ FORWARD:          0
L2C TOTAL     ACCESS:    5852626  HIT:    4009442  MISS:    1843184
L2C LOAD      ACCESS:    1872454  HIT:    1061504  MISS:     810950
L2C RFO       ACCESS:     205206  HIT:     100567  MISS:     104639
L2C PREFETCH  ACCESS:    2169331  HIT:    1246156  MISS:     923175
L2C WRITEBACK ACCESS:    1605635  HIT:    1601215  MISS:       4420
L2C PREFETCH  REQUESTED:      91711  ISSUED:      91711  USEFUL:      86454  USELESS:     836744
L2C TOTAL MSHR MERGED:       1031
L2C LOAD MSHR MERGED:        260
L2C RFO MSHR MERGED:          0
L2C PREFETCH MSHR MERGED:        771
L2C WRITEBACK MSHR MERGED:          0
L2C TOTAL ACCESSES:    5853947 HITS:    4009610 MISSES:    1844337
L2C LOAD ACCESSES:    1872579 HITS:    1061629 MISSES:     810950
L2C RFO ACCESSES:     205212 HITS:     100573 MISSES:     104639
L2C PREFETCH ACCESSES:    2170521 HITS:    1246193 MISSES:     924328
L2C WRITEBACK ACCESSES:    1605635 HITS:    1601215 MISSES:       4420
L2C RQ ACCESS:    2077791
L2C RQ TO_CACHE:    2077660
L2C RQ MERGED:          0
L2C RQ FORWARD:          0
L2C WQ ACCESS:    1605635
L2C WQ TO_CACHE:    1605635
L2C WQ MERGED:          0
L2C WQ FORWARD:        168
LLC TOTAL     ACCESS:    2673539  HIT:    2076261  MISS:     597278
LLC LOAD      ACCESS:     810681  HIT:     619156  MISS:     191525
LLC RFO       ACCESS:     104639  HIT:      59637  MISS:      45002
LLC PREFETCH  ACCESS:     923544  HIT:     670376  MISS:     253168
LLC WRITEBACK ACCESS:     834675  HIT:     727092  MISS:     107583
LLC PREFETCH  REQUESTED:          0  ISSUED:          0  USEFUL:       8246  USELESS:     244906
LLC TOTAL MSHR MERGED:          4
LLC LOAD MSHR MERGED:          1
LLC RFO MSHR MERGED:          0
LLC PREFETCH MSHR MERGED:          3
LLC WRITEBACK MSHR MERGED:          0
LLC TOTAL ACCESSES:    2673555 HITS:    2076273 MISSES:     597282
LLC LOAD ACCESSES:     810690 HITS:     619165 MISSES:     191525
LLC RFO ACCESSES:     104639 HITS:      59637 MISSES:      45002
LLC PREFETCH ACCESSES:     923551 HITS:     670379 MISSES:     253172
LLC WRITEBACK ACCESSES:     834675 HITS:     727092 MISSES:     107583
LLC 0 RQ ACCESS:     915329
LLC 0 RQ TO_CACHE:     915320
LLC 0 RQ MERGED:          0
LLC 0 RQ FORWARD:          0
LLC WQ ACCESS:     834675
LLC WQ TO_CACHE:     834675
LLC WQ MERGED:          0
LLC WQ FORWARD:         12
Major fault: 0 Minor fault: 11278
CPU 0 L1D next line prefetcher final stats
CPU 0 L2C PC-based stride prefetcher final stats
All Misses: 757046
All Hits: 2297512
SD Algo Stats - Switches: 0 SRR-Repls: 235533 BRR-Repls: 0

DRAM Statistics
 CHANNEL 0
 RQ ROW_BUFFER_HIT:      33348  ROW_BUFFER_MISS:     455824
 DBUS_CONGESTED:     359028
 WQ ROW_BUFFER_HIT:      13809  ROW_BUFFER_MISS:     201765  FULL:          0

 AVG_CONGESTED_CYCLE: 13
LOADS RETIRED: 121769268
INSTR RETIRED: 500000000
