
*** ChampSim Multicore Out-of-Order Simulator ***

Warmup Instructions: 100000000
Simulation Instructions: 500000000
Number of CPUs: 1
LLC sets: 2048
LLC ways: 16
Clean RRIP Policies: 2213230122132301 Dirty RRIP Policies: 2203130122031301 PSEL Width: 10 Track Set: 4294967295 PSEL Mask: 1 Demote Mask: 3044404030444040DS Algo: 0Window size: 0
Off-chip DRAM Size: 4096 MB Channels: 1 Width: 64-bit Data Rate: 1600 MT/s

CPU 0 runs /mnt/beegfs/iconst01/spec2017/Fotonik3d.trace.gz
NOT SORTED
TRACE STRING: /mnt/beegfs/iconst01/spec2017/Fotonik3d.trace.gz
SORTED
TRACE STRING: /mnt/beegfs/iconst01/spec2017/Fotonik3d.trace.gz
INITIAL
TRACE STRING: /mnt/beegfs/iconst01/spec2017/Fotonik3d.trace.gz

champsim_seed used: 881

CPU 0 L1D next line prefetcher
CPU 0 L2C IP-based stride prefetcher
Initialize DRRIP state
Assign rand_sets[0]: 454  LLC: 2048
rand_sets[0]: 454
Assign rand_sets[1]: 1662  LLC: 2048
rand_sets[1]: 1662
Assign rand_sets[2]: 1921  LLC: 2048
rand_sets[2]: 1921
Assign rand_sets[3]: 1131  LLC: 2048
rand_sets[3]: 1131
Assign rand_sets[4]: 331  LLC: 2048
rand_sets[4]: 331
Assign rand_sets[5]: 1531  LLC: 2048
rand_sets[5]: 1531
Assign rand_sets[6]: 482  LLC: 2048
rand_sets[6]: 482
Assign rand_sets[7]: 1275  LLC: 2048
rand_sets[7]: 1275
Assign rand_sets[8]: 1876  LLC: 2048
rand_sets[8]: 1876
Assign rand_sets[9]: 2038  LLC: 2048
rand_sets[9]: 2038
Assign rand_sets[10]: 701  LLC: 2048
rand_sets[10]: 701
Assign rand_sets[11]: 479  LLC: 2048
rand_sets[11]: 479
Assign rand_sets[12]: 892  LLC: 2048
rand_sets[12]: 892
Assign rand_sets[13]: 1820  LLC: 2048
rand_sets[13]: 1820
Assign rand_sets[14]: 1505  LLC: 2048
rand_sets[14]: 1505
Assign rand_sets[15]: 1159  LLC: 2048
rand_sets[15]: 1159
Assign rand_sets[16]: 513  LLC: 2048
rand_sets[16]: 513
Assign rand_sets[17]: 703  LLC: 2048
rand_sets[17]: 703
Assign rand_sets[18]: 561  LLC: 2048
rand_sets[18]: 561
Assign rand_sets[19]: 990  LLC: 2048
rand_sets[19]: 990
Assign rand_sets[20]: 342  LLC: 2048
rand_sets[20]: 342
Assign rand_sets[21]: 882  LLC: 2048
rand_sets[21]: 882
Assign rand_sets[22]: 15  LLC: 2048
rand_sets[22]: 15
Assign rand_sets[23]: 71  LLC: 2048
rand_sets[23]: 71
Assign rand_sets[24]: 1127  LLC: 2048
rand_sets[24]: 1127
Assign rand_sets[25]: 1382  LLC: 2048
rand_sets[25]: 1382
Assign rand_sets[26]: 647  LLC: 2048
rand_sets[26]: 647
Assign rand_sets[27]: 857  LLC: 2048
rand_sets[27]: 857
Assign rand_sets[28]: 1450  LLC: 2048
rand_sets[28]: 1450
Assign rand_sets[29]: 1160  LLC: 2048
rand_sets[29]: 1160
Assign rand_sets[30]: 1852  LLC: 2048
rand_sets[30]: 1852
Assign rand_sets[31]: 1881  LLC: 2048
rand_sets[31]: 1881
Assign rand_sets[32]: 1770  LLC: 2048
rand_sets[32]: 1770
Assign rand_sets[33]: 1622  LLC: 2048
rand_sets[33]: 1622
Assign rand_sets[34]: 275  LLC: 2048
rand_sets[34]: 275
Assign rand_sets[35]: 635  LLC: 2048
rand_sets[35]: 635
Assign rand_sets[36]: 466  LLC: 2048
rand_sets[36]: 466
Assign rand_sets[37]: 1413  LLC: 2048
rand_sets[37]: 1413
Assign rand_sets[38]: 417  LLC: 2048
rand_sets[38]: 417
Assign rand_sets[39]: 472  LLC: 2048
rand_sets[39]: 472
Assign rand_sets[40]: 1340  LLC: 2048
rand_sets[40]: 1340
Assign rand_sets[41]: 852  LLC: 2048
rand_sets[41]: 852
Assign rand_sets[42]: 1365  LLC: 2048
rand_sets[42]: 1365
Assign rand_sets[43]: 47  LLC: 2048
rand_sets[43]: 47
Assign rand_sets[44]: 823  LLC: 2048
rand_sets[44]: 823
Assign rand_sets[45]: 686  LLC: 2048
rand_sets[45]: 686
Assign rand_sets[46]: 1637  LLC: 2048
rand_sets[46]: 1637
Assign rand_sets[47]: 1115  LLC: 2048
rand_sets[47]: 1115
Assign rand_sets[48]: 986  LLC: 2048
rand_sets[48]: 986
Assign rand_sets[49]: 258  LLC: 2048
rand_sets[49]: 258
Assign rand_sets[50]: 633  LLC: 2048
rand_sets[50]: 633
Assign rand_sets[51]: 920  LLC: 2048
rand_sets[51]: 920
Assign rand_sets[52]: 204  LLC: 2048
rand_sets[52]: 204
Assign rand_sets[53]: 227  LLC: 2048
rand_sets[53]: 227
Assign rand_sets[54]: 1818  LLC: 2048
rand_sets[54]: 1818
Assign rand_sets[55]: 886  LLC: 2048
rand_sets[55]: 886
Assign rand_sets[56]: 1422  LLC: 2048
rand_sets[56]: 1422
Assign rand_sets[57]: 607  LLC: 2048
rand_sets[57]: 607
Assign rand_sets[58]: 217  LLC: 2048
rand_sets[58]: 217
Assign rand_sets[59]: 1945  LLC: 2048
rand_sets[59]: 1945
Assign rand_sets[60]: 143  LLC: 2048
rand_sets[60]: 143
Assign rand_sets[61]: 1311  LLC: 2048
rand_sets[61]: 1311
Assign rand_sets[62]: 319  LLC: 2048
rand_sets[62]: 319
Assign rand_sets[63]: 1846  LLC: 2048
rand_sets[63]: 1846
 CLEAN-RRIP-POLICY-1: 2-2-1-3-2-3-0-1- CLEAN-RRIP-POLICY-2: 2-2-1-3-2-3-0-1-
 DIRTY-RRIP-POLICY-1: 2-2-0-3-1-3-0-1- DIRTY-RRIP-POLICY-2: 2-2-0-3-1-3-0-1-
 PSEL width: 10
Heartbeat CPU 0 instructions: 10000002 cycles: 7306716 heartbeat IPC: 1.3686 cumulative IPC: 1.3686 (Simulation time: 0 hr 0 min 23 sec) 
Heartbeat CPU 0 instructions: 20000000 cycles: 14613526 heartbeat IPC: 1.36859 cumulative IPC: 1.3686 (Simulation time: 0 hr 0 min 47 sec) 
Heartbeat CPU 0 instructions: 30000001 cycles: 21920193 heartbeat IPC: 1.36861 cumulative IPC: 1.3686 (Simulation time: 0 hr 1 min 10 sec) 
Heartbeat CPU 0 instructions: 40000000 cycles: 29226746 heartbeat IPC: 1.36863 cumulative IPC: 1.36861 (Simulation time: 0 hr 1 min 34 sec) 
Heartbeat CPU 0 instructions: 50000001 cycles: 36533294 heartbeat IPC: 1.36864 cumulative IPC: 1.36861 (Simulation time: 0 hr 1 min 58 sec) 
Heartbeat CPU 0 instructions: 60000000 cycles: 43840086 heartbeat IPC: 1.36859 cumulative IPC: 1.36861 (Simulation time: 0 hr 2 min 21 sec) 
Heartbeat CPU 0 instructions: 70000002 cycles: 51146683 heartbeat IPC: 1.36863 cumulative IPC: 1.36861 (Simulation time: 0 hr 2 min 45 sec) 
Heartbeat CPU 0 instructions: 80000000 cycles: 58453277 heartbeat IPC: 1.36863 cumulative IPC: 1.36861 (Simulation time: 0 hr 3 min 9 sec) 
Heartbeat CPU 0 instructions: 90000003 cycles: 65763654 heartbeat IPC: 1.36792 cumulative IPC: 1.36854 (Simulation time: 0 hr 3 min 33 sec) 
Heartbeat CPU 0 instructions: 100000000 cycles: 73074078 heartbeat IPC: 1.36791 cumulative IPC: 1.36847 (Simulation time: 0 hr 3 min 56 sec) 

Warmup complete CPU 0 instructions: 100000002 cycles: 73074090 (Simulation time: 0 hr 3 min 56 sec) 

Heartbeat CPU 0 instructions: 110000001 cycles: 85482475 heartbeat IPC: 0.805906 cumulative IPC: 0.805907 (Simulation time: 0 hr 4 min 25 sec) 
Heartbeat CPU 0 instructions: 120000000 cycles: 97819733 heartbeat IPC: 0.810553 cumulative IPC: 0.808223 (Simulation time: 0 hr 4 min 53 sec) 
Heartbeat CPU 0 instructions: 130000000 cycles: 110196928 heartbeat IPC: 0.807938 cumulative IPC: 0.808128 (Simulation time: 0 hr 5 min 21 sec) 
Heartbeat CPU 0 instructions: 140000000 cycles: 122563353 heartbeat IPC: 0.808641 cumulative IPC: 0.808256 (Simulation time: 0 hr 5 min 50 sec) 
Heartbeat CPU 0 instructions: 150000000 cycles: 134891093 heartbeat IPC: 0.811179 cumulative IPC: 0.808839 (Simulation time: 0 hr 6 min 18 sec) 
Heartbeat CPU 0 instructions: 160000000 cycles: 147246797 heartbeat IPC: 0.809343 cumulative IPC: 0.808923 (Simulation time: 0 hr 6 min 46 sec) 
Heartbeat CPU 0 instructions: 170000001 cycles: 159606012 heartbeat IPC: 0.809113 cumulative IPC: 0.80895 (Simulation time: 0 hr 7 min 14 sec) 
Heartbeat CPU 0 instructions: 180000000 cycles: 171966763 heartbeat IPC: 0.809012 cumulative IPC: 0.808958 (Simulation time: 0 hr 7 min 43 sec) 
Heartbeat CPU 0 instructions: 190000000 cycles: 184353251 heartbeat IPC: 0.807331 cumulative IPC: 0.808777 (Simulation time: 0 hr 8 min 11 sec) 
Heartbeat CPU 0 instructions: 200000000 cycles: 196698876 heartbeat IPC: 0.810004 cumulative IPC: 0.808899 (Simulation time: 0 hr 8 min 39 sec) 
Heartbeat CPU 0 instructions: 210000002 cycles: 209093276 heartbeat IPC: 0.806816 cumulative IPC: 0.808709 (Simulation time: 0 hr 9 min 7 sec) 
Heartbeat CPU 0 instructions: 220000000 cycles: 221492458 heartbeat IPC: 0.806505 cumulative IPC: 0.808525 (Simulation time: 0 hr 9 min 36 sec) 
Heartbeat CPU 0 instructions: 230000002 cycles: 233848894 heartbeat IPC: 0.809295 cumulative IPC: 0.808584 (Simulation time: 0 hr 10 min 4 sec) 
Heartbeat CPU 0 instructions: 240000000 cycles: 246951382 heartbeat IPC: 0.763214 cumulative IPC: 0.805166 (Simulation time: 0 hr 10 min 32 sec) 
Heartbeat CPU 0 instructions: 250000001 cycles: 264239854 heartbeat IPC: 0.57842 cumulative IPC: 0.784659 (Simulation time: 0 hr 11 min 3 sec) 
Heartbeat CPU 0 instructions: 260000000 cycles: 281438839 heartbeat IPC: 0.58143 cumulative IPC: 0.767884 (Simulation time: 0 hr 11 min 34 sec) 
Heartbeat CPU 0 instructions: 270000000 cycles: 298728368 heartbeat IPC: 0.578385 cumulative IPC: 0.753365 (Simulation time: 0 hr 12 min 5 sec) 
Heartbeat CPU 0 instructions: 280000000 cycles: 315978264 heartbeat IPC: 0.579714 cumulative IPC: 0.741033 (Simulation time: 0 hr 12 min 35 sec) 
Heartbeat CPU 0 instructions: 290000000 cycles: 344435465 heartbeat IPC: 0.351405 cumulative IPC: 0.700173 (Simulation time: 0 hr 13 min 13 sec) 
Heartbeat CPU 0 instructions: 300000000 cycles: 381434090 heartbeat IPC: 0.27028 cumulative IPC: 0.648593 (Simulation time: 0 hr 13 min 56 sec) 
Heartbeat CPU 0 instructions: 310000000 cycles: 398088897 heartbeat IPC: 0.600427 cumulative IPC: 0.646124 (Simulation time: 0 hr 14 min 26 sec) 
Heartbeat CPU 0 instructions: 320000000 cycles: 414679744 heartbeat IPC: 0.602742 cumulative IPC: 0.644017 (Simulation time: 0 hr 14 min 56 sec) 
Heartbeat CPU 0 instructions: 330000003 cycles: 431351454 heartbeat IPC: 0.599819 cumulative IPC: 0.641961 (Simulation time: 0 hr 15 min 26 sec) 
Heartbeat CPU 0 instructions: 340000000 cycles: 447986443 heartbeat IPC: 0.601142 cumulative IPC: 0.64015 (Simulation time: 0 hr 15 min 55 sec) 
Heartbeat CPU 0 instructions: 350000001 cycles: 462833237 heartbeat IPC: 0.673546 cumulative IPC: 0.641422 (Simulation time: 0 hr 16 min 24 sec) 
Heartbeat CPU 0 instructions: 360000000 cycles: 474685960 heartbeat IPC: 0.843688 cumulative IPC: 0.647391 (Simulation time: 0 hr 16 min 50 sec) 
Heartbeat CPU 0 instructions: 370000002 cycles: 486376205 heartbeat IPC: 0.855414 cumulative IPC: 0.653275 (Simulation time: 0 hr 17 min 16 sec) 
Heartbeat CPU 0 instructions: 380000000 cycles: 498232109 heartbeat IPC: 0.843461 cumulative IPC: 0.658579 (Simulation time: 0 hr 17 min 42 sec) 
Heartbeat CPU 0 instructions: 390000003 cycles: 511518691 heartbeat IPC: 0.752639 cumulative IPC: 0.661429 (Simulation time: 0 hr 18 min 9 sec) 
Heartbeat CPU 0 instructions: 400000000 cycles: 523762514 heartbeat IPC: 0.816738 cumulative IPC: 0.665648 (Simulation time: 0 hr 18 min 35 sec) 
Heartbeat CPU 0 instructions: 410000003 cycles: 535708768 heartbeat IPC: 0.837083 cumulative IPC: 0.670075 (Simulation time: 0 hr 19 min 2 sec) 
Heartbeat CPU 0 instructions: 420000000 cycles: 548521301 heartbeat IPC: 0.780486 cumulative IPC: 0.673051 (Simulation time: 0 hr 19 min 29 sec) 
Heartbeat CPU 0 instructions: 430000003 cycles: 566900526 heartbeat IPC: 0.544093 cumulative IPC: 0.668251 (Simulation time: 0 hr 19 min 52 sec) 
Heartbeat CPU 0 instructions: 440000000 cycles: 585382602 heartbeat IPC: 0.541065 cumulative IPC: 0.663663 (Simulation time: 0 hr 20 min 16 sec) 
Heartbeat CPU 0 instructions: 450000003 cycles: 603883780 heartbeat IPC: 0.540506 cumulative IPC: 0.65937 (Simulation time: 0 hr 20 min 40 sec) 
Heartbeat CPU 0 instructions: 460000000 cycles: 622347776 heartbeat IPC: 0.541594 cumulative IPC: 0.655411 (Simulation time: 0 hr 21 min 4 sec) 
Heartbeat CPU 0 instructions: 470000003 cycles: 640813872 heartbeat IPC: 0.541533 cumulative IPC: 0.651707 (Simulation time: 0 hr 21 min 28 sec) 
Heartbeat CPU 0 instructions: 480000000 cycles: 659281601 heartbeat IPC: 0.541485 cumulative IPC: 0.648235 (Simulation time: 0 hr 21 min 52 sec) 
Heartbeat CPU 0 instructions: 490000003 cycles: 677777532 heartbeat IPC: 0.54066 cumulative IPC: 0.644944 (Simulation time: 0 hr 22 min 16 sec) 
Heartbeat CPU 0 instructions: 500000000 cycles: 696227058 heartbeat IPC: 0.542019 cumulative IPC: 0.641897 (Simulation time: 0 hr 22 min 40 sec) 
Heartbeat CPU 0 instructions: 510000003 cycles: 714686290 heartbeat IPC: 0.541735 cumulative IPC: 0.639015 (Simulation time: 0 hr 23 min 4 sec) 
Heartbeat CPU 0 instructions: 520000000 cycles: 733157730 heartbeat IPC: 0.541376 cumulative IPC: 0.636283 (Simulation time: 0 hr 23 min 28 sec) 
Heartbeat CPU 0 instructions: 530000001 cycles: 751640389 heartbeat IPC: 0.541048 cumulative IPC: 0.633689 (Simulation time: 0 hr 23 min 52 sec) 
Heartbeat CPU 0 instructions: 540000000 cycles: 770047526 heartbeat IPC: 0.543267 cumulative IPC: 0.631301 (Simulation time: 0 hr 24 min 16 sec) 
Heartbeat CPU 0 instructions: 550000001 cycles: 788456333 heartbeat IPC: 0.543218 cumulative IPC: 0.629034 (Simulation time: 0 hr 24 min 39 sec) 
Heartbeat CPU 0 instructions: 560000000 cycles: 806878784 heartbeat IPC: 0.542816 cumulative IPC: 0.62687 (Simulation time: 0 hr 25 min 3 sec) 
Heartbeat CPU 0 instructions: 570000001 cycles: 825288973 heartbeat IPC: 0.543178 cumulative IPC: 0.624821 (Simulation time: 0 hr 25 min 27 sec) 
Heartbeat CPU 0 instructions: 580000000 cycles: 843643232 heartbeat IPC: 0.544833 cumulative IPC: 0.622916 (Simulation time: 0 hr 25 min 51 sec) 
Heartbeat CPU 0 instructions: 590000001 cycles: 862040199 heartbeat IPC: 0.543568 cumulative IPC: 0.621066 (Simulation time: 0 hr 26 min 15 sec) 
Heartbeat CPU 0 instructions: 600000000 cycles: 880449987 heartbeat IPC: 0.543189 cumulative IPC: 0.61929 (Simulation time: 0 hr 26 min 39 sec) 
Finished CPU 0 instructions: 500000002 cycles: 807375911 cumulative IPC: 0.61929 (Simulation time: 0 hr 26 min 39 sec) 

CPU 0 Branch Prediction Accuracy: 99.5931% MPKI: 0.08288
Number of Branches: 10184133 Number of Mispredictions: 41440
Number of LOAD Instructions: 261155957
Number of LOAD Instructions (ROI): 261155957
Number of STORE Instructions: 57884062
Number of STORE Instructions (ROI): 57884062
Total Destination Memory Operands: 83293336
Total Destination Memory Operands (ROI): 83293336
Total Source Memory Operands: 261155957
Total Source Memory Operands (ROI): 261155957
Number of DEPENDED LOADS: 22254862
Number of DEPENDED LOADS (ROI): 22254862
Number of SQ_ADDED: 83293300
Number of SQ_ADDED (ROI): 83293300
Number of LQ_ADDED: 1762792740
Number of LQ_ADDED (ROI): 1762792740
Number of Instructions read from trace: 600000257

ChampSim completed all CPUs

Region of Interest Statistics

CPU 0 cumulative IPC: 0.61929 instructions: 500000002 cycles: 807375911
ITLB TOTAL     ACCESS:   94647263  HIT:   94647225  MISS:         38
ITLB LOAD      ACCESS:   94647263  HIT:   94647225  MISS:         38
ITLB RFO       ACCESS:          0  HIT:          0  MISS:          0
ITLB PREFETCH  ACCESS:          0  HIT:          0  MISS:          0
ITLB WRITEBACK ACCESS:          0  HIT:          0  MISS:          0
ITLB PREFETCH  REQUESTED:          0  ISSUED:          0  USEFUL:          0  USELESS:          0
ITLB TOTAL MSHR MERGED:         93
ITLB LOAD MSHR MERGED:         93
ITLB RFO MSHR MERGED:          0
ITLB PREFETCH MSHR MERGED:          0
ITLB WRITEBACK MSHR MERGED:          0
ITLB TOTAL ACCESSES:   94647356 HITS:   94647225 MISSES:        131
ITLB LOAD ACCESSES:   94647356 HITS:   94647225 MISSES:        131
ITLB RFO ACCESSES:          0 HITS:          0 MISSES:          0
ITLB PREFETCH ACCESSES:          0 HITS:          0 MISSES:          0
ITLB WRITEBACK ACCESSES:          0 HITS:          0 MISSES:          0
ITLB RQ ACCESS:  500000001
ITLB RQ TO_CACHE:   94647357
ITLB RQ MERGED:  405352644
ITLB RQ FORWARD:          0
ITLB WQ ACCESS:          0
ITLB WQ TO_CACHE:          0
ITLB WQ MERGED:          0
ITLB WQ FORWARD:          0
DTLB TOTAL     ACCESS:  149178042  HIT:  148581080  MISS:     596962
DTLB LOAD      ACCESS:  107304795  HIT:  106707844  MISS:     596951
DTLB RFO       ACCESS:   41873247  HIT:   41873236  MISS:         11
DTLB PREFETCH  ACCESS:          0  HIT:          0  MISS:          0
DTLB WRITEBACK ACCESS:          0  HIT:          0  MISS:          0
DTLB PREFETCH  REQUESTED:          0  ISSUED:          0  USEFUL:          0  USELESS:          0
DTLB TOTAL MSHR MERGED:     134220
DTLB LOAD MSHR MERGED:     134220
DTLB RFO MSHR MERGED:          0
DTLB PREFETCH MSHR MERGED:          0
DTLB WRITEBACK MSHR MERGED:          0
DTLB TOTAL ACCESSES:  149312262 HITS:  148581080 MISSES:     731182
DTLB LOAD ACCESSES:  107439015 HITS:  106707844 MISSES:     731171
DTLB RFO ACCESSES:   41873247 HITS:   41873236 MISSES:         11
DTLB PREFETCH ACCESSES:          0 HITS:          0 MISSES:          0
DTLB WRITEBACK ACCESSES:          0 HITS:          0 MISSES:          0
DTLB RQ ACCESS:  259761032
DTLB RQ TO_CACHE:  149312262
DTLB RQ MERGED:  110448770
DTLB RQ FORWARD:          0
DTLB WQ ACCESS:          0
DTLB WQ TO_CACHE:          0
DTLB WQ MERGED:          0
DTLB WQ FORWARD:          0
L1D TOTAL     ACCESS:  261048278  HIT:  245649608  MISS:   15398670
L1D LOAD      ACCESS:  118072201  HIT:  112569304  MISS:    5502897
L1D RFO       ACCESS:   68946812  HIT:   68932400  MISS:      14412
L1D PREFETCH  ACCESS:   74029265  HIT:   64147904  MISS:    9881361
L1D WRITEBACK ACCESS:          0  HIT:          0  MISS:          0
L1D PREFETCH  REQUESTED:  120659652  ISSUED:  119091518  USEFUL:    8009658  USELESS:    1871725
L1D TOTAL MSHR MERGED:   16517239
L1D LOAD MSHR MERGED:    5001045
L1D RFO MSHR MERGED:      21762
L1D PREFETCH MSHR MERGED:   11494432
L1D WRITEBACK MSHR MERGED:          0
L1D TOTAL ACCESSES:  277675791 HITS:  245759882 MISSES:   31915909
L1D LOAD ACCESSES:  120667179 HITS:  112576831 MISSES:    8090348
L1D RFO ACCESSES:   68968572 HITS:   68932400 MISSES:      36172
L1D PREFETCH ACCESSES:   88040040 HITS:   64250651 MISSES:   23789389
L1D WRITEBACK ACCESSES:          0 HITS:          0 MISSES:          0
L1D RQ ACCESS:  190686716
L1D RQ TO_CACHE:  120659652
L1D RQ MERGED:   70019537
L1D RQ FORWARD:          0
L1D WQ ACCESS:   69074336
L1D WQ TO_CACHE:   68968574
L1D WQ MERGED:     105762
L1D WQ FORWARD:     110274
L1I TOTAL     ACCESS:  121561730  HIT:  121560657  MISS:       1073
L1I LOAD      ACCESS:  121561730  HIT:  121560657  MISS:       1073
L1I RFO       ACCESS:          0  HIT:          0  MISS:          0
L1I PREFETCH  ACCESS:          0  HIT:          0  MISS:          0
L1I WRITEBACK ACCESS:          0  HIT:          0  MISS:          0
L1I PREFETCH  REQUESTED:          0  ISSUED:          0  USEFUL:          0  USELESS:          0
L1I TOTAL MSHR MERGED:       1119
L1I LOAD MSHR MERGED:       1119
L1I RFO MSHR MERGED:          0
L1I PREFETCH MSHR MERGED:          0
L1I WRITEBACK MSHR MERGED:          0
L1I TOTAL ACCESSES:  121562849 HITS:  121560657 MISSES:       2192
L1I LOAD ACCESSES:  121562849 HITS:  121560657 MISSES:       2192
L1I RFO ACCESSES:          0 HITS:          0 MISSES:          0
L1I PREFETCH ACCESSES:          0 HITS:          0 MISSES:          0
L1I WRITEBACK ACCESSES:          0 HITS:          0 MISSES:          0
L1I RQ ACCESS:  500000000
L1I RQ TO_CACHE:  121562849
L1I RQ MERGED:  378437151
L1I RQ FORWARD:          0
L1I WQ ACCESS:          0
L1I WQ TO_CACHE:          0
L1I WQ MERGED:          0
L1I WQ FORWARD:          0
L2C TOTAL     ACCESS:   22472444  HIT:    9152837  MISS:   13319607
L2C LOAD      ACCESS:    3090343  HIT:     417438  MISS:    2672905
L2C RFO       ACCESS:      14410  HIT:      13994  MISS:        416
L2C PREFETCH  ACCESS:   12737776  HIT:    2093283  MISS:   10644493
L2C WRITEBACK ACCESS:    6629915  HIT:    6628122  MISS:       1793
L2C PREFETCH  REQUESTED:     694789  ISSUED:     694789  USEFUL:     186865  USELESS:   10458419
L2C TOTAL MSHR MERGED:      71539
L2C LOAD MSHR MERGED:      22362
L2C RFO MSHR MERGED:          0
L2C PREFETCH MSHR MERGED:      49177
L2C WRITEBACK MSHR MERGED:          0
L2C TOTAL ACCESSES:   22684382 HITS:    9152880 MISSES:   13531502
L2C LOAD ACCESSES:    3090376 HITS:     417471 MISSES:    2672905
L2C RFO ACCESSES:      14410 HITS:      13994 MISSES:        416
L2C PREFETCH ACCESSES:   12949681 HITS:    2093293 MISSES:   10856388
L2C WRITEBACK ACCESSES:    6629915 HITS:    6628122 MISSES:       1793
L2C RQ ACCESS:    3104786
L2C RQ TO_CACHE:    3104753
L2C RQ MERGED:          0
L2C RQ FORWARD:          0
L2C WQ ACCESS:    6629915
L2C WQ TO_CACHE:    6629915
L2C WQ MERGED:          0
L2C WQ FORWARD:         43
LLC TOTAL     ACCESS:   20026743  HIT:    1934354  MISS:   18092389
LLC LOAD      ACCESS:    2650543  HIT:     441172  MISS:    2209371
LLC RFO       ACCESS:        416  HIT:         22  MISS:        394
LLC PREFETCH  ACCESS:   10784552  HIT:     114153  MISS:   10670399
LLC WRITEBACK ACCESS:    6591232  HIT:    1379007  MISS:    5212225
LLC PREFETCH  REQUESTED:          0  ISSUED:          0  USEFUL:      45312  USELESS:   10626232
LLC TOTAL MSHR MERGED:      21184
LLC LOAD MSHR MERGED:       9868
LLC RFO MSHR MERGED:          0
LLC PREFETCH MSHR MERGED:      11316
LLC WRITEBACK MSHR MERGED:          0
LLC TOTAL ACCESSES:   20047929 HITS:    1934355 MISSES:   18113574
LLC LOAD ACCESSES:    2650543 HITS:     441172 MISSES:    2209371
LLC RFO ACCESSES:        416 HITS:         22 MISSES:        394
LLC PREFETCH ACCESSES:   10805738 HITS:     114154 MISSES:   10691584
LLC WRITEBACK ACCESSES:    6591232 HITS:    1379007 MISSES:    5212225
LLC 0 RQ ACCESS:    2650959
LLC 0 RQ TO_CACHE:    2650959
LLC 0 RQ MERGED:          0
LLC 0 RQ FORWARD:          0
LLC WQ ACCESS:    6591233
LLC WQ TO_CACHE:    6591233
LLC WQ MERGED:          0
LLC WQ FORWARD:          1
Major fault: 0 Minor fault: 183991
CPU 0 L1D next line prefetcher final stats
CPU 0 L2C PC-based stride prefetcher final stats
All Misses: 20950903
All Hits: 2006886
SD Algo Stats - Switches: 0 SRR-Repls: 2257534 BRR-Repls: 0

DRAM Statistics
 CHANNEL 0
 RQ ROW_BUFFER_HIT:    7163220  ROW_BUFFER_MISS:    5716944
 DBUS_CONGESTED:   11484501
 WQ ROW_BUFFER_HIT:    1372389  ROW_BUFFER_MISS:    5211682  FULL:          0

 AVG_CONGESTED_CYCLE: 13
LOADS RETIRED: 204440772
INSTR RETIRED: 500000000
