
*** ChampSim Multicore Out-of-Order Simulator ***

Warmup Instructions: 100000000
Simulation Instructions: 150000000
Number of CPUs: 1
LLC sets: 2048
LLC ways: 16
Clean RRIP Policies: 0 Dirty RRIP Policies: 0 PSEL Width: 10 Track Set: 4294967295 PSEL Mask: 15 Demote Mask: 0DS Algo: 0Window size: 64
Off-chip DRAM Size: 4096 MB Channels: 1 Width: 64-bit Data Rate: 1600 MT/s

CPU 0 runs /mnt/beegfs/pchatz06/selected_traces/502.gcc_r.refrate.input5.region_1.w_0.1846_0.2004.trace.gz
NOT SORTED
TRACE STRING: /mnt/beegfs/pchatz06/selected_traces/502.gcc_r.refrate.input5.region_1.w_0.1846_0.2004.trace.gz
SORTED
TRACE STRING: /mnt/beegfs/pchatz06/selected_traces/502.gcc_r.refrate.input5.region_1.w_0.1846_0.2004.trace.gz
INITIAL
TRACE STRING: /mnt/beegfs/pchatz06/selected_traces/502.gcc_r.refrate.input5.region_1.w_0.1846_0.2004.trace.gz

champsim_seed used: 198

CPU 0 L1D next line prefetcher
CPU 0 L2C IP-based stride prefetcher
Heartbeat CPU 0 instructions: 10000000 cycles: 9924793 heartbeat IPC: 1.00758 cumulative IPC: 1.00758 (Simulation time: 0 hr 0 min 20 sec) 
Heartbeat CPU 0 instructions: 20000000 cycles: 19882720 heartbeat IPC: 1.00423 cumulative IPC: 1.0059 (Simulation time: 0 hr 0 min 40 sec) 
Heartbeat CPU 0 instructions: 30000002 cycles: 29872660 heartbeat IPC: 1.00101 cumulative IPC: 1.00426 (Simulation time: 0 hr 0 min 59 sec) 
Heartbeat CPU 0 instructions: 40000000 cycles: 38310514 heartbeat IPC: 1.18514 cumulative IPC: 1.0441 (Simulation time: 0 hr 1 min 19 sec) 
Heartbeat CPU 0 instructions: 50000000 cycles: 48440161 heartbeat IPC: 0.987201 cumulative IPC: 1.0322 (Simulation time: 0 hr 1 min 39 sec) 
Heartbeat CPU 0 instructions: 60000000 cycles: 58577775 heartbeat IPC: 0.986425 cumulative IPC: 1.02428 (Simulation time: 0 hr 1 min 59 sec) 
Heartbeat CPU 0 instructions: 70000000 cycles: 68007460 heartbeat IPC: 1.06048 cumulative IPC: 1.0293 (Simulation time: 0 hr 2 min 19 sec) 
Heartbeat CPU 0 instructions: 80000000 cycles: 76896165 heartbeat IPC: 1.12502 cumulative IPC: 1.04036 (Simulation time: 0 hr 2 min 39 sec) 
Heartbeat CPU 0 instructions: 90000001 cycles: 86487316 heartbeat IPC: 1.04263 cumulative IPC: 1.04062 (Simulation time: 0 hr 2 min 58 sec) 
Heartbeat CPU 0 instructions: 100000000 cycles: 96387290 heartbeat IPC: 1.0101 cumulative IPC: 1.03748 (Simulation time: 0 hr 3 min 18 sec) 

Warmup complete CPU 0 instructions: 100000001 cycles: 96387291 (Simulation time: 0 hr 3 min 18 sec) 

Heartbeat CPU 0 instructions: 110000003 cycles: 145284410 heartbeat IPC: 0.204511 cumulative IPC: 0.204511 (Simulation time: 0 hr 4 min 3 sec) 
Heartbeat CPU 0 instructions: 120000000 cycles: 191981901 heartbeat IPC: 0.214144 cumulative IPC: 0.209217 (Simulation time: 0 hr 4 min 47 sec) 
Heartbeat CPU 0 instructions: 130000000 cycles: 243869726 heartbeat IPC: 0.192723 cumulative IPC: 0.203414 (Simulation time: 0 hr 5 min 34 sec) 
Heartbeat CPU 0 instructions: 140000000 cycles: 295212569 heartbeat IPC: 0.194769 cumulative IPC: 0.201182 (Simulation time: 0 hr 6 min 21 sec) 
Heartbeat CPU 0 instructions: 150000001 cycles: 348272183 heartbeat IPC: 0.188467 cumulative IPC: 0.198503 (Simulation time: 0 hr 7 min 9 sec) 
Heartbeat CPU 0 instructions: 160000000 cycles: 397924934 heartbeat IPC: 0.201399 cumulative IPC: 0.19898 (Simulation time: 0 hr 7 min 54 sec) 
Heartbeat CPU 0 instructions: 170000000 cycles: 447841467 heartbeat IPC: 0.200334 cumulative IPC: 0.199172 (Simulation time: 0 hr 8 min 40 sec) 
Heartbeat CPU 0 instructions: 180000000 cycles: 499717048 heartbeat IPC: 0.192769 cumulative IPC: 0.198349 (Simulation time: 0 hr 9 min 27 sec) 
Heartbeat CPU 0 instructions: 190000000 cycles: 550896773 heartbeat IPC: 0.19539 cumulative IPC: 0.198016 (Simulation time: 0 hr 10 min 14 sec) 
Heartbeat CPU 0 instructions: 200000000 cycles: 603092403 heartbeat IPC: 0.191587 cumulative IPC: 0.197353 (Simulation time: 0 hr 11 min 0 sec) 
Heartbeat CPU 0 instructions: 210000003 cycles: 650733360 heartbeat IPC: 0.209903 cumulative IPC: 0.198432 (Simulation time: 0 hr 11 min 42 sec) 
Heartbeat CPU 0 instructions: 220000000 cycles: 700186590 heartbeat IPC: 0.202211 cumulative IPC: 0.198742 (Simulation time: 0 hr 12 min 26 sec) 
Heartbeat CPU 0 instructions: 230000000 cycles: 746081467 heartbeat IPC: 0.217889 cumulative IPC: 0.200094 (Simulation time: 0 hr 13 min 6 sec) 
Heartbeat CPU 0 instructions: 240000000 cycles: 789505395 heartbeat IPC: 0.230288 cumulative IPC: 0.201986 (Simulation time: 0 hr 13 min 43 sec) 
*** Reached end of trace for Core: 0 Repeating trace: /mnt/beegfs/pchatz06/selected_traces/502.gcc_r.refrate.input5.region_1.w_0.1846_0.2004.trace.gz
Heartbeat CPU 0 instructions: 250000000 cycles: 833060346 heartbeat IPC: 0.229595 cumulative IPC: 0.203618 (Simulation time: 0 hr 14 min 21 sec) 
Finished CPU 0 instructions: 150000000 cycles: 736673056 cumulative IPC: 0.203618 (Simulation time: 0 hr 14 min 21 sec) 

CPU 0 Branch Prediction Accuracy: 95.3446% MPKI: 6.62327
Number of Branches: 21340641 Number of Mispredictions: 993490
Number of LOAD Instructions: 44912077
Number of LOAD Instructions (ROI): 44912077
Number of STORE Instructions: 97203444
Number of STORE Instructions (ROI): 97203444
Total Destination Memory Operands: 98299742
Total Destination Memory Operands (ROI): 98299742
Total Source Memory Operands: 44912221
Total Source Memory Operands (ROI): 44912221
Number of DEPENDED LOADS: 987212
Number of DEPENDED LOADS (ROI): 987212
Number of SQ_ADDED: 98299652
Number of SQ_ADDED (ROI): 98299652
Number of LQ_ADDED: 53411098
Number of LQ_ADDED (ROI): 53411098
Number of Instructions read from trace: 250000256

ChampSim completed all CPUs

Region of Interest Statistics

CPU 0 cumulative IPC: 0.203618 instructions: 150000000 cycles: 736673056
ITLB TOTAL     ACCESS:   38359027  HIT:   38305409  MISS:      53618
ITLB LOAD      ACCESS:   38359027  HIT:   38305409  MISS:      53618
ITLB RFO       ACCESS:          0  HIT:          0  MISS:          0
ITLB PREFETCH  ACCESS:          0  HIT:          0  MISS:          0
ITLB WRITEBACK ACCESS:          0  HIT:          0  MISS:          0
ITLB PREFETCH  REQUESTED:          0  ISSUED:          0  USEFUL:          0  USELESS:          0
ITLB TOTAL MSHR MERGED:      67554
ITLB LOAD MSHR MERGED:      67554
ITLB RFO MSHR MERGED:          0
ITLB PREFETCH MSHR MERGED:          0
ITLB WRITEBACK MSHR MERGED:          0
ITLB TOTAL ACCESSES:   38426581 HITS:   38305409 MISSES:     121172
ITLB LOAD ACCESSES:   38426581 HITS:   38305409 MISSES:     121172
ITLB RFO ACCESSES:          0 HITS:          0 MISSES:          0
ITLB PREFETCH ACCESSES:          0 HITS:          0 MISSES:          0
ITLB WRITEBACK ACCESSES:          0 HITS:          0 MISSES:          0
ITLB RQ ACCESS:  150000144
ITLB RQ TO_CACHE:   38426581
ITLB RQ MERGED:  111573563
ITLB RQ FORWARD:          0
ITLB WQ ACCESS:          0
ITLB WQ TO_CACHE:          0
ITLB WQ MERGED:          0
ITLB WQ FORWARD:          0
DTLB TOTAL     ACCESS:   49254580  HIT:   48797936  MISS:     456644
DTLB LOAD      ACCESS:   16141369  HIT:   15876984  MISS:     264385
DTLB RFO       ACCESS:   33113211  HIT:   32920952  MISS:     192259
DTLB PREFETCH  ACCESS:          0  HIT:          0  MISS:          0
DTLB WRITEBACK ACCESS:          0  HIT:          0  MISS:          0
DTLB PREFETCH  REQUESTED:          0  ISSUED:          0  USEFUL:          0  USELESS:          0
DTLB TOTAL MSHR MERGED:     411375
DTLB LOAD MSHR MERGED:      20356
DTLB RFO MSHR MERGED:     391019
DTLB PREFETCH MSHR MERGED:          0
DTLB WRITEBACK MSHR MERGED:          0
DTLB TOTAL ACCESSES:   49665955 HITS:   48797936 MISSES:     868019
DTLB LOAD ACCESSES:   16161725 HITS:   15876984 MISSES:     284741
DTLB RFO ACCESSES:   33504230 HITS:   32920952 MISSES:     583278
DTLB PREFETCH ACCESSES:          0 HITS:          0 MISSES:          0
DTLB WRITEBACK ACCESSES:          0 HITS:          0 MISSES:          0
DTLB RQ ACCESS:   84796791
DTLB RQ TO_CACHE:   49665955
DTLB RQ MERGED:   35130836
DTLB RQ FORWARD:          0
DTLB WQ ACCESS:          0
DTLB WQ TO_CACHE:          0
DTLB WQ MERGED:          0
DTLB WQ FORWARD:          0
L1D TOTAL     ACCESS:   56276416  HIT:   42351321  MISS:   13925095
L1D LOAD      ACCESS:   17127667  HIT:   15189681  MISS:    1937986
L1D RFO       ACCESS:   23995935  HIT:   12802909  MISS:   11193026
L1D PREFETCH  ACCESS:   15152814  HIT:   14358731  MISS:     794083
L1D WRITEBACK ACCESS:          0  HIT:          0  MISS:          0
L1D PREFETCH  REQUESTED:   17164003  ISSUED:   17034568  USEFUL:     350737  USELESS:     443499
L1D TOTAL MSHR MERGED:   36643608
L1D LOAD MSHR MERGED:     364209
L1D RFO MSHR MERGED:   35396922
L1D PREFETCH MSHR MERGED:     882477
L1D WRITEBACK MSHR MERGED:          0
L1D TOTAL ACCESSES:   92923968 HITS:   42355262 MISSES:   50568706
L1D LOAD ACCESSES:   17165380 HITS:   15191058 MISSES:    1974322
L1D RFO ACCESSES:   59391208 HITS:   12802909 MISSES:   46588299
L1D PREFETCH ACCESSES:   16367380 HITS:   14361295 MISSES:    2006085
L1D WRITEBACK ACCESSES:          0 HITS:          0 MISSES:          0
L1D RQ ACCESS:   25356772
L1D RQ TO_CACHE:   17164003
L1D RQ MERGED:    8191392
L1D RQ FORWARD:          0
L1D WQ ACCESS:   59439968
L1D WQ TO_CACHE:   59391211
L1D WQ MERGED:      48757
L1D WQ FORWARD:       3941
L1I TOTAL     ACCESS:   51938430  HIT:   50611804  MISS:    1326626
L1I LOAD      ACCESS:   51938430  HIT:   50611804  MISS:    1326626
L1I RFO       ACCESS:          0  HIT:          0  MISS:          0
L1I PREFETCH  ACCESS:          0  HIT:          0  MISS:          0
L1I WRITEBACK ACCESS:          0  HIT:          0  MISS:          0
L1I PREFETCH  REQUESTED:          0  ISSUED:          0  USEFUL:          0  USELESS:          0
L1I TOTAL MSHR MERGED:     829633
L1I LOAD MSHR MERGED:     829633
L1I RFO MSHR MERGED:          0
L1I PREFETCH MSHR MERGED:          0
L1I WRITEBACK MSHR MERGED:          0
L1I TOTAL ACCESSES:   52768063 HITS:   50611804 MISSES:    2156259
L1I LOAD ACCESSES:   52768063 HITS:   50611804 MISSES:    2156259
L1I RFO ACCESSES:          0 HITS:          0 MISSES:          0
L1I PREFETCH ACCESSES:          0 HITS:          0 MISSES:          0
L1I WRITEBACK ACCESSES:          0 HITS:          0 MISSES:          0
L1I RQ ACCESS:  150000146
L1I RQ TO_CACHE:   52768063
L1I RQ MERGED:   97232083
L1I RQ FORWARD:          0
L1I WQ ACCESS:          0
L1I WQ TO_CACHE:          0
L1I WQ MERGED:          0
L1I WQ FORWARD:          0
L2C TOTAL     ACCESS:   28500632  HIT:   14475438  MISS:   14025194
L2C LOAD      ACCESS:    2936686  HIT:    1548240  MISS:    1388446
L2C RFO       ACCESS:   11191336  HIT:      33725  MISS:   11157611
L2C PREFETCH  ACCESS:    2349124  HIT:     871767  MISS:    1477357
L2C WRITEBACK ACCESS:   12023486  HIT:   12021706  MISS:       1780
L2C PREFETCH  REQUESTED:    2278107  ISSUED:    2278107  USEFUL:     649351  USELESS:     828034
L2C TOTAL MSHR MERGED:     415808
L2C LOAD MSHR MERGED:     105777
L2C RFO MSHR MERGED:          0
L2C PREFETCH MSHR MERGED:     310031
L2C WRITEBACK MSHR MERGED:          0
L2C TOTAL ACCESSES:   29040612 HITS:   14475542 MISSES:   14565070
L2C LOAD ACCESSES:    2936739 HITS:    1548293 MISSES:    1388446
L2C RFO ACCESSES:   11191377 HITS:      33763 MISSES:   11157614
L2C PREFETCH ACCESSES:    2889010 HITS:     871780 MISSES:    2017230
L2C WRITEBACK ACCESSES:   12023486 HITS:   12021706 MISSES:       1780
L2C RQ ACCESS:   14128116
L2C RQ TO_CACHE:   14128025
L2C RQ MERGED:          0
L2C RQ FORWARD:          0
L2C WQ ACCESS:   12023487
L2C WQ TO_CACHE:   12023487
L2C WQ MERGED:          0
L2C WQ FORWARD:        104
LLC TOTAL     ACCESS:   26002071  HIT:   13775623  MISS:   12226448
LLC LOAD      ACCESS:    1282669  HIT:     694656  MISS:     588013
LLC RFO       ACCESS:   11157611  HIT:      94398  MISS:   11063213
LLC PREFETCH  ACCESS:    1673956  HIT:    1098734  MISS:     575222
LLC WRITEBACK ACCESS:   11887835  HIT:   11887835  MISS:          0
LLC PREFETCH  REQUESTED:          0  ISSUED:          0  USEFUL:      17501  USELESS:     551090
LLC TOTAL MSHR MERGED:       9960
LLC LOAD MSHR MERGED:        632
LLC RFO MSHR MERGED:          0
LLC PREFETCH MSHR MERGED:       9328
LLC WRITEBACK MSHR MERGED:          0
LLC TOTAL ACCESSES:   26012034 HITS:   13775623 MISSES:   12236411
LLC LOAD ACCESSES:    1282669 HITS:     694656 MISSES:     588013
LLC RFO ACCESSES:   11157614 HITS:      94398 MISSES:   11063216
LLC PREFETCH ACCESSES:    1683916 HITS:    1098734 MISSES:     585182
LLC WRITEBACK ACCESSES:   11887835 HITS:   11887835 MISSES:          0
LLC 0 RQ ACCESS:   12440283
LLC 0 RQ TO_CACHE:   12440283
LLC 0 RQ MERGED:          0
LLC 0 RQ FORWARD:          0
LLC WQ ACCESS:   11887836
LLC WQ TO_CACHE:   11887836
LLC WQ MERGED:          0
LLC WQ FORWARD:          0
Major fault: 0 Minor fault: 4359
CPU 0 L1D next line prefetcher final stats
CPU 0 L2C PC-based stride prefetcher final stats

DRAM Statistics
 CHANNEL 0
 RQ ROW_BUFFER_HIT:    8042597  ROW_BUFFER_MISS:    4178237
 DBUS_CONGESTED:   21704215
 WQ ROW_BUFFER_HIT:    4799344  ROW_BUFFER_MISS:    6852342  FULL:          0

 AVG_CONGESTED_CYCLE: 13
LOADS RETIRED: 25942871
INSTR RETIRED: 150000000
