
*** ChampSim Multicore Out-of-Order Simulator ***

Warmup Instructions: 100000000
Simulation Instructions: 150000000
Number of CPUs: 1
LLC sets: 2048
LLC ways: 16
Clean RRIP Policies: 0 Dirty RRIP Policies: 0 PSEL Width: 10 Track Set: 4294967295 PSEL Mask: 15 Demote Mask: 0DS Algo: 0Window size: 64
Off-chip DRAM Size: 4096 MB Channels: 1 Width: 64-bit Data Rate: 1600 MT/s

CPU 0 runs /mnt/beegfs/pchatz06/selected_traces/502.gcc_r.train.input1.region_7.w_0.128_0.1384.trace.gz
NOT SORTED
TRACE STRING: /mnt/beegfs/pchatz06/selected_traces/502.gcc_r.train.input1.region_7.w_0.128_0.1384.trace.gz
SORTED
TRACE STRING: /mnt/beegfs/pchatz06/selected_traces/502.gcc_r.train.input1.region_7.w_0.128_0.1384.trace.gz
INITIAL
TRACE STRING: /mnt/beegfs/pchatz06/selected_traces/502.gcc_r.train.input1.region_7.w_0.128_0.1384.trace.gz

champsim_seed used: 208

CPU 0 L1D next line prefetcher
CPU 0 L2C IP-based stride prefetcher
Heartbeat CPU 0 instructions: 10000000 cycles: 6550392 heartbeat IPC: 1.52663 cumulative IPC: 1.52663 (Simulation time: 0 hr 0 min 16 sec) 
Heartbeat CPU 0 instructions: 20000000 cycles: 13062883 heartbeat IPC: 1.53551 cumulative IPC: 1.53106 (Simulation time: 0 hr 0 min 31 sec) 
Heartbeat CPU 0 instructions: 30000001 cycles: 20275762 heartbeat IPC: 1.38641 cumulative IPC: 1.4796 (Simulation time: 0 hr 0 min 47 sec) 
Heartbeat CPU 0 instructions: 40000000 cycles: 27885428 heartbeat IPC: 1.31412 cumulative IPC: 1.43444 (Simulation time: 0 hr 1 min 3 sec) 
Heartbeat CPU 0 instructions: 50000000 cycles: 35346605 heartbeat IPC: 1.34027 cumulative IPC: 1.41456 (Simulation time: 0 hr 1 min 19 sec) 
Heartbeat CPU 0 instructions: 60000000 cycles: 42142543 heartbeat IPC: 1.47147 cumulative IPC: 1.42374 (Simulation time: 0 hr 1 min 35 sec) 
Heartbeat CPU 0 instructions: 70000002 cycles: 49489599 heartbeat IPC: 1.36109 cumulative IPC: 1.41444 (Simulation time: 0 hr 1 min 52 sec) 
Heartbeat CPU 0 instructions: 80000000 cycles: 56733847 heartbeat IPC: 1.38041 cumulative IPC: 1.41009 (Simulation time: 0 hr 2 min 9 sec) 
Heartbeat CPU 0 instructions: 90000001 cycles: 63530387 heartbeat IPC: 1.47134 cumulative IPC: 1.41664 (Simulation time: 0 hr 2 min 25 sec) 
Heartbeat CPU 0 instructions: 100000000 cycles: 69657408 heartbeat IPC: 1.63211 cumulative IPC: 1.4356 (Simulation time: 0 hr 2 min 40 sec) 

Warmup complete CPU 0 instructions: 100000001 cycles: 69657412 (Simulation time: 0 hr 2 min 40 sec) 

Heartbeat CPU 0 instructions: 110000002 cycles: 102628083 heartbeat IPC: 0.3033 cumulative IPC: 0.3033 (Simulation time: 0 hr 3 min 11 sec) 
Heartbeat CPU 0 instructions: 120000000 cycles: 133878782 heartbeat IPC: 0.319993 cumulative IPC: 0.311423 (Simulation time: 0 hr 3 min 41 sec) 
Heartbeat CPU 0 instructions: 130000000 cycles: 165320775 heartbeat IPC: 0.318046 cumulative IPC: 0.3136 (Simulation time: 0 hr 4 min 9 sec) 
Heartbeat CPU 0 instructions: 140000000 cycles: 196806278 heartbeat IPC: 0.317606 cumulative IPC: 0.314592 (Simulation time: 0 hr 4 min 38 sec) 
Heartbeat CPU 0 instructions: 150000000 cycles: 228192475 heartbeat IPC: 0.318611 cumulative IPC: 0.315388 (Simulation time: 0 hr 5 min 9 sec) 
Heartbeat CPU 0 instructions: 160000000 cycles: 259896370 heartbeat IPC: 0.315419 cumulative IPC: 0.315393 (Simulation time: 0 hr 5 min 40 sec) 
Heartbeat CPU 0 instructions: 170000000 cycles: 291407942 heartbeat IPC: 0.317344 cumulative IPC: 0.31567 (Simulation time: 0 hr 6 min 10 sec) 
Heartbeat CPU 0 instructions: 180000000 cycles: 323492688 heartbeat IPC: 0.311675 cumulative IPC: 0.315165 (Simulation time: 0 hr 6 min 41 sec) 
Heartbeat CPU 0 instructions: 190000000 cycles: 363943898 heartbeat IPC: 0.247211 cumulative IPC: 0.305824 (Simulation time: 0 hr 7 min 19 sec) 
Heartbeat CPU 0 instructions: 200000000 cycles: 409031392 heartbeat IPC: 0.221791 cumulative IPC: 0.29466 (Simulation time: 0 hr 7 min 59 sec) 
Heartbeat CPU 0 instructions: 210000000 cycles: 432849793 heartbeat IPC: 0.419843 cumulative IPC: 0.30287 (Simulation time: 0 hr 8 min 27 sec) 
Heartbeat CPU 0 instructions: 220000000 cycles: 461666372 heartbeat IPC: 0.347022 cumulative IPC: 0.306115 (Simulation time: 0 hr 8 min 55 sec) 
Heartbeat CPU 0 instructions: 230000003 cycles: 493411919 heartbeat IPC: 0.315005 cumulative IPC: 0.306781 (Simulation time: 0 hr 9 min 23 sec) 
Heartbeat CPU 0 instructions: 240000000 cycles: 520984269 heartbeat IPC: 0.362682 cumulative IPC: 0.310196 (Simulation time: 0 hr 9 min 50 sec) 
*** Reached end of trace for Core: 0 Repeating trace: /mnt/beegfs/pchatz06/selected_traces/502.gcc_r.train.input1.region_7.w_0.128_0.1384.trace.gz
Heartbeat CPU 0 instructions: 250000001 cycles: 533193783 heartbeat IPC: 0.819034 cumulative IPC: 0.323599 (Simulation time: 0 hr 10 min 10 sec) 
Finished CPU 0 instructions: 150000000 cycles: 463536371 cumulative IPC: 0.323599 (Simulation time: 0 hr 10 min 10 sec) 

CPU 0 Branch Prediction Accuracy: 93.856% MPKI: 11.4196
Number of Branches: 27879818 Number of Mispredictions: 1712937
Number of LOAD Instructions: 73412330
Number of LOAD Instructions (ROI): 73412330
Number of STORE Instructions: 37776374
Number of STORE Instructions (ROI): 37776374
Total Destination Memory Operands: 39159347
Total Destination Memory Operands (ROI): 39159347
Total Source Memory Operands: 73425690
Total Source Memory Operands (ROI): 73425690
Number of DEPENDED LOADS: 4179593
Number of DEPENDED LOADS (ROI): 4179593
Number of SQ_ADDED: 39159347
Number of SQ_ADDED (ROI): 39159347
Number of LQ_ADDED: 82757607
Number of LQ_ADDED (ROI): 82757607
Number of Instructions read from trace: 250000013

ChampSim completed all CPUs

Region of Interest Statistics

CPU 0 cumulative IPC: 0.323599 instructions: 150000000 cycles: 463536371
ITLB TOTAL     ACCESS:   35650032  HIT:   35645474  MISS:       4558
ITLB LOAD      ACCESS:   35650032  HIT:   35645474  MISS:       4558
ITLB RFO       ACCESS:          0  HIT:          0  MISS:          0
ITLB PREFETCH  ACCESS:          0  HIT:          0  MISS:          0
ITLB WRITEBACK ACCESS:          0  HIT:          0  MISS:          0
ITLB PREFETCH  REQUESTED:          0  ISSUED:          0  USEFUL:          0  USELESS:          0
ITLB TOTAL MSHR MERGED:       3788
ITLB LOAD MSHR MERGED:       3788
ITLB RFO MSHR MERGED:          0
ITLB PREFETCH MSHR MERGED:          0
ITLB WRITEBACK MSHR MERGED:          0
ITLB TOTAL ACCESSES:   35653820 HITS:   35645474 MISSES:       8346
ITLB LOAD ACCESSES:   35653820 HITS:   35645474 MISSES:       8346
ITLB RFO ACCESSES:          0 HITS:          0 MISSES:          0
ITLB PREFETCH ACCESSES:          0 HITS:          0 MISSES:          0
ITLB WRITEBACK ACCESSES:          0 HITS:          0 MISSES:          0
ITLB RQ ACCESS:  149999918
ITLB RQ TO_CACHE:   35653820
ITLB RQ MERGED:  114346098
ITLB RQ FORWARD:          0
ITLB WQ ACCESS:          0
ITLB WQ TO_CACHE:          0
ITLB WQ MERGED:          0
ITLB WQ FORWARD:          0
DTLB TOTAL     ACCESS:   53157386  HIT:   52972172  MISS:     185214
DTLB LOAD      ACCESS:   31478934  HIT:   31307720  MISS:     171214
DTLB RFO       ACCESS:   21678452  HIT:   21664452  MISS:      14000
DTLB PREFETCH  ACCESS:          0  HIT:          0  MISS:          0
DTLB WRITEBACK ACCESS:          0  HIT:          0  MISS:          0
DTLB PREFETCH  REQUESTED:          0  ISSUED:          0  USEFUL:          0  USELESS:          0
DTLB TOTAL MSHR MERGED:      33470
DTLB LOAD MSHR MERGED:      29569
DTLB RFO MSHR MERGED:       3901
DTLB PREFETCH MSHR MERGED:          0
DTLB WRITEBACK MSHR MERGED:          0
DTLB TOTAL ACCESSES:   53190856 HITS:   52972172 MISSES:     218684
DTLB LOAD ACCESSES:   31508503 HITS:   31307720 MISSES:     200783
DTLB RFO ACCESSES:   21682353 HITS:   21664452 MISSES:      17901
DTLB PREFETCH ACCESSES:          0 HITS:          0 MISSES:          0
DTLB WRITEBACK ACCESSES:          0 HITS:          0 MISSES:          0
DTLB RQ ACCESS:   63969509
DTLB RQ TO_CACHE:   53190856
DTLB RQ MERGED:   10778653
DTLB RQ FORWARD:          0
DTLB WQ ACCESS:          0
DTLB WQ TO_CACHE:          0
DTLB WQ MERGED:          0
DTLB WQ FORWARD:          0
L1D TOTAL     ACCESS:   87207796  HIT:   85202900  MISS:    2004896
L1D LOAD      ACCESS:   32489898  HIT:   31540659  MISS:     949239
L1D RFO       ACCESS:   23788176  HIT:   23598720  MISS:     189456
L1D PREFETCH  ACCESS:   30929722  HIT:   30063521  MISS:     866201
L1D WRITEBACK ACCESS:          0  HIT:          0  MISS:          0
L1D PREFETCH  REQUESTED:   32598558  ISSUED:   32327881  USEFUL:     355259  USELESS:     510874
L1D TOTAL MSHR MERGED:     805949
L1D LOAD MSHR MERGED:     169756
L1D RFO MSHR MERGED:     346119
L1D PREFETCH MSHR MERGED:     290074
L1D WRITEBACK MSHR MERGED:          0
L1D TOTAL ACCESSES:   88021436 HITS:   85210589 MISSES:    2810847
L1D LOAD ACCESSES:   32598624 HITS:   31540725 MISSES:    1057899
L1D RFO ACCESSES:   24128823 HITS:   23598720 MISSES:     530103
L1D PREFETCH ACCESSES:   31293989 HITS:   30071144 MISSES:    1222845
L1D WRITEBACK ACCESSES:          0 HITS:          0 MISSES:          0
L1D RQ ACCESS:   39672699
L1D RQ TO_CACHE:   32598558
L1D RQ MERGED:    7074075
L1D RQ FORWARD:          0
L1D WQ ACCESS:   24296815
L1D WQ TO_CACHE:   24128827
L1D WQ MERGED:     167988
L1D WQ FORWARD:       7689
L1I TOTAL     ACCESS:   43777183  HIT:   42834104  MISS:     943079
L1I LOAD      ACCESS:   43777183  HIT:   42834104  MISS:     943079
L1I RFO       ACCESS:          0  HIT:          0  MISS:          0
L1I PREFETCH  ACCESS:          0  HIT:          0  MISS:          0
L1I WRITEBACK ACCESS:          0  HIT:          0  MISS:          0
L1I PREFETCH  REQUESTED:          0  ISSUED:          0  USEFUL:          0  USELESS:          0
L1I TOTAL MSHR MERGED:     472884
L1I LOAD MSHR MERGED:     472884
L1I RFO MSHR MERGED:          0
L1I PREFETCH MSHR MERGED:          0
L1I WRITEBACK MSHR MERGED:          0
L1I TOTAL ACCESSES:   44250067 HITS:   42834104 MISSES:    1415963
L1I LOAD ACCESSES:   44250067 HITS:   42834104 MISSES:    1415963
L1I RFO ACCESSES:          0 HITS:          0 MISSES:          0
L1I PREFETCH ACCESSES:          0 HITS:          0 MISSES:          0
L1I WRITEBACK ACCESSES:          0 HITS:          0 MISSES:          0
L1I RQ ACCESS:  149999918
L1I RQ TO_CACHE:   44250067
L1I RQ MERGED:  105749851
L1I RQ FORWARD:          0
L1I WQ ACCESS:          0
L1I WQ TO_CACHE:          0
L1I WQ MERGED:          0
L1I WQ FORWARD:          0
L2C TOTAL     ACCESS:    3491815  HIT:    2067675  MISS:    1424140
L2C LOAD      ACCESS:    1831178  HIT:    1248301  MISS:     582877
L2C RFO       ACCESS:     183975  HIT:      96206  MISS:      87769
L2C PREFETCH  ACCESS:    1117455  HIT:     365882  MISS:     751573
L2C WRITEBACK ACCESS:     359207  HIT:     357286  MISS:       1921
L2C PREFETCH  REQUESTED:     220689  ISSUED:     220689  USEFUL:     123059  USELESS:     629014
L2C TOTAL MSHR MERGED:      13998
L2C LOAD MSHR MERGED:       2413
L2C RFO MSHR MERGED:          1
L2C PREFETCH MSHR MERGED:      11584
L2C WRITEBACK MSHR MERGED:          0
L2C TOTAL ACCESSES:    3512087 HITS:    2067733 MISSES:    1444354
L2C LOAD ACCESSES:    1831222 HITS:    1248344 MISSES:     582878
L2C RFO ACCESSES:     183984 HITS:      96215 MISSES:      87769
L2C PREFETCH ACCESSES:    1137674 HITS:     365888 MISSES:     771786
L2C WRITEBACK ACCESSES:     359207 HITS:     357286 MISSES:       1921
L2C RQ ACCESS:    2015206
L2C RQ TO_CACHE:    2015154
L2C RQ MERGED:          0
L2C RQ FORWARD:          0
L2C WQ ACCESS:     359207
L2C WQ TO_CACHE:     359207
L2C WQ MERGED:          0
L2C WQ FORWARD:         58
LLC TOTAL     ACCESS:    1656364  HIT:     943756  MISS:     712608
LLC LOAD      ACCESS:     580462  HIT:     300871  MISS:     279591
LLC RFO       ACCESS:      87768  HIT:      22531  MISS:      65237
LLC PREFETCH  ACCESS:     755617  HIT:     388178  MISS:     367439
LLC WRITEBACK ACCESS:     232517  HIT:     232176  MISS:        341
LLC PREFETCH  REQUESTED:          0  ISSUED:          0  USEFUL:      55593  USELESS:     318055
LLC TOTAL MSHR MERGED:       3622
LLC LOAD MSHR MERGED:       1244
LLC RFO MSHR MERGED:          0
LLC PREFETCH MSHR MERGED:       2378
LLC WRITEBACK MSHR MERGED:          0
LLC TOTAL ACCESSES:    1659992 HITS:     943762 MISSES:     716230
LLC LOAD ACCESSES:     580464 HITS:     300873 MISSES:     279591
LLC RFO ACCESSES:      87768 HITS:      22531 MISSES:      65237
LLC PREFETCH ACCESSES:     759243 HITS:     388182 MISSES:     371061
LLC WRITEBACK ACCESSES:     232517 HITS:     232176 MISSES:        341
LLC 0 RQ ACCESS:     668233
LLC 0 RQ TO_CACHE:     668231
LLC 0 RQ MERGED:          0
LLC 0 RQ FORWARD:          0
LLC WQ ACCESS:     232517
LLC WQ TO_CACHE:     232517
LLC WQ MERGED:          0
LLC WQ FORWARD:          6
Major fault: 0 Minor fault: 6002
CPU 0 L1D next line prefetcher final stats
CPU 0 L2C PC-based stride prefetcher final stats

DRAM Statistics
 CHANNEL 0
 RQ ROW_BUFFER_HIT:     305356  ROW_BUFFER_MISS:     406430
 DBUS_CONGESTED:     419677
 WQ ROW_BUFFER_HIT:      18850  ROW_BUFFER_MISS:     144165  FULL:          0

 AVG_CONGESTED_CYCLE: 13
LOADS RETIRED: 42422061
INSTR RETIRED: 150000000
