
*** ChampSim Multicore Out-of-Order Simulator ***

Warmup Instructions: 100000000
Simulation Instructions: 150000000
Number of CPUs: 1
LLC sets: 2048
LLC ways: 16
Clean RRIP Policies: 0 Dirty RRIP Policies: 0 PSEL Width: 10 Track Set: 4294967295 PSEL Mask: 15 Demote Mask: 0DS Algo: 0Window size: 64
Off-chip DRAM Size: 4096 MB Channels: 1 Width: 64-bit Data Rate: 1600 MT/s

CPU 0 runs /mnt/beegfs/pchatz06/selected_traces/502.gcc_r.refrate.input3.region_8.w_0.1032_0.1156.trace.gz
NOT SORTED
TRACE STRING: /mnt/beegfs/pchatz06/selected_traces/502.gcc_r.refrate.input3.region_8.w_0.1032_0.1156.trace.gz
SORTED
TRACE STRING: /mnt/beegfs/pchatz06/selected_traces/502.gcc_r.refrate.input3.region_8.w_0.1032_0.1156.trace.gz
INITIAL
TRACE STRING: /mnt/beegfs/pchatz06/selected_traces/502.gcc_r.refrate.input3.region_8.w_0.1032_0.1156.trace.gz

champsim_seed used: 205

CPU 0 L1D next line prefetcher
CPU 0 L2C IP-based stride prefetcher
Heartbeat CPU 0 instructions: 10000003 cycles: 6869852 heartbeat IPC: 1.45564 cumulative IPC: 1.45564 (Simulation time: 0 hr 0 min 15 sec) 
Heartbeat CPU 0 instructions: 20000000 cycles: 13559596 heartbeat IPC: 1.49483 cumulative IPC: 1.47497 (Simulation time: 0 hr 0 min 30 sec) 
Heartbeat CPU 0 instructions: 30000003 cycles: 20509548 heartbeat IPC: 1.43886 cumulative IPC: 1.46273 (Simulation time: 0 hr 0 min 45 sec) 
Heartbeat CPU 0 instructions: 40000000 cycles: 27523857 heartbeat IPC: 1.42566 cumulative IPC: 1.45328 (Simulation time: 0 hr 1 min 0 sec) 
Heartbeat CPU 0 instructions: 50000002 cycles: 33053086 heartbeat IPC: 1.80857 cumulative IPC: 1.51272 (Simulation time: 0 hr 1 min 15 sec) 
Heartbeat CPU 0 instructions: 60000000 cycles: 38750949 heartbeat IPC: 1.75504 cumulative IPC: 1.54835 (Simulation time: 0 hr 1 min 30 sec) 
Heartbeat CPU 0 instructions: 70000003 cycles: 44787019 heartbeat IPC: 1.65671 cumulative IPC: 1.56295 (Simulation time: 0 hr 1 min 46 sec) 
Heartbeat CPU 0 instructions: 80000000 cycles: 51537191 heartbeat IPC: 1.48144 cumulative IPC: 1.55228 (Simulation time: 0 hr 2 min 2 sec) 
Heartbeat CPU 0 instructions: 90000000 cycles: 58417510 heartbeat IPC: 1.45342 cumulative IPC: 1.54063 (Simulation time: 0 hr 2 min 18 sec) 
Heartbeat CPU 0 instructions: 100000000 cycles: 64264133 heartbeat IPC: 1.71039 cumulative IPC: 1.55608 (Simulation time: 0 hr 2 min 31 sec) 

Warmup complete CPU 0 instructions: 100000002 cycles: 64264134 (Simulation time: 0 hr 2 min 31 sec) 

Heartbeat CPU 0 instructions: 110000002 cycles: 91170502 heartbeat IPC: 0.371659 cumulative IPC: 0.371659 (Simulation time: 0 hr 2 min 58 sec) 
Heartbeat CPU 0 instructions: 120000000 cycles: 116183493 heartbeat IPC: 0.399792 cumulative IPC: 0.385213 (Simulation time: 0 hr 3 min 25 sec) 
Heartbeat CPU 0 instructions: 130000001 cycles: 141740835 heartbeat IPC: 0.391277 cumulative IPC: 0.387213 (Simulation time: 0 hr 3 min 51 sec) 
Heartbeat CPU 0 instructions: 140000000 cycles: 166328753 heartbeat IPC: 0.406704 cumulative IPC: 0.391909 (Simulation time: 0 hr 4 min 18 sec) 
Heartbeat CPU 0 instructions: 150000001 cycles: 193079867 heartbeat IPC: 0.373816 cumulative IPC: 0.388151 (Simulation time: 0 hr 4 min 46 sec) 
Heartbeat CPU 0 instructions: 160000000 cycles: 221646717 heartbeat IPC: 0.350056 cumulative IPC: 0.381237 (Simulation time: 0 hr 5 min 14 sec) 
Heartbeat CPU 0 instructions: 170000000 cycles: 251182727 heartbeat IPC: 0.33857 cumulative IPC: 0.374495 (Simulation time: 0 hr 5 min 42 sec) 
Heartbeat CPU 0 instructions: 180000000 cycles: 279967315 heartbeat IPC: 0.347408 cumulative IPC: 0.37088 (Simulation time: 0 hr 6 min 10 sec) 
Heartbeat CPU 0 instructions: 190000000 cycles: 307140385 heartbeat IPC: 0.368011 cumulative IPC: 0.370559 (Simulation time: 0 hr 6 min 38 sec) 
Heartbeat CPU 0 instructions: 200000000 cycles: 335116678 heartbeat IPC: 0.357446 cumulative IPC: 0.369205 (Simulation time: 0 hr 7 min 5 sec) 
Heartbeat CPU 0 instructions: 210000000 cycles: 359172945 heartbeat IPC: 0.415692 cumulative IPC: 0.372997 (Simulation time: 0 hr 7 min 31 sec) 
Heartbeat CPU 0 instructions: 220000000 cycles: 386169082 heartbeat IPC: 0.370423 cumulative IPC: 0.372781 (Simulation time: 0 hr 7 min 58 sec) 
Heartbeat CPU 0 instructions: 230000001 cycles: 412904077 heartbeat IPC: 0.374042 cumulative IPC: 0.372878 (Simulation time: 0 hr 8 min 26 sec) 
Heartbeat CPU 0 instructions: 240000000 cycles: 440682779 heartbeat IPC: 0.359988 cumulative IPC: 0.371926 (Simulation time: 0 hr 8 min 54 sec) 
*** Reached end of trace for Core: 0 Repeating trace: /mnt/beegfs/pchatz06/selected_traces/502.gcc_r.refrate.input3.region_8.w_0.1032_0.1156.trace.gz
Heartbeat CPU 0 instructions: 250000001 cycles: 465384704 heartbeat IPC: 0.404827 cumulative IPC: 0.373952 (Simulation time: 0 hr 9 min 20 sec) 
Finished CPU 0 instructions: 150000000 cycles: 401120634 cumulative IPC: 0.373952 (Simulation time: 0 hr 9 min 20 sec) 

CPU 0 Branch Prediction Accuracy: 94.2931% MPKI: 10.9597
Number of Branches: 28806306 Number of Mispredictions: 1643953
Number of LOAD Instructions: 69393987
Number of LOAD Instructions (ROI): 69393987
Number of STORE Instructions: 31622665
Number of STORE Instructions (ROI): 31622665
Total Destination Memory Operands: 33628910
Total Destination Memory Operands (ROI): 33628910
Total Source Memory Operands: 69395976
Total Source Memory Operands (ROI): 69395976
Number of DEPENDED LOADS: 2708246
Number of DEPENDED LOADS (ROI): 2708246
Number of SQ_ADDED: 33628910
Number of SQ_ADDED (ROI): 33628910
Number of LQ_ADDED: 93617379
Number of LQ_ADDED (ROI): 93617379
Number of Instructions read from trace: 250000006

ChampSim completed all CPUs

Region of Interest Statistics

CPU 0 cumulative IPC: 0.373952 instructions: 150000000 cycles: 401120634
ITLB TOTAL     ACCESS:   33380432  HIT:   33375852  MISS:       4580
ITLB LOAD      ACCESS:   33380432  HIT:   33375852  MISS:       4580
ITLB RFO       ACCESS:          0  HIT:          0  MISS:          0
ITLB PREFETCH  ACCESS:          0  HIT:          0  MISS:          0
ITLB WRITEBACK ACCESS:          0  HIT:          0  MISS:          0
ITLB PREFETCH  REQUESTED:          0  ISSUED:          0  USEFUL:          0  USELESS:          0
ITLB TOTAL MSHR MERGED:       4814
ITLB LOAD MSHR MERGED:       4814
ITLB RFO MSHR MERGED:          0
ITLB PREFETCH MSHR MERGED:          0
ITLB WRITEBACK MSHR MERGED:          0
ITLB TOTAL ACCESSES:   33385246 HITS:   33375852 MISSES:       9394
ITLB LOAD ACCESSES:   33385246 HITS:   33375852 MISSES:       9394
ITLB RFO ACCESSES:          0 HITS:          0 MISSES:          0
ITLB PREFETCH ACCESSES:          0 HITS:          0 MISSES:          0
ITLB WRITEBACK ACCESSES:          0 HITS:          0 MISSES:          0
ITLB RQ ACCESS:  149999955
ITLB RQ TO_CACHE:   33385246
ITLB RQ MERGED:  116614709
ITLB RQ FORWARD:          0
ITLB WQ ACCESS:          0
ITLB WQ TO_CACHE:          0
ITLB WQ MERGED:          0
ITLB WQ FORWARD:          0
DTLB TOTAL     ACCESS:   48581965  HIT:   48234090  MISS:     347875
DTLB LOAD      ACCESS:   31466034  HIT:   31145692  MISS:     320342
DTLB RFO       ACCESS:   17115931  HIT:   17088398  MISS:      27533
DTLB PREFETCH  ACCESS:          0  HIT:          0  MISS:          0
DTLB WRITEBACK ACCESS:          0  HIT:          0  MISS:          0
DTLB PREFETCH  REQUESTED:          0  ISSUED:          0  USEFUL:          0  USELESS:          0
DTLB TOTAL MSHR MERGED:      59134
DTLB LOAD MSHR MERGED:      50953
DTLB RFO MSHR MERGED:       8181
DTLB PREFETCH MSHR MERGED:          0
DTLB WRITEBACK MSHR MERGED:          0
DTLB TOTAL ACCESSES:   48641099 HITS:   48234090 MISSES:     407009
DTLB LOAD ACCESSES:   31516987 HITS:   31145692 MISSES:     371295
DTLB RFO ACCESSES:   17124112 HITS:   17088398 MISSES:      35714
DTLB PREFETCH ACCESSES:          0 HITS:          0 MISSES:          0
DTLB WRITEBACK ACCESSES:          0 HITS:          0 MISSES:          0
DTLB RQ ACCESS:   60867704
DTLB RQ TO_CACHE:   48641099
DTLB RQ MERGED:   12226605
DTLB RQ FORWARD:          0
DTLB WQ ACCESS:          0
DTLB WQ TO_CACHE:          0
DTLB WQ MERGED:          0
DTLB WQ FORWARD:          0
L1D TOTAL     ACCESS:   83767841  HIT:   79317224  MISS:    4450617
L1D LOAD      ACCESS:   33037978  HIT:   31048092  MISS:    1989886
L1D RFO       ACCESS:   19294563  HIT:   19056034  MISS:     238529
L1D PREFETCH  ACCESS:   31435300  HIT:   29213098  MISS:    2222202
L1D WRITEBACK ACCESS:          0  HIT:          0  MISS:          0
L1D PREFETCH  REQUESTED:   33215740  ISSUED:   33045063  USEFUL:     974136  USELESS:    1247966
L1D TOTAL MSHR MERGED:    1289419
L1D LOAD MSHR MERGED:     274662
L1D RFO MSHR MERGED:     507592
L1D PREFETCH MSHR MERGED:     507165
L1D WRITEBACK MSHR MERGED:          0
L1D TOTAL ACCESSES:   85065843 HITS:   79325806 MISSES:    5740037
L1D LOAD ACCESSES:   33216327 HITS:   31048679 MISSES:    2167648
L1D RFO ACCESSES:   19787829 HITS:   19056034 MISSES:     731795
L1D PREFETCH ACCESSES:   32061687 HITS:   29221093 MISSES:    2840594
L1D WRITEBACK ACCESSES:          0 HITS:          0 MISSES:          0
L1D RQ ACCESS:   40859995
L1D RQ TO_CACHE:   33215740
L1D RQ MERGED:    7643668
L1D RQ FORWARD:          0
L1D WQ ACCESS:   20007711
L1D WQ TO_CACHE:   19787829
L1D WQ MERGED:     219882
L1D WQ FORWARD:       8582
L1I TOTAL     ACCESS:   41508459  HIT:   41107793  MISS:     400666
L1I LOAD      ACCESS:   41508459  HIT:   41107793  MISS:     400666
L1I RFO       ACCESS:          0  HIT:          0  MISS:          0
L1I PREFETCH  ACCESS:          0  HIT:          0  MISS:          0
L1I WRITEBACK ACCESS:          0  HIT:          0  MISS:          0
L1I PREFETCH  REQUESTED:          0  ISSUED:          0  USEFUL:          0  USELESS:          0
L1I TOTAL MSHR MERGED:     244390
L1I LOAD MSHR MERGED:     244390
L1I RFO MSHR MERGED:          0
L1I PREFETCH MSHR MERGED:          0
L1I WRITEBACK MSHR MERGED:          0
L1I TOTAL ACCESSES:   41752849 HITS:   41107793 MISSES:     645056
L1I LOAD ACCESSES:   41752849 HITS:   41107793 MISSES:     645056
L1I RFO ACCESSES:          0 HITS:          0 MISSES:          0
L1I PREFETCH ACCESSES:          0 HITS:          0 MISSES:          0
L1I WRITEBACK ACCESSES:          0 HITS:          0 MISSES:          0
L1I RQ ACCESS:  149999959
L1I RQ TO_CACHE:   41752849
L1I RQ MERGED:  108247110
L1I RQ FORWARD:          0
L1I WQ ACCESS:          0
L1I WQ TO_CACHE:          0
L1I WQ MERGED:          0
L1I WQ FORWARD:          0
L2C TOTAL     ACCESS:    5928797  HIT:    3085407  MISS:    2843390
L2C LOAD      ACCESS:    2293581  HIT:    1159729  MISS:    1133852
L2C RFO       ACCESS:     224191  HIT:      67974  MISS:     156217
L2C PREFETCH  ACCESS:    2554202  HIT:    1004653  MISS:    1549549
L2C WRITEBACK ACCESS:     856823  HIT:     853051  MISS:       3772
L2C PREFETCH  REQUESTED:     241537  ISSUED:     241537  USEFUL:     195641  USELESS:    1354408
L2C TOTAL MSHR MERGED:       8537
L2C LOAD MSHR MERGED:       1414
L2C RFO MSHR MERGED:          2
L2C PREFETCH MSHR MERGED:       7121
L2C WRITEBACK MSHR MERGED:          0
L2C TOTAL ACCESSES:    5938802 HITS:    3085522 MISSES:    2853280
L2C LOAD ACCESSES:    2293652 HITS:    1159800 MISSES:    1133852
L2C RFO ACCESSES:     224203 HITS:      67986 MISSES:     156217
L2C PREFETCH ACCESSES:    2564124 HITS:    1004685 MISSES:    1559439
L2C WRITEBACK ACCESSES:     856823 HITS:     853051 MISSES:       3772
L2C RQ ACCESS:    2517855
L2C RQ TO_CACHE:    2517772
L2C RQ MERGED:          0
L2C RQ FORWARD:          0
L2C WQ ACCESS:     856823
L2C WQ TO_CACHE:     856823
L2C WQ MERGED:          0
L2C WQ FORWARD:        115
LLC TOTAL     ACCESS:    3428475  HIT:    2924753  MISS:     503722
LLC LOAD      ACCESS:    1132432  HIT:     968453  MISS:     163979
LLC RFO       ACCESS:     156214  HIT:      67540  MISS:      88674
LLC PREFETCH  ACCESS:    1552047  HIT:    1301220  MISS:     250827
LLC WRITEBACK ACCESS:     587782  HIT:     587540  MISS:        242
LLC PREFETCH  REQUESTED:          0  ISSUED:          0  USEFUL:      68578  USELESS:     185778
LLC TOTAL MSHR MERGED:        183
LLC LOAD MSHR MERGED:         66
LLC RFO MSHR MERGED:          0
LLC PREFETCH MSHR MERGED:        117
LLC WRITEBACK MSHR MERGED:          0
LLC TOTAL ACCESSES:    3428673 HITS:    2924767 MISSES:     503906
LLC LOAD ACCESSES:    1132438 HITS:     968459 MISSES:     163979
LLC RFO ACCESSES:     156215 HITS:      67541 MISSES:      88674
LLC PREFETCH ACCESSES:    1552238 HITS:    1301227 MISSES:     251011
LLC WRITEBACK ACCESSES:     587782 HITS:     587540 MISSES:        242
LLC 0 RQ ACCESS:    1288653
LLC 0 RQ TO_CACHE:    1288646
LLC 0 RQ MERGED:          0
LLC 0 RQ FORWARD:          0
LLC WQ ACCESS:     587782
LLC WQ TO_CACHE:     587782
LLC WQ MERGED:          0
LLC WQ FORWARD:         14
Major fault: 0 Minor fault: 11388
CPU 0 L1D next line prefetcher final stats
CPU 0 L2C PC-based stride prefetcher final stats

DRAM Statistics
 CHANNEL 0
 RQ ROW_BUFFER_HIT:     166812  ROW_BUFFER_MISS:     335269
 DBUS_CONGESTED:     355136
 WQ ROW_BUFFER_HIT:      23915  ROW_BUFFER_MISS:     187340  FULL:          0

 AVG_CONGESTED_CYCLE: 13
LOADS RETIRED: 42377797
INSTR RETIRED: 150000000
