
*** ChampSim Multicore Out-of-Order Simulator ***

Warmup Instructions: 100000000
Simulation Instructions: 150000000
Number of CPUs: 1
LLC sets: 2048
LLC ways: 16
Clean RRIP Policies: 0 Dirty RRIP Policies: 0 PSEL Width: 10 Track Set: 4294967295 PSEL Mask: 15 Demote Mask: 0DS Algo: 0Window size: 64
Off-chip DRAM Size: 4096 MB Channels: 1 Width: 64-bit Data Rate: 1600 MT/s

CPU 0 runs /mnt/beegfs/pchatz06/selected_traces/505.mcf_r.refrate.input1.region_10.w_0.0341_0.0372.trace.gz
NOT SORTED
TRACE STRING: /mnt/beegfs/pchatz06/selected_traces/505.mcf_r.refrate.input1.region_10.w_0.0341_0.0372.trace.gz
SORTED
TRACE STRING: /mnt/beegfs/pchatz06/selected_traces/505.mcf_r.refrate.input1.region_10.w_0.0341_0.0372.trace.gz
INITIAL
TRACE STRING: /mnt/beegfs/pchatz06/selected_traces/505.mcf_r.refrate.input1.region_10.w_0.0341_0.0372.trace.gz

champsim_seed used: 204

CPU 0 L1D next line prefetcher
CPU 0 L2C IP-based stride prefetcher
Heartbeat CPU 0 instructions: 10000002 cycles: 6282294 heartbeat IPC: 1.59178 cumulative IPC: 1.59178 (Simulation time: 0 hr 0 min 13 sec) 
Heartbeat CPU 0 instructions: 20000000 cycles: 12666284 heartbeat IPC: 1.56642 cumulative IPC: 1.579 (Simulation time: 0 hr 0 min 28 sec) 
Heartbeat CPU 0 instructions: 30000003 cycles: 19318092 heartbeat IPC: 1.50335 cumulative IPC: 1.55295 (Simulation time: 0 hr 0 min 47 sec) 
Heartbeat CPU 0 instructions: 40000000 cycles: 25979085 heartbeat IPC: 1.50128 cumulative IPC: 1.5397 (Simulation time: 0 hr 1 min 7 sec) 
Heartbeat CPU 0 instructions: 50000000 cycles: 32706165 heartbeat IPC: 1.48653 cumulative IPC: 1.52876 (Simulation time: 0 hr 1 min 25 sec) 
Heartbeat CPU 0 instructions: 60000000 cycles: 39345479 heartbeat IPC: 1.50618 cumulative IPC: 1.52495 (Simulation time: 0 hr 1 min 44 sec) 
Heartbeat CPU 0 instructions: 70000001 cycles: 46049284 heartbeat IPC: 1.49169 cumulative IPC: 1.52011 (Simulation time: 0 hr 2 min 4 sec) 
Heartbeat CPU 0 instructions: 80000000 cycles: 52755185 heartbeat IPC: 1.49122 cumulative IPC: 1.51644 (Simulation time: 0 hr 2 min 23 sec) 
Heartbeat CPU 0 instructions: 90000003 cycles: 59501006 heartbeat IPC: 1.4824 cumulative IPC: 1.51258 (Simulation time: 0 hr 2 min 41 sec) 
Heartbeat CPU 0 instructions: 100000000 cycles: 66101241 heartbeat IPC: 1.5151 cumulative IPC: 1.51283 (Simulation time: 0 hr 3 min 1 sec) 

Warmup complete CPU 0 instructions: 100000001 cycles: 66101242 (Simulation time: 0 hr 3 min 1 sec) 

Heartbeat CPU 0 instructions: 110000001 cycles: 103756448 heartbeat IPC: 0.265568 cumulative IPC: 0.265568 (Simulation time: 0 hr 3 min 38 sec) 
Heartbeat CPU 0 instructions: 120000000 cycles: 139338856 heartbeat IPC: 0.281038 cumulative IPC: 0.273084 (Simulation time: 0 hr 4 min 15 sec) 
Heartbeat CPU 0 instructions: 130000002 cycles: 181202197 heartbeat IPC: 0.238873 cumulative IPC: 0.260641 (Simulation time: 0 hr 4 min 56 sec) 
Heartbeat CPU 0 instructions: 140000000 cycles: 216001756 heartbeat IPC: 0.28736 cumulative IPC: 0.266844 (Simulation time: 0 hr 5 min 30 sec) 
Heartbeat CPU 0 instructions: 150000001 cycles: 254603308 heartbeat IPC: 0.259057 cumulative IPC: 0.265249 (Simulation time: 0 hr 6 min 9 sec) 
Heartbeat CPU 0 instructions: 160000000 cycles: 302392102 heartbeat IPC: 0.209254 cumulative IPC: 0.253924 (Simulation time: 0 hr 6 min 53 sec) 
Heartbeat CPU 0 instructions: 170000000 cycles: 351762137 heartbeat IPC: 0.202552 cumulative IPC: 0.245046 (Simulation time: 0 hr 7 min 38 sec) 
Heartbeat CPU 0 instructions: 180000000 cycles: 390364085 heartbeat IPC: 0.259054 cumulative IPC: 0.246713 (Simulation time: 0 hr 8 min 15 sec) 
Heartbeat CPU 0 instructions: 190000003 cycles: 431341052 heartbeat IPC: 0.24404 cumulative IPC: 0.246413 (Simulation time: 0 hr 8 min 54 sec) 
Heartbeat CPU 0 instructions: 200000000 cycles: 467255894 heartbeat IPC: 0.278436 cumulative IPC: 0.24928 (Simulation time: 0 hr 9 min 29 sec) 
Heartbeat CPU 0 instructions: 210000003 cycles: 512443683 heartbeat IPC: 0.221299 cumulative IPC: 0.246448 (Simulation time: 0 hr 10 min 11 sec) 
Heartbeat CPU 0 instructions: 220000000 cycles: 549428092 heartbeat IPC: 0.270384 cumulative IPC: 0.248279 (Simulation time: 0 hr 10 min 46 sec) 
Heartbeat CPU 0 instructions: 230000000 cycles: 594635428 heartbeat IPC: 0.221203 cumulative IPC: 0.245963 (Simulation time: 0 hr 11 min 28 sec) 
Heartbeat CPU 0 instructions: 240000000 cycles: 634752766 heartbeat IPC: 0.249269 cumulative IPC: 0.246196 (Simulation time: 0 hr 12 min 5 sec) 
*** Reached end of trace for Core: 0 Repeating trace: /mnt/beegfs/pchatz06/selected_traces/505.mcf_r.refrate.input1.region_10.w_0.0341_0.0372.trace.gz
Heartbeat CPU 0 instructions: 250000001 cycles: 687709708 heartbeat IPC: 0.188833 cumulative IPC: 0.241309 (Simulation time: 0 hr 12 min 52 sec) 
Finished CPU 0 instructions: 150000000 cycles: 621608466 cumulative IPC: 0.241309 (Simulation time: 0 hr 12 min 52 sec) 

CPU 0 Branch Prediction Accuracy: 93.2266% MPKI: 8.64585
Number of Branches: 19146604 Number of Mispredictions: 1296878
Number of LOAD Instructions: 82642741
Number of LOAD Instructions (ROI): 82642741
Number of STORE Instructions: 50331214
Number of STORE Instructions (ROI): 50331214
Total Destination Memory Operands: 51763731
Total Destination Memory Operands (ROI): 51763731
Total Source Memory Operands: 82642741
Total Source Memory Operands (ROI): 82642741
Number of DEPENDED LOADS: 1729205
Number of DEPENDED LOADS (ROI): 1729205
Number of SQ_ADDED: 51763731
Number of SQ_ADDED (ROI): 51763731
Number of LQ_ADDED: 147332767
Number of LQ_ADDED (ROI): 147332767
Number of Instructions read from trace: 250000032

ChampSim completed all CPUs

Region of Interest Statistics

CPU 0 cumulative IPC: 0.241309 instructions: 150000000 cycles: 621608466
ITLB TOTAL     ACCESS:   25741087  HIT:   25741087  MISS:          0
ITLB LOAD      ACCESS:   25741087  HIT:   25741087  MISS:          0
ITLB RFO       ACCESS:          0  HIT:          0  MISS:          0
ITLB PREFETCH  ACCESS:          0  HIT:          0  MISS:          0
ITLB WRITEBACK ACCESS:          0  HIT:          0  MISS:          0
ITLB PREFETCH  REQUESTED:          0  ISSUED:          0  USEFUL:          0  USELESS:          0
ITLB TOTAL MSHR MERGED:          0
ITLB LOAD MSHR MERGED:          0
ITLB RFO MSHR MERGED:          0
ITLB PREFETCH MSHR MERGED:          0
ITLB WRITEBACK MSHR MERGED:          0
ITLB TOTAL ACCESSES:   25741087 HITS:   25741087 MISSES:          0
ITLB LOAD ACCESSES:   25741087 HITS:   25741087 MISSES:          0
ITLB RFO ACCESSES:          0 HITS:          0 MISSES:          0
ITLB PREFETCH ACCESSES:          0 HITS:          0 MISSES:          0
ITLB WRITEBACK ACCESSES:          0 HITS:          0 MISSES:          0
ITLB RQ ACCESS:  149999943
ITLB RQ TO_CACHE:   25741087
ITLB RQ MERGED:  124258856
ITLB RQ FORWARD:          0
ITLB WQ ACCESS:          0
ITLB WQ TO_CACHE:          0
ITLB WQ MERGED:          0
ITLB WQ FORWARD:          0
DTLB TOTAL     ACCESS:   46405080  HIT:   46057290  MISS:     347790
DTLB LOAD      ACCESS:   28194391  HIT:   27861995  MISS:     332396
DTLB RFO       ACCESS:   18210689  HIT:   18195295  MISS:      15394
DTLB PREFETCH  ACCESS:          0  HIT:          0  MISS:          0
DTLB WRITEBACK ACCESS:          0  HIT:          0  MISS:          0
DTLB PREFETCH  REQUESTED:          0  ISSUED:          0  USEFUL:          0  USELESS:          0
DTLB TOTAL MSHR MERGED:      49162
DTLB LOAD MSHR MERGED:      35139
DTLB RFO MSHR MERGED:      14023
DTLB PREFETCH MSHR MERGED:          0
DTLB WRITEBACK MSHR MERGED:          0
DTLB TOTAL ACCESSES:   46454242 HITS:   46057290 MISSES:     396952
DTLB LOAD ACCESSES:   28229530 HITS:   27861995 MISSES:     367535
DTLB RFO ACCESSES:   18224712 HITS:   18195295 MISSES:      29417
DTLB PREFETCH ACCESSES:          0 HITS:          0 MISSES:          0
DTLB WRITEBACK ACCESSES:          0 HITS:          0 MISSES:          0
DTLB RQ ACCESS:   80911664
DTLB RQ TO_CACHE:   46454242
DTLB RQ MERGED:   34457422
DTLB RQ FORWARD:          0
DTLB WQ ACCESS:          0
DTLB WQ TO_CACHE:          0
DTLB WQ MERGED:          0
DTLB WQ FORWARD:          0
L1D TOTAL     ACCESS:   88560467  HIT:   71663391  MISS:   16897076
L1D LOAD      ACCESS:   31671572  HIT:   22198259  MISS:    9473313
L1D RFO       ACCESS:   30600123  HIT:   29675587  MISS:     924536
L1D PREFETCH  ACCESS:   26288772  HIT:   19789545  MISS:    6499227
L1D WRITEBACK ACCESS:          0  HIT:          0  MISS:          0
L1D PREFETCH  REQUESTED:   33096418  ISSUED:   32628194  USEFUL:    1744273  USELESS:    4755018
L1D TOTAL MSHR MERGED:    5956723
L1D LOAD MSHR MERGED:    2103316
L1D RFO MSHR MERGED:    2505979
L1D PREFETCH MSHR MERGED:    1347428
L1D WRITEBACK MSHR MERGED:          0
L1D TOTAL ACCESSES:   94517191 HITS:   71663391 MISSES:   22853800
L1D LOAD ACCESSES:   33096418 HITS:   22198259 MISSES:   10898159
L1D RFO ACCESSES:   33094355 HITS:   29675587 MISSES:    3418768
L1D PREFETCH ACCESSES:   28326418 HITS:   19789545 MISSES:    8536873
L1D WRITEBACK ACCESSES:          0 HITS:          0 MISSES:          0
L1D RQ ACCESS:   47430061
L1D RQ TO_CACHE:   33096418
L1D RQ MERGED:   14333643
L1D RQ FORWARD:          0
L1D WQ ACCESS:   33481599
L1D WQ TO_CACHE:   33094361
L1D WQ MERGED:     387238
L1D WQ FORWARD:          0
L1I TOTAL     ACCESS:   33519170  HIT:   33519170  MISS:          0
L1I LOAD      ACCESS:   33519170  HIT:   33519170  MISS:          0
L1I RFO       ACCESS:          0  HIT:          0  MISS:          0
L1I PREFETCH  ACCESS:          0  HIT:          0  MISS:          0
L1I WRITEBACK ACCESS:          0  HIT:          0  MISS:          0
L1I PREFETCH  REQUESTED:          0  ISSUED:          0  USEFUL:          0  USELESS:          0
L1I TOTAL MSHR MERGED:          0
L1I LOAD MSHR MERGED:          0
L1I RFO MSHR MERGED:          0
L1I PREFETCH MSHR MERGED:          0
L1I WRITEBACK MSHR MERGED:          0
L1I TOTAL ACCESSES:   33519170 HITS:   33519170 MISSES:          0
L1I LOAD ACCESSES:   33519170 HITS:   33519170 MISSES:          0
L1I RFO ACCESSES:          0 HITS:          0 MISSES:          0
L1I PREFETCH ACCESSES:          0 HITS:          0 MISSES:          0
L1I WRITEBACK ACCESSES:          0 HITS:          0 MISSES:          0
L1I RQ ACCESS:  149999943
L1I RQ TO_CACHE:   33519170
L1I RQ MERGED:  116480773
L1I RQ FORWARD:          0
L1I WQ ACCESS:          0
L1I WQ TO_CACHE:          0
L1I WQ MERGED:          0
L1I WQ FORWARD:          0
L2C TOTAL     ACCESS:   23151048  HIT:    6507797  MISS:   16643251
L2C LOAD      ACCESS:    8794362  HIT:    1917723  MISS:    6876639
L2C RFO       ACCESS:     912787  HIT:       1150  MISS:     911637
L2C PREFETCH  ACCESS:   11674734  HIT:    2829796  MISS:    8844938
L2C WRITEBACK ACCESS:    1769165  HIT:    1759128  MISS:      10037
L2C PREFETCH  REQUESTED:    7519883  ISSUED:    7519883  USEFUL:    1807740  USELESS:    7037204
L2C TOTAL MSHR MERGED:     901232
L2C LOAD MSHR MERGED:      51090
L2C RFO MSHR MERGED:          0
L2C PREFETCH MSHR MERGED:     850142
L2C WRITEBACK MSHR MERGED:          0
L2C TOTAL ACCESSES:   26109659 HITS:    6508429 MISSES:   19601230
L2C LOAD ACCESSES:    8794842 HITS:    1918203 MISSES:    6876639
L2C RFO ACCESSES:     912789 HITS:       1152 MISSES:     911637
L2C PREFETCH ACCESSES:   14632863 HITS:    2829946 MISSES:   11802917
L2C WRITEBACK ACCESSES:    1769165 HITS:    1759128 MISSES:      10037
L2C RQ ACCESS:    9707632
L2C RQ TO_CACHE:    9707150
L2C RQ MERGED:          0
L2C RQ FORWARD:          0
L2C WQ ACCESS:    1769165
L2C WQ TO_CACHE:    1769165
L2C WQ MERGED:          0
L2C WQ FORWARD:        632
LLC TOTAL     ACCESS:   19952619  HIT:    3351018  MISS:   16601601
LLC LOAD      ACCESS:    6825549  HIT:     432043  MISS:    6393506
LLC RFO       ACCESS:     911637  HIT:        258  MISS:     911379
LLC PREFETCH  ACCESS:   10591773  HIT:    1298253  MISS:    9293520
LLC WRITEBACK ACCESS:    1623660  HIT:    1620464  MISS:       3196
LLC PREFETCH  REQUESTED:          0  ISSUED:          0  USEFUL:     417988  USELESS:    8878566
LLC TOTAL MSHR MERGED:     345694
LLC LOAD MSHR MERGED:      87513
LLC RFO MSHR MERGED:          0
LLC PREFETCH MSHR MERGED:     258181
LLC WRITEBACK MSHR MERGED:          0
LLC TOTAL ACCESSES:   20298315 HITS:    3351020 MISSES:   16947295
LLC LOAD ACCESSES:    6825549 HITS:     432043 MISSES:    6393506
LLC RFO ACCESSES:     911637 HITS:        258 MISSES:     911379
LLC PREFETCH ACCESSES:   10937469 HITS:    1298255 MISSES:    9639214
LLC WRITEBACK ACCESSES:    1623660 HITS:    1620464 MISSES:       3196
LLC 0 RQ ACCESS:    7737186
LLC 0 RQ TO_CACHE:    7737186
LLC 0 RQ MERGED:          0
LLC 0 RQ FORWARD:          0
LLC WQ ACCESS:    1623660
LLC WQ TO_CACHE:    1623660
LLC WQ MERGED:          0
LLC WQ FORWARD:          2
Major fault: 0 Minor fault: 116316
CPU 0 L1D next line prefetcher final stats
CPU 0 L2C PC-based stride prefetcher final stats

DRAM Statistics
 CHANNEL 0
 RQ ROW_BUFFER_HIT:   14114794  ROW_BUFFER_MISS:    2483424
 DBUS_CONGESTED:   13608006
 WQ ROW_BUFFER_HIT:     418390  ROW_BUFFER_MISS:    1174986  FULL:          0

 AVG_CONGESTED_CYCLE: 13
LOADS RETIRED: 48544696
INSTR RETIRED: 150000000
