
*** ChampSim Multicore Out-of-Order Simulator ***

Warmup Instructions: 100000000
Simulation Instructions: 150000000
Number of CPUs: 1
LLC sets: 2048
LLC ways: 16
Clean RRIP Policies: 0 Dirty RRIP Policies: 0 PSEL Width: 10 Track Set: 4294967295 PSEL Mask: 15 Demote Mask: 0DS Algo: 0Window size: 64
Off-chip DRAM Size: 4096 MB Channels: 1 Width: 64-bit Data Rate: 1600 MT/s

CPU 0 runs /mnt/beegfs/pchatz06/selected_traces/505.mcf_r.refrate.input1.region_12.w_0.1796_0.1959.trace.gz
NOT SORTED
TRACE STRING: /mnt/beegfs/pchatz06/selected_traces/505.mcf_r.refrate.input1.region_12.w_0.1796_0.1959.trace.gz
SORTED
TRACE STRING: /mnt/beegfs/pchatz06/selected_traces/505.mcf_r.refrate.input1.region_12.w_0.1796_0.1959.trace.gz
INITIAL
TRACE STRING: /mnt/beegfs/pchatz06/selected_traces/505.mcf_r.refrate.input1.region_12.w_0.1796_0.1959.trace.gz

champsim_seed used: 216

CPU 0 L1D next line prefetcher
CPU 0 L2C IP-based stride prefetcher
Heartbeat CPU 0 instructions: 10000001 cycles: 6148811 heartbeat IPC: 1.62633 cumulative IPC: 1.62633 (Simulation time: 0 hr 0 min 15 sec) 
Heartbeat CPU 0 instructions: 20000000 cycles: 12296468 heartbeat IPC: 1.62664 cumulative IPC: 1.62648 (Simulation time: 0 hr 0 min 30 sec) 
Heartbeat CPU 0 instructions: 30000000 cycles: 18421306 heartbeat IPC: 1.6327 cumulative IPC: 1.62855 (Simulation time: 0 hr 0 min 45 sec) 
Heartbeat CPU 0 instructions: 40000000 cycles: 24548221 heartbeat IPC: 1.63214 cumulative IPC: 1.62945 (Simulation time: 0 hr 1 min 0 sec) 
Heartbeat CPU 0 instructions: 50000001 cycles: 30697813 heartbeat IPC: 1.62612 cumulative IPC: 1.62878 (Simulation time: 0 hr 1 min 15 sec) 
Heartbeat CPU 0 instructions: 60000000 cycles: 36823578 heartbeat IPC: 1.63245 cumulative IPC: 1.62939 (Simulation time: 0 hr 1 min 30 sec) 
Heartbeat CPU 0 instructions: 70000003 cycles: 42934974 heartbeat IPC: 1.63629 cumulative IPC: 1.63037 (Simulation time: 0 hr 1 min 45 sec) 
Heartbeat CPU 0 instructions: 80000000 cycles: 49030981 heartbeat IPC: 1.64042 cumulative IPC: 1.63162 (Simulation time: 0 hr 2 min 0 sec) 
Heartbeat CPU 0 instructions: 90000000 cycles: 55155983 heartbeat IPC: 1.63265 cumulative IPC: 1.63174 (Simulation time: 0 hr 2 min 15 sec) 
Heartbeat CPU 0 instructions: 100000000 cycles: 61264892 heartbeat IPC: 1.63695 cumulative IPC: 1.63226 (Simulation time: 0 hr 2 min 30 sec) 

Warmup complete CPU 0 instructions: 100000001 cycles: 61264893 (Simulation time: 0 hr 2 min 30 sec) 

Heartbeat CPU 0 instructions: 110000000 cycles: 85125053 heartbeat IPC: 0.419109 cumulative IPC: 0.419109 (Simulation time: 0 hr 2 min 56 sec) 
Heartbeat CPU 0 instructions: 120000000 cycles: 108937466 heartbeat IPC: 0.419949 cumulative IPC: 0.419528 (Simulation time: 0 hr 3 min 23 sec) 
Heartbeat CPU 0 instructions: 130000001 cycles: 132892248 heartbeat IPC: 0.417453 cumulative IPC: 0.418834 (Simulation time: 0 hr 3 min 50 sec) 
Heartbeat CPU 0 instructions: 140000000 cycles: 156923391 heartbeat IPC: 0.416127 cumulative IPC: 0.418154 (Simulation time: 0 hr 4 min 18 sec) 
Heartbeat CPU 0 instructions: 150000000 cycles: 180881635 heartbeat IPC: 0.417393 cumulative IPC: 0.418002 (Simulation time: 0 hr 4 min 45 sec) 
Heartbeat CPU 0 instructions: 160000000 cycles: 205426635 heartbeat IPC: 0.407415 cumulative IPC: 0.416199 (Simulation time: 0 hr 5 min 12 sec) 
Heartbeat CPU 0 instructions: 170000001 cycles: 230255365 heartbeat IPC: 0.402759 cumulative IPC: 0.414225 (Simulation time: 0 hr 5 min 40 sec) 
Heartbeat CPU 0 instructions: 180000000 cycles: 255039886 heartbeat IPC: 0.403478 cumulative IPC: 0.41285 (Simulation time: 0 hr 6 min 8 sec) 
Heartbeat CPU 0 instructions: 190000000 cycles: 280092129 heartbeat IPC: 0.399166 cumulative IPC: 0.411283 (Simulation time: 0 hr 6 min 36 sec) 
Heartbeat CPU 0 instructions: 200000000 cycles: 305007789 heartbeat IPC: 0.401354 cumulative IPC: 0.410268 (Simulation time: 0 hr 7 min 3 sec) 
Heartbeat CPU 0 instructions: 210000000 cycles: 329970944 heartbeat IPC: 0.40059 cumulative IPC: 0.409369 (Simulation time: 0 hr 7 min 30 sec) 
Heartbeat CPU 0 instructions: 220000000 cycles: 355118221 heartbeat IPC: 0.397657 cumulative IPC: 0.408367 (Simulation time: 0 hr 7 min 58 sec) 
Heartbeat CPU 0 instructions: 230000003 cycles: 380052054 heartbeat IPC: 0.401062 cumulative IPC: 0.407796 (Simulation time: 0 hr 8 min 25 sec) 
Heartbeat CPU 0 instructions: 240000000 cycles: 405178356 heartbeat IPC: 0.397989 cumulative IPC: 0.407079 (Simulation time: 0 hr 8 min 52 sec) 
*** Reached end of trace for Core: 0 Repeating trace: /mnt/beegfs/pchatz06/selected_traces/505.mcf_r.refrate.input1.region_12.w_0.1796_0.1959.trace.gz
Heartbeat CPU 0 instructions: 250000002 cycles: 430165699 heartbeat IPC: 0.400203 cumulative IPC: 0.406613 (Simulation time: 0 hr 9 min 19 sec) 
Finished CPU 0 instructions: 150000001 cycles: 368900806 cumulative IPC: 0.406613 (Simulation time: 0 hr 9 min 19 sec) 

CPU 0 Branch Prediction Accuracy: 90.2832% MPKI: 20.3754
Number of Branches: 31454094 Number of Mispredictions: 3056316
Number of LOAD Instructions: 87780931
Number of LOAD Instructions (ROI): 87780931
Number of STORE Instructions: 22318083
Number of STORE Instructions (ROI): 22318083
Total Destination Memory Operands: 23559093
Total Destination Memory Operands (ROI): 23559093
Total Source Memory Operands: 87780931
Total Source Memory Operands (ROI): 87780931
Number of DEPENDED LOADS: 7515015
Number of DEPENDED LOADS (ROI): 7515015
Number of SQ_ADDED: 23559091
Number of SQ_ADDED (ROI): 23559091
Number of LQ_ADDED: 88234190
Number of LQ_ADDED (ROI): 88234190
Number of Instructions read from trace: 250000016

ChampSim completed all CPUs

Region of Interest Statistics

CPU 0 cumulative IPC: 0.406613 instructions: 150000001 cycles: 368900806
ITLB TOTAL     ACCESS:   25365750  HIT:   25365750  MISS:          0
ITLB LOAD      ACCESS:   25365750  HIT:   25365750  MISS:          0
ITLB RFO       ACCESS:          0  HIT:          0  MISS:          0
ITLB PREFETCH  ACCESS:          0  HIT:          0  MISS:          0
ITLB WRITEBACK ACCESS:          0  HIT:          0  MISS:          0
ITLB PREFETCH  REQUESTED:          0  ISSUED:          0  USEFUL:          0  USELESS:          0
ITLB TOTAL MSHR MERGED:          0
ITLB LOAD MSHR MERGED:          0
ITLB RFO MSHR MERGED:          0
ITLB PREFETCH MSHR MERGED:          0
ITLB WRITEBACK MSHR MERGED:          0
ITLB TOTAL ACCESSES:   25365750 HITS:   25365750 MISSES:          0
ITLB LOAD ACCESSES:   25365750 HITS:   25365750 MISSES:          0
ITLB RFO ACCESSES:          0 HITS:          0 MISSES:          0
ITLB PREFETCH ACCESSES:          0 HITS:          0 MISSES:          0
ITLB WRITEBACK ACCESSES:          0 HITS:          0 MISSES:          0
ITLB RQ ACCESS:  149999937
ITLB RQ TO_CACHE:   25365750
ITLB RQ MERGED:  124634187
ITLB RQ FORWARD:          0
ITLB WQ ACCESS:          0
ITLB WQ TO_CACHE:          0
ITLB WQ MERGED:          0
ITLB WQ FORWARD:          0
DTLB TOTAL     ACCESS:   46982789  HIT:   45836986  MISS:    1145803
DTLB LOAD      ACCESS:   35980120  HIT:   34914669  MISS:    1065451
DTLB RFO       ACCESS:   11002669  HIT:   10922317  MISS:      80352
DTLB PREFETCH  ACCESS:          0  HIT:          0  MISS:          0
DTLB WRITEBACK ACCESS:          0  HIT:          0  MISS:          0
DTLB PREFETCH  REQUESTED:          0  ISSUED:          0  USEFUL:          0  USELESS:          0
DTLB TOTAL MSHR MERGED:      85018
DTLB LOAD MSHR MERGED:      47783
DTLB RFO MSHR MERGED:      37235
DTLB PREFETCH MSHR MERGED:          0
DTLB WRITEBACK MSHR MERGED:          0
DTLB TOTAL ACCESSES:   47067807 HITS:   45836986 MISSES:    1230821
DTLB LOAD ACCESSES:   36027903 HITS:   34914669 MISSES:    1113234
DTLB RFO ACCESSES:   11039904 HITS:   10922317 MISSES:     117587
DTLB PREFETCH ACCESSES:          0 HITS:          0 MISSES:          0
DTLB WRITEBACK ACCESSES:          0 HITS:          0 MISSES:          0
DTLB RQ ACCESS:   62273678
DTLB RQ TO_CACHE:   47067807
DTLB RQ MERGED:   15205871
DTLB RQ FORWARD:          0
DTLB WQ ACCESS:          0
DTLB WQ TO_CACHE:          0
DTLB WQ MERGED:          0
DTLB WQ FORWARD:          0
L1D TOTAL     ACCESS:   84480899  HIT:   73355278  MISS:   11125621
L1D LOAD      ACCESS:   38503137  HIT:   32808918  MISS:    5694219
L1D RFO       ACCESS:   12097311  HIT:   11433340  MISS:     663971
L1D PREFETCH  ACCESS:   33880451  HIT:   29113020  MISS:    4767431
L1D WRITEBACK ACCESS:          0  HIT:          0  MISS:          0
L1D PREFETCH  REQUESTED:   38766512  ISSUED:   38288222  USEFUL:     831391  USELESS:    3936040
L1D TOTAL MSHR MERGED:    2565981
L1D LOAD MSHR MERGED:     518275
L1D RFO MSHR MERGED:    1080878
L1D PREFETCH MSHR MERGED:     966828
L1D WRITEBACK MSHR MERGED:          0
L1D TOTAL ACCESSES:   87066686 HITS:   73375083 MISSES:   13691603
L1D LOAD ACCESSES:   38766512 HITS:   32808918 MISSES:    5957594
L1D RFO ACCESSES:   13177934 HITS:   11433340 MISSES:    1744594
L1D PREFETCH ACCESSES:   35122240 HITS:   29132825 MISSES:    5989415
L1D WRITEBACK ACCESSES:          0 HITS:          0 MISSES:          0
L1D RQ ACCESS:   48325453
L1D RQ TO_CACHE:   38766513
L1D RQ MERGED:    9558940
L1D RQ FORWARD:          0
L1D WQ ACCESS:   13948227
L1D WQ TO_CACHE:   13177935
L1D WQ MERGED:     770292
L1D WQ FORWARD:      19805
L1I TOTAL     ACCESS:   35031123  HIT:   35031123  MISS:          0
L1I LOAD      ACCESS:   35031123  HIT:   35031123  MISS:          0
L1I RFO       ACCESS:          0  HIT:          0  MISS:          0
L1I PREFETCH  ACCESS:          0  HIT:          0  MISS:          0
L1I WRITEBACK ACCESS:          0  HIT:          0  MISS:          0
L1I PREFETCH  REQUESTED:          0  ISSUED:          0  USEFUL:          0  USELESS:          0
L1I TOTAL MSHR MERGED:          0
L1I LOAD MSHR MERGED:          0
L1I RFO MSHR MERGED:          0
L1I PREFETCH MSHR MERGED:          0
L1I WRITEBACK MSHR MERGED:          0
L1I TOTAL ACCESSES:   35031123 HITS:   35031123 MISSES:          0
L1I LOAD ACCESSES:   35031123 HITS:   35031123 MISSES:          0
L1I RFO ACCESSES:          0 HITS:          0 MISSES:          0
L1I PREFETCH ACCESSES:          0 HITS:          0 MISSES:          0
L1I WRITEBACK ACCESSES:          0 HITS:          0 MISSES:          0
L1I RQ ACCESS:  149999941
L1I RQ TO_CACHE:   35031123
L1I RQ MERGED:  114968818
L1I RQ FORWARD:          0
L1I WQ ACCESS:          0
L1I WQ TO_CACHE:          0
L1I WQ MERGED:          0
L1I WQ FORWARD:          0
L2C TOTAL     ACCESS:   12507083  HIT:    6233297  MISS:    6273786
L2C LOAD      ACCESS:    5439302  HIT:    2597832  MISS:    2841470
L2C RFO       ACCESS:     663703  HIT:     193283  MISS:     470420
L2C PREFETCH  ACCESS:    5477313  HIT:    2516714  MISS:    2960599
L2C WRITEBACK ACCESS:     926765  HIT:     925468  MISS:       1297
L2C PREFETCH  REQUESTED:     938372  ISSUED:     938372  USEFUL:     405873  USELESS:    2554450
L2C TOTAL MSHR MERGED:     206190
L2C LOAD MSHR MERGED:      37996
L2C RFO MSHR MERGED:          0
L2C PREFETCH MSHR MERGED:     168194
L2C WRITEBACK MSHR MERGED:          0
L2C TOTAL ACCESSES:   12755826 HITS:    6233347 MISSES:    6522479
L2C LOAD ACCESSES:    5439319 HITS:    2597849 MISSES:    2841470
L2C RFO ACCESSES:     663716 HITS:     193296 MISSES:     470420
L2C PREFETCH ACCESSES:    5726026 HITS:    2516734 MISSES:    3209292
L2C WRITEBACK ACCESSES:     926765 HITS:     925468 MISSES:       1297
L2C RQ ACCESS:    6103035
L2C RQ TO_CACHE:    6103005
L2C RQ MERGED:          0
L2C RQ FORWARD:          0
L2C WQ ACCESS:     926765
L2C WQ TO_CACHE:     926765
L2C WQ MERGED:          0
L2C WQ FORWARD:         50
LLC TOTAL     ACCESS:    6899414  HIT:    5286886  MISS:    1612528
LLC LOAD      ACCESS:    2803469  HIT:    2075699  MISS:     727770
LLC RFO       ACCESS:     470394  HIT:     469757  MISS:        637
LLC PREFETCH  ACCESS:    3020843  HIT:    2136822  MISS:     884021
LLC WRITEBACK ACCESS:     604708  HIT:     604608  MISS:        100
LLC PREFETCH  REQUESTED:          0  ISSUED:          0  USEFUL:     190916  USELESS:     698126
LLC TOTAL MSHR MERGED:      16752
LLC LOAD MSHR MERGED:       4990
LLC RFO MSHR MERGED:          0
LLC PREFETCH MSHR MERGED:      11762
LLC WRITEBACK MSHR MERGED:          0
LLC TOTAL ACCESSES:    6916200 HITS:    5286920 MISSES:    1629280
LLC LOAD ACCESSES:    2803474 HITS:    2075704 MISSES:     727770
LLC RFO ACCESSES:     470420 HITS:     469783 MISSES:        637
LLC PREFETCH ACCESSES:    3037598 HITS:    2136825 MISSES:     900773
LLC WRITEBACK ACCESSES:     604708 HITS:     604608 MISSES:        100
LLC 0 RQ ACCESS:    3273894
LLC 0 RQ TO_CACHE:    3273863
LLC 0 RQ MERGED:          0
LLC 0 RQ FORWARD:          0
LLC WQ ACCESS:     604708
LLC WQ TO_CACHE:     604708
LLC WQ MERGED:          0
LLC WQ FORWARD:         34
Major fault: 0 Minor fault: 33541
CPU 0 L1D next line prefetcher final stats
CPU 0 L2C PC-based stride prefetcher final stats

DRAM Statistics
 CHANNEL 0
 RQ ROW_BUFFER_HIT:    1317063  ROW_BUFFER_MISS:     294562
 DBUS_CONGESTED:     914459
 WQ ROW_BUFFER_HIT:        141  ROW_BUFFER_MISS:       3384  FULL:          0

 AVG_CONGESTED_CYCLE: 13
LOADS RETIRED: 52786891
INSTR RETIRED: 150000000
