
*** ChampSim Multicore Out-of-Order Simulator ***

Warmup Instructions: 100000000
Simulation Instructions: 150000000
Number of CPUs: 1
LLC sets: 2048
LLC ways: 16
Clean RRIP Policies: 0 Dirty RRIP Policies: 0 PSEL Width: 10 Track Set: 4294967295 PSEL Mask: 15 Demote Mask: 0DS Algo: 0Window size: 64
Off-chip DRAM Size: 4096 MB Channels: 1 Width: 64-bit Data Rate: 1600 MT/s

CPU 0 runs /mnt/beegfs/pchatz06/selected_traces/527.cam4_r.train.input1.region_13.w_0.037_0.0414.trace.gz
NOT SORTED
TRACE STRING: /mnt/beegfs/pchatz06/selected_traces/527.cam4_r.train.input1.region_13.w_0.037_0.0414.trace.gz
SORTED
TRACE STRING: /mnt/beegfs/pchatz06/selected_traces/527.cam4_r.train.input1.region_13.w_0.037_0.0414.trace.gz
INITIAL
TRACE STRING: /mnt/beegfs/pchatz06/selected_traces/527.cam4_r.train.input1.region_13.w_0.037_0.0414.trace.gz

champsim_seed used: 201

CPU 0 L1D next line prefetcher
CPU 0 L2C IP-based stride prefetcher
Heartbeat CPU 0 instructions: 10000000 cycles: 4244402 heartbeat IPC: 2.35604 cumulative IPC: 2.35604 (Simulation time: 0 hr 0 min 11 sec) 
Heartbeat CPU 0 instructions: 20000000 cycles: 8329248 heartbeat IPC: 2.44807 cumulative IPC: 2.40118 (Simulation time: 0 hr 0 min 21 sec) 
Heartbeat CPU 0 instructions: 30000000 cycles: 12415504 heartbeat IPC: 2.44723 cumulative IPC: 2.41633 (Simulation time: 0 hr 0 min 31 sec) 
Heartbeat CPU 0 instructions: 40000000 cycles: 16523628 heartbeat IPC: 2.4342 cumulative IPC: 2.42078 (Simulation time: 0 hr 0 min 41 sec) 
Heartbeat CPU 0 instructions: 50000003 cycles: 20706052 heartbeat IPC: 2.39096 cumulative IPC: 2.41475 (Simulation time: 0 hr 0 min 51 sec) 
Heartbeat CPU 0 instructions: 60000000 cycles: 24816022 heartbeat IPC: 2.43311 cumulative IPC: 2.41779 (Simulation time: 0 hr 1 min 1 sec) 
Heartbeat CPU 0 instructions: 70000000 cycles: 29034398 heartbeat IPC: 2.37058 cumulative IPC: 2.41093 (Simulation time: 0 hr 1 min 12 sec) 
Heartbeat CPU 0 instructions: 80000000 cycles: 33161250 heartbeat IPC: 2.42315 cumulative IPC: 2.41245 (Simulation time: 0 hr 1 min 22 sec) 
Heartbeat CPU 0 instructions: 90000001 cycles: 37391771 heartbeat IPC: 2.36378 cumulative IPC: 2.40695 (Simulation time: 0 hr 1 min 33 sec) 
Heartbeat CPU 0 instructions: 100000000 cycles: 41526502 heartbeat IPC: 2.41854 cumulative IPC: 2.4081 (Simulation time: 0 hr 1 min 43 sec) 

Warmup complete CPU 0 instructions: 100000002 cycles: 41526503 (Simulation time: 0 hr 1 min 43 sec) 

Heartbeat CPU 0 instructions: 110000000 cycles: 50707189 heartbeat IPC: 1.08924 cumulative IPC: 1.08924 (Simulation time: 0 hr 1 min 59 sec) 
Heartbeat CPU 0 instructions: 120000000 cycles: 59344347 heartbeat IPC: 1.15779 cumulative IPC: 1.12247 (Simulation time: 0 hr 2 min 15 sec) 
Heartbeat CPU 0 instructions: 130000001 cycles: 68407799 heartbeat IPC: 1.10333 cumulative IPC: 1.11602 (Simulation time: 0 hr 2 min 31 sec) 
Heartbeat CPU 0 instructions: 140000000 cycles: 77128820 heartbeat IPC: 1.14665 cumulative IPC: 1.12352 (Simulation time: 0 hr 2 min 47 sec) 
Heartbeat CPU 0 instructions: 150000000 cycles: 86220246 heartbeat IPC: 1.09994 cumulative IPC: 1.11872 (Simulation time: 0 hr 3 min 3 sec) 
Heartbeat CPU 0 instructions: 160000000 cycles: 94786171 heartbeat IPC: 1.16742 cumulative IPC: 1.12656 (Simulation time: 0 hr 3 min 19 sec) 
Heartbeat CPU 0 instructions: 170000003 cycles: 103553116 heartbeat IPC: 1.14065 cumulative IPC: 1.12855 (Simulation time: 0 hr 3 min 34 sec) 
Heartbeat CPU 0 instructions: 180000000 cycles: 112659533 heartbeat IPC: 1.09813 cumulative IPC: 1.12465 (Simulation time: 0 hr 3 min 51 sec) 
Heartbeat CPU 0 instructions: 190000002 cycles: 121450702 heartbeat IPC: 1.13751 cumulative IPC: 1.12607 (Simulation time: 0 hr 4 min 6 sec) 
Heartbeat CPU 0 instructions: 200000000 cycles: 130544114 heartbeat IPC: 1.0997 cumulative IPC: 1.12337 (Simulation time: 0 hr 4 min 23 sec) 
Heartbeat CPU 0 instructions: 210000003 cycles: 139375115 heartbeat IPC: 1.13237 cumulative IPC: 1.12419 (Simulation time: 0 hr 4 min 38 sec) 
Heartbeat CPU 0 instructions: 220000000 cycles: 148357392 heartbeat IPC: 1.1133 cumulative IPC: 1.12327 (Simulation time: 0 hr 4 min 55 sec) 
Heartbeat CPU 0 instructions: 230000003 cycles: 157099974 heartbeat IPC: 1.14383 cumulative IPC: 1.12483 (Simulation time: 0 hr 5 min 10 sec) 
Heartbeat CPU 0 instructions: 240000000 cycles: 166398107 heartbeat IPC: 1.07548 cumulative IPC: 1.12115 (Simulation time: 0 hr 5 min 27 sec) 
*** Reached end of trace for Core: 0 Repeating trace: /mnt/beegfs/pchatz06/selected_traces/527.cam4_r.train.input1.region_13.w_0.037_0.0414.trace.gz
Heartbeat CPU 0 instructions: 250000000 cycles: 175065987 heartbeat IPC: 1.15368 cumulative IPC: 1.12326 (Simulation time: 0 hr 5 min 42 sec) 
Finished CPU 0 instructions: 150000000 cycles: 133539485 cumulative IPC: 1.12326 (Simulation time: 0 hr 5 min 42 sec) 

CPU 0 Branch Prediction Accuracy: 93.1722% MPKI: 5.70503
Number of Branches: 12533302 Number of Mispredictions: 855754
Number of LOAD Instructions: 40812087
Number of LOAD Instructions (ROI): 40812087
Number of STORE Instructions: 14739053
Number of STORE Instructions (ROI): 14739053
Total Destination Memory Operands: 17186368
Total Destination Memory Operands (ROI): 17186368
Total Source Memory Operands: 40812087
Total Source Memory Operands (ROI): 40812087
Number of DEPENDED LOADS: 100214
Number of DEPENDED LOADS (ROI): 100214
Number of SQ_ADDED: 17186367
Number of SQ_ADDED (ROI): 17186367
Number of LQ_ADDED: 42774995
Number of LQ_ADDED (ROI): 42774995
Number of Instructions read from trace: 250000024

ChampSim completed all CPUs

Region of Interest Statistics

CPU 0 cumulative IPC: 1.12326 instructions: 150000000 cycles: 133539485
ITLB TOTAL     ACCESS:   24493464  HIT:   24493464  MISS:          0
ITLB LOAD      ACCESS:   24493464  HIT:   24493464  MISS:          0
ITLB RFO       ACCESS:          0  HIT:          0  MISS:          0
ITLB PREFETCH  ACCESS:          0  HIT:          0  MISS:          0
ITLB WRITEBACK ACCESS:          0  HIT:          0  MISS:          0
ITLB PREFETCH  REQUESTED:          0  ISSUED:          0  USEFUL:          0  USELESS:          0
ITLB TOTAL MSHR MERGED:          0
ITLB LOAD MSHR MERGED:          0
ITLB RFO MSHR MERGED:          0
ITLB PREFETCH MSHR MERGED:          0
ITLB WRITEBACK MSHR MERGED:          0
ITLB TOTAL ACCESSES:   24493464 HITS:   24493464 MISSES:          0
ITLB LOAD ACCESSES:   24493464 HITS:   24493464 MISSES:          0
ITLB RFO ACCESSES:          0 HITS:          0 MISSES:          0
ITLB PREFETCH ACCESSES:          0 HITS:          0 MISSES:          0
ITLB WRITEBACK ACCESSES:          0 HITS:          0 MISSES:          0
ITLB RQ ACCESS:  149999791
ITLB RQ TO_CACHE:   24493464
ITLB RQ MERGED:  125506327
ITLB RQ FORWARD:          0
ITLB WQ ACCESS:          0
ITLB WQ TO_CACHE:          0
ITLB WQ MERGED:          0
ITLB WQ FORWARD:          0
DTLB TOTAL     ACCESS:   23828951  HIT:   23800771  MISS:      28180
DTLB LOAD      ACCESS:   16299856  HIT:   16283803  MISS:      16053
DTLB RFO       ACCESS:    7529095  HIT:    7516968  MISS:      12127
DTLB PREFETCH  ACCESS:          0  HIT:          0  MISS:          0
DTLB WRITEBACK ACCESS:          0  HIT:          0  MISS:          0
DTLB PREFETCH  REQUESTED:          0  ISSUED:          0  USEFUL:          0  USELESS:          0
DTLB TOTAL MSHR MERGED:      22843
DTLB LOAD MSHR MERGED:      14113
DTLB RFO MSHR MERGED:       8730
DTLB PREFETCH MSHR MERGED:          0
DTLB WRITEBACK MSHR MERGED:          0
DTLB TOTAL ACCESSES:   23851794 HITS:   23800771 MISSES:      51023
DTLB LOAD ACCESSES:   16313969 HITS:   16283803 MISSES:      30166
DTLB RFO ACCESSES:    7537825 HITS:    7516968 MISSES:      20857
DTLB PREFETCH ACCESSES:          0 HITS:          0 MISSES:          0
DTLB WRITEBACK ACCESSES:          0 HITS:          0 MISSES:          0
DTLB RQ ACCESS:   34801963
DTLB RQ TO_CACHE:   23851794
DTLB RQ MERGED:   10950169
DTLB RQ FORWARD:          0
DTLB WQ ACCESS:          0
DTLB WQ TO_CACHE:          0
DTLB WQ MERGED:          0
DTLB WQ FORWARD:          0
L1D TOTAL     ACCESS:   32553510  HIT:   30140175  MISS:    2413335
L1D LOAD      ACCESS:   15337019  HIT:   14733663  MISS:     603356
L1D RFO       ACCESS:    6754122  HIT:    6019823  MISS:     734299
L1D PREFETCH  ACCESS:   10462369  HIT:    9386689  MISS:    1075680
L1D WRITEBACK ACCESS:          0  HIT:          0  MISS:          0
L1D PREFETCH  REQUESTED:   15944817  ISSUED:   15677294  USEFUL:    1063741  USELESS:      11938
L1D TOTAL MSHR MERGED:    6047096
L1D LOAD MSHR MERGED:     950532
L1D RFO MSHR MERGED:    3580738
L1D PREFETCH MSHR MERGED:    1515826
L1D WRITEBACK MSHR MERGED:          0
L1D TOTAL ACCESSES:   38602262 HITS:   30141830 MISSES:    8460432
L1D LOAD ACCESSES:   15946162 HITS:   14735008 MISSES:    1211154
L1D RFO ACCESSES:   10334820 HITS:    6019823 MISSES:    4314997
L1D PREFETCH ACCESSES:   12321280 HITS:    9386999 MISSES:    2934281
L1D WRITEBACK ACCESSES:          0 HITS:          0 MISSES:          0
L1D RQ ACCESS:   24463430
L1D RQ TO_CACHE:   15944817
L1D RQ MERGED:    8517268
L1D RQ FORWARD:          0
L1D WQ ACCESS:   10338533
L1D WQ TO_CACHE:   10334819
L1D WQ MERGED:       3714
L1D WQ FORWARD:       1655
L1I TOTAL     ACCESS:   31922988  HIT:   31918171  MISS:       4817
L1I LOAD      ACCESS:   31922988  HIT:   31918171  MISS:       4817
L1I RFO       ACCESS:          0  HIT:          0  MISS:          0
L1I PREFETCH  ACCESS:          0  HIT:          0  MISS:          0
L1I WRITEBACK ACCESS:          0  HIT:          0  MISS:          0
L1I PREFETCH  REQUESTED:          0  ISSUED:          0  USEFUL:          0  USELESS:          0
L1I TOTAL MSHR MERGED:      13808
L1I LOAD MSHR MERGED:      13808
L1I RFO MSHR MERGED:          0
L1I PREFETCH MSHR MERGED:          0
L1I WRITEBACK MSHR MERGED:          0
L1I TOTAL ACCESSES:   31936796 HITS:   31918171 MISSES:      18625
L1I LOAD ACCESSES:   31936796 HITS:   31918171 MISSES:      18625
L1I RFO ACCESSES:          0 HITS:          0 MISSES:          0
L1I PREFETCH ACCESSES:          0 HITS:          0 MISSES:          0
L1I WRITEBACK ACCESSES:          0 HITS:          0 MISSES:          0
L1I RQ ACCESS:  149999788
L1I RQ TO_CACHE:   31936797
L1I RQ MERGED:  118062991
L1I RQ FORWARD:          0
L1I WQ ACCESS:          0
L1I WQ TO_CACHE:          0
L1I WQ MERGED:          0
L1I WQ FORWARD:          0
L2C TOTAL     ACCESS:    3541994  HIT:    1395085  MISS:    2146909
L2C LOAD      ACCESS:     265439  HIT:      51273  MISS:     214166
L2C RFO       ACCESS:     734259  HIT:      13938  MISS:     720321
L2C PREFETCH  ACCESS:    1511652  HIT:     302602  MISS:    1209050
L2C WRITEBACK ACCESS:    1030644  HIT:    1027272  MISS:       3372
L2C PREFETCH  REQUESTED:     107879  ISSUED:     107879  USEFUL:      34733  USELESS:    1175710
L2C TOTAL MSHR MERGED:       4251
L2C LOAD MSHR MERGED:        171
L2C RFO MSHR MERGED:          0
L2C PREFETCH MSHR MERGED:       4080
L2C WRITEBACK MSHR MERGED:          0
L2C TOTAL ACCESSES:    3549461 HITS:    1395085 MISSES:    2154376
L2C LOAD ACCESSES:     265439 HITS:      51273 MISSES:     214166
L2C RFO ACCESSES:     734259 HITS:      13938 MISSES:     720321
L2C PREFETCH ACCESSES:    1519119 HITS:     302602 MISSES:    1216517
L2C WRITEBACK ACCESSES:    1030644 HITS:    1027272 MISSES:       3372
L2C RQ ACCESS:     999698
L2C RQ TO_CACHE:     999698
L2C RQ MERGED:          0
L2C RQ FORWARD:          0
L2C WQ ACCESS:    1030644
L2C WQ TO_CACHE:    1030644
L2C WQ MERGED:          0
L2C WQ FORWARD:          0
LLC TOTAL     ACCESS:    3105210  HIT:    2495584  MISS:     609626
LLC LOAD      ACCESS:     213995  HIT:     166659  MISS:      47336
LLC RFO       ACCESS:     720321  HIT:     380326  MISS:     339995
LLC PREFETCH  ACCESS:    1211964  HIT:     989669  MISS:     222295
LLC WRITEBACK ACCESS:     958930  HIT:     958930  MISS:          0
LLC PREFETCH  REQUESTED:          0  ISSUED:          0  USEFUL:      76507  USELESS:     153654
LLC TOTAL MSHR MERGED:         82
LLC LOAD MSHR MERGED:          2
LLC RFO MSHR MERGED:          0
LLC PREFETCH MSHR MERGED:         80
LLC WRITEBACK MSHR MERGED:          0
LLC TOTAL ACCESSES:    3105292 HITS:    2495584 MISSES:     609708
LLC LOAD ACCESSES:     213995 HITS:     166659 MISSES:      47336
LLC RFO ACCESSES:     720321 HITS:     380326 MISSES:     339995
LLC PREFETCH ACCESSES:    1212046 HITS:     989669 MISSES:     222377
LLC WRITEBACK ACCESSES:     958930 HITS:     958930 MISSES:          0
LLC 0 RQ ACCESS:     934316
LLC 0 RQ TO_CACHE:     934316
LLC 0 RQ MERGED:          0
LLC 0 RQ FORWARD:          0
LLC WQ ACCESS:     958930
LLC WQ TO_CACHE:     958930
LLC WQ MERGED:          0
LLC WQ FORWARD:          0
Major fault: 0 Minor fault: 4332
CPU 0 L1D next line prefetcher final stats
CPU 0 L2C PC-based stride prefetcher final stats

DRAM Statistics
 CHANNEL 0
 RQ ROW_BUFFER_HIT:     395027  ROW_BUFFER_MISS:     214385
 DBUS_CONGESTED:     614674
 WQ ROW_BUFFER_HIT:     181191  ROW_BUFFER_MISS:     290646  FULL:          0

 AVG_CONGESTED_CYCLE: 13
LOADS RETIRED: 24523896
INSTR RETIRED: 150000000
