
*** ChampSim Multicore Out-of-Order Simulator ***

Warmup Instructions: 100000000
Simulation Instructions: 150000000
Number of CPUs: 1
LLC sets: 2048
LLC ways: 16
Clean RRIP Policies: 0 Dirty RRIP Policies: 0 PSEL Width: 10 Track Set: 4294967295 PSEL Mask: 15 Demote Mask: 0DS Algo: 0Window size: 64
Off-chip DRAM Size: 4096 MB Channels: 1 Width: 64-bit Data Rate: 1600 MT/s

CPU 0 runs /mnt/beegfs/pchatz06/selected_traces/527.cam4_r.train.input1.region_8.w_0.1112_0.1246.trace.gz
NOT SORTED
TRACE STRING: /mnt/beegfs/pchatz06/selected_traces/527.cam4_r.train.input1.region_8.w_0.1112_0.1246.trace.gz
SORTED
TRACE STRING: /mnt/beegfs/pchatz06/selected_traces/527.cam4_r.train.input1.region_8.w_0.1112_0.1246.trace.gz
INITIAL
TRACE STRING: /mnt/beegfs/pchatz06/selected_traces/527.cam4_r.train.input1.region_8.w_0.1112_0.1246.trace.gz

champsim_seed used: 205

CPU 0 L1D next line prefetcher
CPU 0 L2C IP-based stride prefetcher
Heartbeat CPU 0 instructions: 10000000 cycles: 4857542 heartbeat IPC: 2.05865 cumulative IPC: 2.05865 (Simulation time: 0 hr 0 min 17 sec) 
Heartbeat CPU 0 instructions: 20000000 cycles: 9749013 heartbeat IPC: 2.04437 cumulative IPC: 2.05149 (Simulation time: 0 hr 0 min 33 sec) 
Heartbeat CPU 0 instructions: 30000002 cycles: 14448310 heartbeat IPC: 2.12798 cumulative IPC: 2.07637 (Simulation time: 0 hr 0 min 47 sec) 
Heartbeat CPU 0 instructions: 40000000 cycles: 19281415 heartbeat IPC: 2.06906 cumulative IPC: 2.07454 (Simulation time: 0 hr 1 min 3 sec) 
Heartbeat CPU 0 instructions: 50000003 cycles: 24138527 heartbeat IPC: 2.05884 cumulative IPC: 2.07138 (Simulation time: 0 hr 1 min 20 sec) 
Heartbeat CPU 0 instructions: 60000000 cycles: 29049126 heartbeat IPC: 2.03641 cumulative IPC: 2.06547 (Simulation time: 0 hr 1 min 36 sec) 
Heartbeat CPU 0 instructions: 70000000 cycles: 33739649 heartbeat IPC: 2.13196 cumulative IPC: 2.07471 (Simulation time: 0 hr 1 min 51 sec) 
Heartbeat CPU 0 instructions: 80000000 cycles: 38577740 heartbeat IPC: 2.06693 cumulative IPC: 2.07373 (Simulation time: 0 hr 2 min 7 sec) 
Heartbeat CPU 0 instructions: 90000000 cycles: 43428937 heartbeat IPC: 2.06135 cumulative IPC: 2.07235 (Simulation time: 0 hr 2 min 23 sec) 
Heartbeat CPU 0 instructions: 100000000 cycles: 48358889 heartbeat IPC: 2.02842 cumulative IPC: 2.06787 (Simulation time: 0 hr 2 min 40 sec) 

Warmup complete CPU 0 instructions: 100000002 cycles: 48358890 (Simulation time: 0 hr 2 min 40 sec) 

Heartbeat CPU 0 instructions: 110000001 cycles: 61520855 heartbeat IPC: 0.759765 cumulative IPC: 0.759765 (Simulation time: 0 hr 3 min 2 sec) 
Heartbeat CPU 0 instructions: 120000000 cycles: 75364346 heartbeat IPC: 0.722361 cumulative IPC: 0.740591 (Simulation time: 0 hr 3 min 27 sec) 
Heartbeat CPU 0 instructions: 130000003 cycles: 89192620 heartbeat IPC: 0.723156 cumulative IPC: 0.734687 (Simulation time: 0 hr 3 min 51 sec) 
Heartbeat CPU 0 instructions: 140000000 cycles: 103759926 heartbeat IPC: 0.686469 cumulative IPC: 0.722008 (Simulation time: 0 hr 4 min 15 sec) 
Heartbeat CPU 0 instructions: 150000002 cycles: 116888971 heartbeat IPC: 0.76167 cumulative IPC: 0.729607 (Simulation time: 0 hr 4 min 38 sec) 
Heartbeat CPU 0 instructions: 160000000 cycles: 130701123 heartbeat IPC: 0.724 cumulative IPC: 0.728666 (Simulation time: 0 hr 5 min 2 sec) 
Heartbeat CPU 0 instructions: 170000002 cycles: 144549976 heartbeat IPC: 0.722082 cumulative IPC: 0.727718 (Simulation time: 0 hr 5 min 27 sec) 
Heartbeat CPU 0 instructions: 180000000 cycles: 159029532 heartbeat IPC: 0.690629 cumulative IPC: 0.722866 (Simulation time: 0 hr 5 min 51 sec) 
Heartbeat CPU 0 instructions: 190000002 cycles: 172200540 heartbeat IPC: 0.759243 cumulative IPC: 0.726735 (Simulation time: 0 hr 6 min 13 sec) 
Heartbeat CPU 0 instructions: 200000000 cycles: 186041906 heartbeat IPC: 0.722472 cumulative IPC: 0.726306 (Simulation time: 0 hr 6 min 37 sec) 
Heartbeat CPU 0 instructions: 210000000 cycles: 199854303 heartbeat IPC: 0.723987 cumulative IPC: 0.726095 (Simulation time: 0 hr 7 min 1 sec) 
Heartbeat CPU 0 instructions: 220000000 cycles: 214404351 heartbeat IPC: 0.687283 cumulative IPC: 0.722694 (Simulation time: 0 hr 7 min 25 sec) 
Heartbeat CPU 0 instructions: 230000000 cycles: 227485192 heartbeat IPC: 0.764477 cumulative IPC: 0.725745 (Simulation time: 0 hr 7 min 47 sec) 
Heartbeat CPU 0 instructions: 240000000 cycles: 241338601 heartbeat IPC: 0.721844 cumulative IPC: 0.725465 (Simulation time: 0 hr 8 min 11 sec) 
*** Reached end of trace for Core: 0 Repeating trace: /mnt/beegfs/pchatz06/selected_traces/527.cam4_r.train.input1.region_8.w_0.1112_0.1246.trace.gz
Heartbeat CPU 0 instructions: 250000000 cycles: 255111219 heartbeat IPC: 0.726078 cumulative IPC: 0.725506 (Simulation time: 0 hr 8 min 35 sec) 
Finished CPU 0 instructions: 150000000 cycles: 206752331 cumulative IPC: 0.725506 (Simulation time: 0 hr 8 min 35 sec) 

CPU 0 Branch Prediction Accuracy: 97.5442% MPKI: 2.18133
Number of Branches: 13323392 Number of Mispredictions: 327199
Number of LOAD Instructions: 60321611
Number of LOAD Instructions (ROI): 60321611
Number of STORE Instructions: 23264210
Number of STORE Instructions (ROI): 23264210
Total Destination Memory Operands: 23602205
Total Destination Memory Operands (ROI): 23602205
Total Source Memory Operands: 60321611
Total Source Memory Operands (ROI): 60321611
Number of DEPENDED LOADS: 5718313
Number of DEPENDED LOADS (ROI): 5718313
Number of SQ_ADDED: 23602179
Number of SQ_ADDED (ROI): 23602179
Number of LQ_ADDED: 69405261
Number of LQ_ADDED (ROI): 69405261
Number of Instructions read from trace: 250000257

ChampSim completed all CPUs

Region of Interest Statistics

CPU 0 cumulative IPC: 0.725506 instructions: 150000000 cycles: 206752331
ITLB TOTAL     ACCESS:   40566870  HIT:   40566126  MISS:        744
ITLB LOAD      ACCESS:   40566870  HIT:   40566126  MISS:        744
ITLB RFO       ACCESS:          0  HIT:          0  MISS:          0
ITLB PREFETCH  ACCESS:          0  HIT:          0  MISS:          0
ITLB WRITEBACK ACCESS:          0  HIT:          0  MISS:          0
ITLB PREFETCH  REQUESTED:          0  ISSUED:          0  USEFUL:          0  USELESS:          0
ITLB TOTAL MSHR MERGED:       1278
ITLB LOAD MSHR MERGED:       1278
ITLB RFO MSHR MERGED:          0
ITLB PREFETCH MSHR MERGED:          0
ITLB WRITEBACK MSHR MERGED:          0
ITLB TOTAL ACCESSES:   40568148 HITS:   40566126 MISSES:       2022
ITLB LOAD ACCESSES:   40568148 HITS:   40566126 MISSES:       2022
ITLB RFO ACCESSES:          0 HITS:          0 MISSES:          0
ITLB PREFETCH ACCESSES:          0 HITS:          0 MISSES:          0
ITLB WRITEBACK ACCESSES:          0 HITS:          0 MISSES:          0
ITLB RQ ACCESS:  150000046
ITLB RQ TO_CACHE:   40568149
ITLB RQ MERGED:  109431897
ITLB RQ FORWARD:          0
ITLB WQ ACCESS:          0
ITLB WQ TO_CACHE:          0
ITLB WQ MERGED:          0
ITLB WQ FORWARD:          0
DTLB TOTAL     ACCESS:   33148378  HIT:   33083274  MISS:      65104
DTLB LOAD      ACCESS:   23439051  HIT:   23377091  MISS:      61960
DTLB RFO       ACCESS:    9709327  HIT:    9706183  MISS:       3144
DTLB PREFETCH  ACCESS:          0  HIT:          0  MISS:          0
DTLB WRITEBACK ACCESS:          0  HIT:          0  MISS:          0
DTLB PREFETCH  REQUESTED:          0  ISSUED:          0  USEFUL:          0  USELESS:          0
DTLB TOTAL MSHR MERGED:      27173
DTLB LOAD MSHR MERGED:      23613
DTLB RFO MSHR MERGED:       3560
DTLB PREFETCH MSHR MERGED:          0
DTLB WRITEBACK MSHR MERGED:          0
DTLB TOTAL ACCESSES:   33175551 HITS:   33083274 MISSES:      92277
DTLB LOAD ACCESSES:   23462664 HITS:   23377091 MISSES:      85573
DTLB RFO ACCESSES:    9712887 HITS:    9706183 MISSES:       6704
DTLB PREFETCH ACCESSES:          0 HITS:          0 MISSES:          0
DTLB WRITEBACK ACCESSES:          0 HITS:          0 MISSES:          0
DTLB RQ ACCESS:   46972354
DTLB RQ TO_CACHE:   33175551
DTLB RQ MERGED:   13796803
DTLB RQ FORWARD:          0
DTLB WQ ACCESS:          0
DTLB WQ TO_CACHE:          0
DTLB WQ MERGED:          0
DTLB WQ FORWARD:          0
L1D TOTAL     ACCESS:   59202015  HIT:   56045768  MISS:    3156247
L1D LOAD      ACCESS:   23894331  HIT:   22500512  MISS:    1393819
L1D RFO       ACCESS:   13296748  HIT:   13010002  MISS:     286746
L1D PREFETCH  ACCESS:   22010936  HIT:   20535254  MISS:    1475682
L1D WRITEBACK ACCESS:          0  HIT:          0  MISS:          0
L1D PREFETCH  REQUESTED:   24025311  ISSUED:   23885489  USEFUL:     547405  USELESS:     928196
L1D TOTAL MSHR MERGED:     753263
L1D LOAD MSHR MERGED:     172505
L1D RFO MSHR MERGED:     412665
L1D PREFETCH MSHR MERGED:     168093
L1D WRITEBACK MSHR MERGED:          0
L1D TOTAL ACCESSES:   59961829 HITS:   56052319 MISSES:    3909510
L1D LOAD ACCESSES:   24029356 HITS:   22504557 MISSES:    1524799
L1D RFO ACCESSES:   13708311 HITS:   13010002 MISSES:     698309
L1D PREFETCH ACCESSES:   22224162 HITS:   20537760 MISSES:    1686402
L1D WRITEBACK ACCESSES:          0 HITS:          0 MISSES:          0
L1D RQ ACCESS:   32748654
L1D RQ TO_CACHE:   24025311
L1D RQ MERGED:    8719298
L1D RQ FORWARD:          0
L1D WQ ACCESS:   14223699
L1D WQ TO_CACHE:   13708315
L1D WQ MERGED:     515384
L1D WQ FORWARD:       6551
L1I TOTAL     ACCESS:   48222492  HIT:   48144228  MISS:      78264
L1I LOAD      ACCESS:   48222492  HIT:   48144228  MISS:      78264
L1I RFO       ACCESS:          0  HIT:          0  MISS:          0
L1I PREFETCH  ACCESS:          0  HIT:          0  MISS:          0
L1I WRITEBACK ACCESS:          0  HIT:          0  MISS:          0
L1I PREFETCH  REQUESTED:          0  ISSUED:          0  USEFUL:          0  USELESS:          0
L1I TOTAL MSHR MERGED:      77040
L1I LOAD MSHR MERGED:      77040
L1I RFO MSHR MERGED:          0
L1I PREFETCH MSHR MERGED:          0
L1I WRITEBACK MSHR MERGED:          0
L1I TOTAL ACCESSES:   48299532 HITS:   48144228 MISSES:     155304
L1I LOAD ACCESSES:   48299532 HITS:   48144228 MISSES:     155304
L1I RFO ACCESSES:          0 HITS:          0 MISSES:          0
L1I PREFETCH ACCESSES:          0 HITS:          0 MISSES:          0
L1I WRITEBACK ACCESSES:          0 HITS:          0 MISSES:          0
L1I RQ ACCESS:  150000049
L1I RQ TO_CACHE:   48299533
L1I RQ MERGED:  101700516
L1I RQ FORWARD:          0
L1I WQ ACCESS:          0
L1I WQ TO_CACHE:          0
L1I WQ MERGED:          0
L1I WQ FORWARD:          0
L2C TOTAL     ACCESS:    3749382  HIT:    3299947  MISS:     449435
L2C LOAD      ACCESS:    1430531  HIT:    1257279  MISS:     173252
L2C RFO       ACCESS:     285548  HIT:     183305  MISS:     102243
L2C PREFETCH  ACCESS:    1660977  HIT:    1487830  MISS:     173147
L2C WRITEBACK ACCESS:     372326  HIT:     371533  MISS:        793
L2C PREFETCH  REQUESTED:     149309  ISSUED:     149309  USEFUL:      39175  USELESS:     134047
L2C TOTAL MSHR MERGED:        274
L2C LOAD MSHR MERGED:         24
L2C RFO MSHR MERGED:          0
L2C PREFETCH MSHR MERGED:        250
L2C WRITEBACK MSHR MERGED:          0
L2C TOTAL ACCESSES:    3749852 HITS:    3300089 MISSES:     449763
L2C LOAD ACCESSES:    1430558 HITS:    1257306 MISSES:     173252
L2C RFO ACCESSES:     285644 HITS:     183401 MISSES:     102243
L2C PREFETCH ACCESSES:    1661324 HITS:    1487849 MISSES:     173475
L2C WRITEBACK ACCESSES:     372326 HITS:     371533 MISSES:        793
L2C RQ ACCESS:    1716202
L2C RQ TO_CACHE:    1716079
L2C RQ MERGED:          0
L2C RQ FORWARD:          0
L2C WQ ACCESS:     372326
L2C WQ TO_CACHE:     372326
L2C WQ MERGED:          0
L2C WQ FORWARD:        142
LLC TOTAL     ACCESS:     582903  HIT:     345439  MISS:     237464
LLC LOAD      ACCESS:     173228  HIT:      74911  MISS:      98317
LLC RFO       ACCESS:     102240  HIT:      34416  MISS:      67824
LLC PREFETCH  ACCESS:     173225  HIT:     101906  MISS:      71319
LLC WRITEBACK ACCESS:     134210  HIT:     134206  MISS:          4
LLC PREFETCH  REQUESTED:          0  ISSUED:          0  USEFUL:       5177  USELESS:      67762
LLC TOTAL MSHR MERGED:          0
LLC LOAD MSHR MERGED:          0
LLC RFO MSHR MERGED:          0
LLC PREFETCH MSHR MERGED:          0
LLC WRITEBACK MSHR MERGED:          0
LLC TOTAL ACCESSES:     582906 HITS:     345442 MISSES:     237464
LLC LOAD ACCESSES:     173228 HITS:      74911 MISSES:      98317
LLC RFO ACCESSES:     102243 HITS:      34419 MISSES:      67824
LLC PREFETCH ACCESSES:     173225 HITS:     101906 MISSES:      71319
LLC WRITEBACK ACCESSES:     134210 HITS:     134206 MISSES:          4
LLC 0 RQ ACCESS:     275471
LLC 0 RQ TO_CACHE:     275468
LLC 0 RQ MERGED:          0
LLC 0 RQ FORWARD:          0
LLC WQ ACCESS:     134210
LLC WQ TO_CACHE:     134210
LLC WQ MERGED:          0
LLC WQ FORWARD:          3
Major fault: 0 Minor fault: 2810
CPU 0 L1D next line prefetcher final stats
CPU 0 L2C PC-based stride prefetcher final stats

DRAM Statistics
 CHANNEL 0
 RQ ROW_BUFFER_HIT:     148792  ROW_BUFFER_MISS:      88627
 DBUS_CONGESTED:     193372
 WQ ROW_BUFFER_HIT:      10776  ROW_BUFFER_MISS:      58719  FULL:          0

 AVG_CONGESTED_CYCLE: 13
LOADS RETIRED: 36120769
INSTR RETIRED: 150000000
