
*** ChampSim Multicore Out-of-Order Simulator ***

Warmup Instructions: 100000000
Simulation Instructions: 150000000
Number of CPUs: 1
LLC sets: 2048
LLC ways: 16
Clean RRIP Policies: 0 Dirty RRIP Policies: 0 PSEL Width: 10 Track Set: 4294967295 PSEL Mask: 15 Demote Mask: 0DS Algo: 0Window size: 64
Off-chip DRAM Size: 4096 MB Channels: 1 Width: 64-bit Data Rate: 1600 MT/s

CPU 0 runs /mnt/beegfs/pchatz06/selected_traces/549.fotonik3d_r.train.input1.region_7.w_0.0651_0.0824.trace.gz
NOT SORTED
TRACE STRING: /mnt/beegfs/pchatz06/selected_traces/549.fotonik3d_r.train.input1.region_7.w_0.0651_0.0824.trace.gz
SORTED
TRACE STRING: /mnt/beegfs/pchatz06/selected_traces/549.fotonik3d_r.train.input1.region_7.w_0.0651_0.0824.trace.gz
INITIAL
TRACE STRING: /mnt/beegfs/pchatz06/selected_traces/549.fotonik3d_r.train.input1.region_7.w_0.0651_0.0824.trace.gz

champsim_seed used: 206

CPU 0 L1D next line prefetcher
CPU 0 L2C IP-based stride prefetcher
Heartbeat CPU 0 instructions: 10000002 cycles: 3691577 heartbeat IPC: 2.70887 cumulative IPC: 2.70887 (Simulation time: 0 hr 0 min 14 sec) 
Heartbeat CPU 0 instructions: 20000000 cycles: 7383083 heartbeat IPC: 2.70892 cumulative IPC: 2.7089 (Simulation time: 0 hr 0 min 29 sec) 
Heartbeat CPU 0 instructions: 30000002 cycles: 11074643 heartbeat IPC: 2.70888 cumulative IPC: 2.70889 (Simulation time: 0 hr 0 min 43 sec) 
Heartbeat CPU 0 instructions: 40000000 cycles: 14766138 heartbeat IPC: 2.70893 cumulative IPC: 2.7089 (Simulation time: 0 hr 0 min 57 sec) 
Heartbeat CPU 0 instructions: 50000002 cycles: 18457694 heartbeat IPC: 2.70889 cumulative IPC: 2.7089 (Simulation time: 0 hr 1 min 11 sec) 
Heartbeat CPU 0 instructions: 60000000 cycles: 22149220 heartbeat IPC: 2.70891 cumulative IPC: 2.7089 (Simulation time: 0 hr 1 min 26 sec) 
Heartbeat CPU 0 instructions: 70000002 cycles: 25840769 heartbeat IPC: 2.70889 cumulative IPC: 2.7089 (Simulation time: 0 hr 1 min 40 sec) 
Heartbeat CPU 0 instructions: 80000000 cycles: 30632230 heartbeat IPC: 2.08705 cumulative IPC: 2.61163 (Simulation time: 0 hr 1 min 59 sec) 
Heartbeat CPU 0 instructions: 90000002 cycles: 37110812 heartbeat IPC: 1.54355 cumulative IPC: 2.42517 (Simulation time: 0 hr 2 min 20 sec) 
Heartbeat CPU 0 instructions: 100000000 cycles: 43588627 heartbeat IPC: 1.54373 cumulative IPC: 2.29418 (Simulation time: 0 hr 2 min 42 sec) 

Warmup complete CPU 0 instructions: 100000001 cycles: 43588649 (Simulation time: 0 hr 2 min 42 sec) 

Heartbeat CPU 0 instructions: 110000001 cycles: 59963124 heartbeat IPC: 0.610706 cumulative IPC: 0.610707 (Simulation time: 0 hr 3 min 11 sec) 
Heartbeat CPU 0 instructions: 120000000 cycles: 76161813 heartbeat IPC: 0.617334 cumulative IPC: 0.614002 (Simulation time: 0 hr 3 min 39 sec) 
Heartbeat CPU 0 instructions: 130000002 cycles: 92381742 heartbeat IPC: 0.616526 cumulative IPC: 0.614841 (Simulation time: 0 hr 4 min 8 sec) 
Heartbeat CPU 0 instructions: 140000000 cycles: 108705160 heartbeat IPC: 0.612617 cumulative IPC: 0.614284 (Simulation time: 0 hr 4 min 37 sec) 
Heartbeat CPU 0 instructions: 150000000 cycles: 125015487 heartbeat IPC: 0.613109 cumulative IPC: 0.614048 (Simulation time: 0 hr 5 min 5 sec) 
Heartbeat CPU 0 instructions: 160000000 cycles: 141286150 heartbeat IPC: 0.614603 cumulative IPC: 0.614141 (Simulation time: 0 hr 5 min 34 sec) 
Heartbeat CPU 0 instructions: 170000001 cycles: 157832693 heartbeat IPC: 0.604356 cumulative IPC: 0.612723 (Simulation time: 0 hr 6 min 3 sec) 
Heartbeat CPU 0 instructions: 180000000 cycles: 174058175 heartbeat IPC: 0.616314 cumulative IPC: 0.61317 (Simulation time: 0 hr 6 min 31 sec) 
Heartbeat CPU 0 instructions: 190000000 cycles: 190295653 heartbeat IPC: 0.615859 cumulative IPC: 0.613468 (Simulation time: 0 hr 7 min 0 sec) 
Heartbeat CPU 0 instructions: 200000000 cycles: 206518555 heartbeat IPC: 0.616413 cumulative IPC: 0.613761 (Simulation time: 0 hr 7 min 28 sec) 
Heartbeat CPU 0 instructions: 210000000 cycles: 222831198 heartbeat IPC: 0.613021 cumulative IPC: 0.613694 (Simulation time: 0 hr 7 min 57 sec) 
Heartbeat CPU 0 instructions: 220000000 cycles: 239006831 heartbeat IPC: 0.618214 cumulative IPC: 0.614068 (Simulation time: 0 hr 8 min 25 sec) 
Heartbeat CPU 0 instructions: 230000001 cycles: 255209701 heartbeat IPC: 0.617175 cumulative IPC: 0.614306 (Simulation time: 0 hr 8 min 54 sec) 
Heartbeat CPU 0 instructions: 240000000 cycles: 271495895 heartbeat IPC: 0.614017 cumulative IPC: 0.614285 (Simulation time: 0 hr 9 min 22 sec) 
*** Reached end of trace for Core: 0 Repeating trace: /mnt/beegfs/pchatz06/selected_traces/549.fotonik3d_r.train.input1.region_7.w_0.0651_0.0824.trace.gz
Heartbeat CPU 0 instructions: 250000002 cycles: 287903306 heartbeat IPC: 0.609481 cumulative IPC: 0.613962 (Simulation time: 0 hr 9 min 51 sec) 
Finished CPU 0 instructions: 150000001 cycles: 244314657 cumulative IPC: 0.613962 (Simulation time: 0 hr 9 min 51 sec) 

CPU 0 Branch Prediction Accuracy: 97.7065% MPKI: 0.45584
Number of Branches: 2981342 Number of Mispredictions: 68376
Number of LOAD Instructions: 96051903
Number of LOAD Instructions (ROI): 96051903
Number of STORE Instructions: 26668425
Number of STORE Instructions (ROI): 26668425
Total Destination Memory Operands: 27930176
Total Destination Memory Operands (ROI): 27930176
Total Source Memory Operands: 96051903
Total Source Memory Operands (ROI): 96051903
Number of DEPENDED LOADS: 619631
Number of DEPENDED LOADS (ROI): 619631
Number of SQ_ADDED: 27930141
Number of SQ_ADDED (ROI): 27930141
Number of LQ_ADDED: 144324128
Number of LQ_ADDED (ROI): 144324128
Number of Instructions read from trace: 250000251

ChampSim completed all CPUs

Region of Interest Statistics

CPU 0 cumulative IPC: 0.613962 instructions: 150000001 cycles: 244314657
ITLB TOTAL     ACCESS:   29144748  HIT:   29144748  MISS:          0
ITLB LOAD      ACCESS:   29144748  HIT:   29144748  MISS:          0
ITLB RFO       ACCESS:          0  HIT:          0  MISS:          0
ITLB PREFETCH  ACCESS:          0  HIT:          0  MISS:          0
ITLB WRITEBACK ACCESS:          0  HIT:          0  MISS:          0
ITLB PREFETCH  REQUESTED:          0  ISSUED:          0  USEFUL:          0  USELESS:          0
ITLB TOTAL MSHR MERGED:          0
ITLB LOAD MSHR MERGED:          0
ITLB RFO MSHR MERGED:          0
ITLB PREFETCH MSHR MERGED:          0
ITLB WRITEBACK MSHR MERGED:          0
ITLB TOTAL ACCESSES:   29144748 HITS:   29144748 MISSES:          0
ITLB LOAD ACCESSES:   29144748 HITS:   29144748 MISSES:          0
ITLB RFO ACCESSES:          0 HITS:          0 MISSES:          0
ITLB PREFETCH ACCESSES:          0 HITS:          0 MISSES:          0
ITLB WRITEBACK ACCESSES:          0 HITS:          0 MISSES:          0
ITLB RQ ACCESS:  149999995
ITLB RQ TO_CACHE:   29144748
ITLB RQ MERGED:  120855247
ITLB RQ FORWARD:          0
ITLB WQ ACCESS:          0
ITLB WQ TO_CACHE:          0
ITLB WQ MERGED:          0
ITLB WQ FORWARD:          0
DTLB TOTAL     ACCESS:   50239474  HIT:   50146792  MISS:      92682
DTLB LOAD      ACCESS:   41355375  HIT:   41262693  MISS:      92682
DTLB RFO       ACCESS:    8884099  HIT:    8884099  MISS:          0
DTLB PREFETCH  ACCESS:          0  HIT:          0  MISS:          0
DTLB WRITEBACK ACCESS:          0  HIT:          0  MISS:          0
DTLB PREFETCH  REQUESTED:          0  ISSUED:          0  USEFUL:          0  USELESS:          0
DTLB TOTAL MSHR MERGED:      16269
DTLB LOAD MSHR MERGED:      16269
DTLB RFO MSHR MERGED:          0
DTLB PREFETCH MSHR MERGED:          0
DTLB WRITEBACK MSHR MERGED:          0
DTLB TOTAL ACCESSES:   50255744 HITS:   50146792 MISSES:     108952
DTLB LOAD ACCESSES:   41371645 HITS:   41262693 MISSES:     108952
DTLB RFO ACCESSES:    8884099 HITS:    8884099 MISSES:          0
DTLB PREFETCH ACCESSES:          0 HITS:          0 MISSES:          0
DTLB WRITEBACK ACCESSES:          0 HITS:          0 MISSES:          0
DTLB RQ ACCESS:   82997599
DTLB RQ TO_CACHE:   50255744
DTLB RQ MERGED:   32741855
DTLB RQ FORWARD:          0
DTLB WQ ACCESS:          0
DTLB WQ TO_CACHE:          0
DTLB WQ MERGED:          0
DTLB WQ FORWARD:          0
L1D TOTAL     ACCESS:   73164657  HIT:   67279797  MISS:    5884860
L1D LOAD      ACCESS:   41312829  HIT:   39230498  MISS:    2082331
L1D RFO       ACCESS:   14840843  HIT:   14840843  MISS:          0
L1D PREFETCH  ACCESS:   17010985  HIT:   13208456  MISS:    3802529
L1D WRITEBACK ACCESS:          0  HIT:          0  MISS:          0
L1D PREFETCH  REQUESTED:   42294860  ISSUED:   41732666  USEFUL:    3684318  USELESS:     118219
L1D TOTAL MSHR MERGED:   10864335
L1D LOAD MSHR MERGED:    2779118
L1D RFO MSHR MERGED:          0
L1D PREFETCH MSHR MERGED:    8085217
L1D WRITEBACK MSHR MERGED:          0
L1D TOTAL ACCESSES:   84037351 HITS:   67288150 MISSES:   16749201
L1D LOAD ACCESSES:   42296589 HITS:   39232227 MISSES:    3064362
L1D RFO ACCESSES:   14840843 HITS:   14840843 MISSES:          0
L1D PREFETCH ACCESSES:   26899919 HITS:   13215080 MISSES:   13684839
L1D WRITEBACK ACCESSES:          0 HITS:          0 MISSES:          0
L1D RQ ACCESS:   68156795
L1D RQ TO_CACHE:   42294862
L1D RQ MERGED:   25860204
L1D RQ FORWARD:          0
L1D WQ ACCESS:   14840844
L1D WQ TO_CACHE:   14840844
L1D WQ MERGED:          0
L1D WQ FORWARD:       8353
L1I TOTAL     ACCESS:   32803814  HIT:   32803814  MISS:          0
L1I LOAD      ACCESS:   32803814  HIT:   32803814  MISS:          0
L1I RFO       ACCESS:          0  HIT:          0  MISS:          0
L1I PREFETCH  ACCESS:          0  HIT:          0  MISS:          0
L1I WRITEBACK ACCESS:          0  HIT:          0  MISS:          0
L1I PREFETCH  REQUESTED:          0  ISSUED:          0  USEFUL:          0  USELESS:          0
L1I TOTAL MSHR MERGED:          0
L1I LOAD MSHR MERGED:          0
L1I RFO MSHR MERGED:          0
L1I PREFETCH MSHR MERGED:          0
L1I WRITEBACK MSHR MERGED:          0
L1I TOTAL ACCESSES:   32803814 HITS:   32803814 MISSES:          0
L1I LOAD ACCESSES:   32803814 HITS:   32803814 MISSES:          0
L1I RFO ACCESSES:          0 HITS:          0 MISSES:          0
L1I PREFETCH ACCESSES:          0 HITS:          0 MISSES:          0
L1I WRITEBACK ACCESSES:          0 HITS:          0 MISSES:          0
L1I RQ ACCESS:  149999987
L1I RQ TO_CACHE:   32803814
L1I RQ MERGED:  117196173
L1I RQ FORWARD:          0
L1I WQ ACCESS:          0
L1I WQ TO_CACHE:          0
L1I WQ MERGED:          0
L1I WQ FORWARD:          0
L2C TOTAL     ACCESS:    8035954  HIT:    2151094  MISS:    5884860
L2C LOAD      ACCESS:     285244  HIT:        150  MISS:     285094
L2C RFO       ACCESS:          0  HIT:          0  MISS:          0
L2C PREFETCH  ACCESS:    5600061  HIT:        295  MISS:    5599766
L2C WRITEBACK ACCESS:    2150649  HIT:    2150649  MISS:          0
L2C PREFETCH  REQUESTED:        643  ISSUED:        643  USEFUL:        150  USELESS:    5599644
L2C TOTAL MSHR MERGED:          1
L2C LOAD MSHR MERGED:          0
L2C RFO MSHR MERGED:          0
L2C PREFETCH MSHR MERGED:          1
L2C WRITEBACK MSHR MERGED:          0
L2C TOTAL ACCESSES:    8036158 HITS:    2151094 MISSES:    5885064
L2C LOAD ACCESSES:     285244 HITS:        150 MISSES:     285094
L2C RFO ACCESSES:          0 HITS:          0 MISSES:          0
L2C PREFETCH ACCESSES:    5600265 HITS:        295 MISSES:    5599970
L2C WRITEBACK ACCESSES:    2150649 HITS:    2150649 MISSES:          0
L2C RQ ACCESS:     285244
L2C RQ TO_CACHE:     285244
L2C RQ MERGED:          0
L2C RQ FORWARD:          0
L2C WQ ACCESS:    2150649
L2C WQ TO_CACHE:    2150649
L2C WQ MERGED:          0
L2C WQ FORWARD:          0
LLC TOTAL     ACCESS:    8035637  HIT:    2150776  MISS:    5884861
LLC LOAD      ACCESS:     285094  HIT:         82  MISS:     285012
LLC RFO       ACCESS:          0  HIT:          0  MISS:          0
LLC PREFETCH  ACCESS:    5599964  HIT:        115  MISS:    5599849
LLC WRITEBACK ACCESS:    2150579  HIT:    2150579  MISS:          0
LLC PREFETCH  REQUESTED:          0  ISSUED:          0  USEFUL:         82  USELESS:    5600028
LLC TOTAL MSHR MERGED:          0
LLC LOAD MSHR MERGED:          0
LLC RFO MSHR MERGED:          0
LLC PREFETCH MSHR MERGED:          0
LLC WRITEBACK MSHR MERGED:          0
LLC TOTAL ACCESSES:    8035642 HITS:    2150776 MISSES:    5884866
LLC LOAD ACCESSES:     285094 HITS:         82 MISSES:     285012
LLC RFO ACCESSES:          0 HITS:          0 MISSES:          0
LLC PREFETCH ACCESSES:    5599969 HITS:        115 MISSES:    5599854
LLC WRITEBACK ACCESSES:    2150579 HITS:    2150579 MISSES:          0
LLC 0 RQ ACCESS:     285094
LLC 0 RQ TO_CACHE:     285094
LLC 0 RQ MERGED:          0
LLC 0 RQ FORWARD:          0
LLC WQ ACCESS:    2150579
LLC WQ TO_CACHE:    2150579
LLC WQ MERGED:          0
LLC WQ FORWARD:          0
Major fault: 0 Minor fault: 106319
CPU 0 L1D next line prefetcher final stats
CPU 0 L2C PC-based stride prefetcher final stats

DRAM Statistics
 CHANNEL 0
 RQ ROW_BUFFER_HIT:    2970816  ROW_BUFFER_MISS:    2914046
 DBUS_CONGESTED:    5247636
 WQ ROW_BUFFER_HIT:     452074  ROW_BUFFER_MISS:    1698966  FULL:          0

 AVG_CONGESTED_CYCLE: 13
LOADS RETIRED: 68684672
INSTR RETIRED: 150000000
