
*** ChampSim Multicore Out-of-Order Simulator ***

Warmup Instructions: 100000000
Simulation Instructions: 150000000
Number of CPUs: 1
LLC sets: 2048
LLC ways: 16
Clean RRIP Policies: 0 Dirty RRIP Policies: 0 PSEL Width: 10 Track Set: 4294967295 PSEL Mask: 15 Demote Mask: 0DS Algo: 0Window size: 64
Off-chip DRAM Size: 4096 MB Channels: 1 Width: 64-bit Data Rate: 1600 MT/s

CPU 0 runs /mnt/beegfs/pchatz06/selected_traces/549.fotonik3d_r.refrate.input1.region_10.w_0.0499_0.0585.trace.gz
NOT SORTED
TRACE STRING: /mnt/beegfs/pchatz06/selected_traces/549.fotonik3d_r.refrate.input1.region_10.w_0.0499_0.0585.trace.gz
SORTED
TRACE STRING: /mnt/beegfs/pchatz06/selected_traces/549.fotonik3d_r.refrate.input1.region_10.w_0.0499_0.0585.trace.gz
INITIAL
TRACE STRING: /mnt/beegfs/pchatz06/selected_traces/549.fotonik3d_r.refrate.input1.region_10.w_0.0499_0.0585.trace.gz

champsim_seed used: 210

CPU 0 L1D next line prefetcher
CPU 0 L2C IP-based stride prefetcher
Heartbeat CPU 0 instructions: 10000002 cycles: 6785989 heartbeat IPC: 1.47362 cumulative IPC: 1.47362 (Simulation time: 0 hr 0 min 23 sec) 
Heartbeat CPU 0 instructions: 20000000 cycles: 13571496 heartbeat IPC: 1.47373 cumulative IPC: 1.47368 (Simulation time: 0 hr 0 min 47 sec) 
Heartbeat CPU 0 instructions: 30000003 cycles: 19771462 heartbeat IPC: 1.61291 cumulative IPC: 1.51734 (Simulation time: 0 hr 1 min 9 sec) 
Heartbeat CPU 0 instructions: 40000000 cycles: 25730008 heartbeat IPC: 1.67826 cumulative IPC: 1.55461 (Simulation time: 0 hr 1 min 30 sec) 
Heartbeat CPU 0 instructions: 50000003 cycles: 31569697 heartbeat IPC: 1.71242 cumulative IPC: 1.5838 (Simulation time: 0 hr 1 min 52 sec) 
Heartbeat CPU 0 instructions: 60000000 cycles: 37397926 heartbeat IPC: 1.71579 cumulative IPC: 1.60437 (Simulation time: 0 hr 2 min 14 sec) 
Heartbeat CPU 0 instructions: 70000001 cycles: 43073571 heartbeat IPC: 1.76191 cumulative IPC: 1.62513 (Simulation time: 0 hr 2 min 35 sec) 
Heartbeat CPU 0 instructions: 80000000 cycles: 48959836 heartbeat IPC: 1.69887 cumulative IPC: 1.63399 (Simulation time: 0 hr 2 min 57 sec) 
Heartbeat CPU 0 instructions: 90000000 cycles: 54845414 heartbeat IPC: 1.69907 cumulative IPC: 1.64098 (Simulation time: 0 hr 3 min 19 sec) 
Heartbeat CPU 0 instructions: 100000000 cycles: 60026660 heartbeat IPC: 1.93004 cumulative IPC: 1.66593 (Simulation time: 0 hr 3 min 39 sec) 

Warmup complete CPU 0 instructions: 100000001 cycles: 60026661 (Simulation time: 0 hr 3 min 39 sec) 

Heartbeat CPU 0 instructions: 110000003 cycles: 78578439 heartbeat IPC: 0.539032 cumulative IPC: 0.539032 (Simulation time: 0 hr 4 min 3 sec) 
Heartbeat CPU 0 instructions: 120000000 cycles: 97121360 heartbeat IPC: 0.539289 cumulative IPC: 0.539161 (Simulation time: 0 hr 4 min 28 sec) 
Heartbeat CPU 0 instructions: 130000003 cycles: 115648845 heartbeat IPC: 0.539739 cumulative IPC: 0.539353 (Simulation time: 0 hr 4 min 52 sec) 
Heartbeat CPU 0 instructions: 140000000 cycles: 134198599 heartbeat IPC: 0.539091 cumulative IPC: 0.539288 (Simulation time: 0 hr 5 min 17 sec) 
Heartbeat CPU 0 instructions: 150000003 cycles: 152752903 heartbeat IPC: 0.538959 cumulative IPC: 0.539222 (Simulation time: 0 hr 5 min 41 sec) 
Heartbeat CPU 0 instructions: 160000000 cycles: 171297675 heartbeat IPC: 0.539235 cumulative IPC: 0.539224 (Simulation time: 0 hr 6 min 6 sec) 
Heartbeat CPU 0 instructions: 170000003 cycles: 189850513 heartbeat IPC: 0.539001 cumulative IPC: 0.539192 (Simulation time: 0 hr 6 min 30 sec) 
Heartbeat CPU 0 instructions: 180000000 cycles: 208403794 heartbeat IPC: 0.538988 cumulative IPC: 0.539167 (Simulation time: 0 hr 6 min 54 sec) 
Heartbeat CPU 0 instructions: 190000000 cycles: 226958201 heartbeat IPC: 0.538956 cumulative IPC: 0.539143 (Simulation time: 0 hr 7 min 18 sec) 
Heartbeat CPU 0 instructions: 200000000 cycles: 245504136 heartbeat IPC: 0.539202 cumulative IPC: 0.539149 (Simulation time: 0 hr 7 min 42 sec) 
Heartbeat CPU 0 instructions: 210000002 cycles: 263927749 heartbeat IPC: 0.542782 cumulative IPC: 0.539477 (Simulation time: 0 hr 8 min 6 sec) 
Heartbeat CPU 0 instructions: 220000000 cycles: 282368928 heartbeat IPC: 0.542265 cumulative IPC: 0.539708 (Simulation time: 0 hr 8 min 30 sec) 
Heartbeat CPU 0 instructions: 230000002 cycles: 300806581 heartbeat IPC: 0.542368 cumulative IPC: 0.539912 (Simulation time: 0 hr 8 min 54 sec) 
Heartbeat CPU 0 instructions: 240000000 cycles: 319261883 heartbeat IPC: 0.54185 cumulative IPC: 0.54005 (Simulation time: 0 hr 9 min 18 sec) 
*** Reached end of trace for Core: 0 Repeating trace: /mnt/beegfs/pchatz06/selected_traces/549.fotonik3d_r.refrate.input1.region_10.w_0.0499_0.0585.trace.gz
Heartbeat CPU 0 instructions: 250000000 cycles: 337700095 heartbeat IPC: 0.542352 cumulative IPC: 0.540203 (Simulation time: 0 hr 9 min 41 sec) 
Finished CPU 0 instructions: 150000000 cycles: 277673435 cumulative IPC: 0.540203 (Simulation time: 0 hr 9 min 41 sec) 

CPU 0 Branch Prediction Accuracy: 99.7998% MPKI: 0.07192
Number of Branches: 5388567 Number of Mispredictions: 10788
Number of LOAD Instructions: 79452229
Number of LOAD Instructions (ROI): 79452229
Number of STORE Instructions: 30853709
Number of STORE Instructions (ROI): 30853709
Total Destination Memory Operands: 32869774
Total Destination Memory Operands (ROI): 32869774
Total Source Memory Operands: 79452229
Total Source Memory Operands (ROI): 79452229
Number of DEPENDED LOADS: 1055779
Number of DEPENDED LOADS (ROI): 1055779
Number of SQ_ADDED: 32869750
Number of SQ_ADDED (ROI): 32869750
Number of LQ_ADDED: 142070399
Number of LQ_ADDED (ROI): 142070399
Number of Instructions read from trace: 250000256

ChampSim completed all CPUs

Region of Interest Statistics

CPU 0 cumulative IPC: 0.540203 instructions: 150000000 cycles: 277673435
ITLB TOTAL     ACCESS:   26545239  HIT:   26545239  MISS:          0
ITLB LOAD      ACCESS:   26545239  HIT:   26545239  MISS:          0
ITLB RFO       ACCESS:          0  HIT:          0  MISS:          0
ITLB PREFETCH  ACCESS:          0  HIT:          0  MISS:          0
ITLB WRITEBACK ACCESS:          0  HIT:          0  MISS:          0
ITLB PREFETCH  REQUESTED:          0  ISSUED:          0  USEFUL:          0  USELESS:          0
ITLB TOTAL MSHR MERGED:          0
ITLB LOAD MSHR MERGED:          0
ITLB RFO MSHR MERGED:          0
ITLB PREFETCH MSHR MERGED:          0
ITLB WRITEBACK MSHR MERGED:          0
ITLB TOTAL ACCESSES:   26545239 HITS:   26545239 MISSES:          0
ITLB LOAD ACCESSES:   26545239 HITS:   26545239 MISSES:          0
ITLB RFO ACCESSES:          0 HITS:          0 MISSES:          0
ITLB PREFETCH ACCESSES:          0 HITS:          0 MISSES:          0
ITLB WRITEBACK ACCESSES:          0 HITS:          0 MISSES:          0
ITLB RQ ACCESS:  150000000
ITLB RQ TO_CACHE:   26545240
ITLB RQ MERGED:  123454760
ITLB RQ FORWARD:          0
ITLB WQ ACCESS:          0
ITLB WQ TO_CACHE:          0
ITLB WQ MERGED:          0
ITLB WQ FORWARD:          0
DTLB TOTAL     ACCESS:   26534045  HIT:   26491930  MISS:      42115
DTLB LOAD      ACCESS:   15539528  HIT:   15497413  MISS:      42115
DTLB RFO       ACCESS:   10994517  HIT:   10994517  MISS:          0
DTLB PREFETCH  ACCESS:          0  HIT:          0  MISS:          0
DTLB WRITEBACK ACCESS:          0  HIT:          0  MISS:          0
DTLB PREFETCH  REQUESTED:          0  ISSUED:          0  USEFUL:          0  USELESS:          0
DTLB TOTAL MSHR MERGED:      57841
DTLB LOAD MSHR MERGED:      57841
DTLB RFO MSHR MERGED:          0
DTLB PREFETCH MSHR MERGED:          0
DTLB WRITEBACK MSHR MERGED:          0
DTLB TOTAL ACCESSES:   26591889 HITS:   26491930 MISSES:      99959
DTLB LOAD ACCESSES:   15597372 HITS:   15497413 MISSES:      99959
DTLB RFO ACCESSES:   10994517 HITS:   10994517 MISSES:          0
DTLB PREFETCH ACCESSES:          0 HITS:          0 MISSES:          0
DTLB WRITEBACK ACCESSES:          0 HITS:          0 MISSES:          0
DTLB RQ ACCESS:   53572529
DTLB RQ TO_CACHE:   26591889
DTLB RQ MERGED:   26980640
DTLB RQ FORWARD:          0
DTLB WQ ACCESS:          0
DTLB WQ TO_CACHE:          0
DTLB WQ MERGED:          0
DTLB WQ FORWARD:          0
L1D TOTAL     ACCESS:   40576956  HIT:   36398631  MISS:    4178325
L1D LOAD      ACCESS:   13106260  HIT:   10826381  MISS:    2279879
L1D RFO       ACCESS:   21328518  HIT:   21309779  MISS:      18739
L1D PREFETCH  ACCESS:    6142178  HIT:    4262471  MISS:    1879707
L1D WRITEBACK ACCESS:          0  HIT:          0  MISS:          0
L1D PREFETCH  REQUESTED:   14998904  ISSUED:   14767745  USEFUL:    1803357  USELESS:      76364
L1D TOTAL MSHR MERGED:    6797662
L1D LOAD MSHR MERGED:    3584374
L1D RFO MSHR MERGED:       6736
L1D PREFETCH MSHR MERGED:    3206552
L1D WRITEBACK MSHR MERGED:          0
L1D TOTAL ACCESSES:   47374624 HITS:   36398631 MISSES:   10975993
L1D LOAD ACCESSES:   14998904 HITS:   10826381 MISSES:    4172523
L1D RFO ACCESSES:   21335051 HITS:   21309779 MISSES:      25272
L1D PREFETCH ACCESSES:   11040669 HITS:    4262471 MISSES:    6778198
L1D WRITEBACK ACCESSES:          0 HITS:          0 MISSES:          0
L1D RQ ACCESS:   32236161
L1D RQ TO_CACHE:   14998904
L1D RQ MERGED:   17237257
L1D RQ FORWARD:          0
L1D WQ ACCESS:   21336348
L1D WQ TO_CACHE:   21335052
L1D WQ MERGED:       1296
L1D WQ FORWARD:          0
L1I TOTAL     ACCESS:   35518983  HIT:   35518971  MISS:         12
L1I LOAD      ACCESS:   35518983  HIT:   35518971  MISS:         12
L1I RFO       ACCESS:          0  HIT:          0  MISS:          0
L1I PREFETCH  ACCESS:          0  HIT:          0  MISS:          0
L1I WRITEBACK ACCESS:          0  HIT:          0  MISS:          0
L1I PREFETCH  REQUESTED:          0  ISSUED:          0  USEFUL:          0  USELESS:          0
L1I TOTAL MSHR MERGED:         17
L1I LOAD MSHR MERGED:         17
L1I RFO MSHR MERGED:          0
L1I PREFETCH MSHR MERGED:          0
L1I WRITEBACK MSHR MERGED:          0
L1I TOTAL ACCESSES:   35519000 HITS:   35518971 MISSES:         29
L1I LOAD ACCESSES:   35519000 HITS:   35518971 MISSES:         29
L1I RFO ACCESSES:          0 HITS:          0 MISSES:          0
L1I PREFETCH ACCESSES:          0 HITS:          0 MISSES:          0
L1I WRITEBACK ACCESSES:          0 HITS:          0 MISSES:          0
L1I RQ ACCESS:  150000000
L1I RQ TO_CACHE:   35519000
L1I RQ MERGED:  114481000
L1I RQ FORWARD:          0
L1I WQ ACCESS:          0
L1I WQ TO_CACHE:          0
L1I WQ MERGED:          0
L1I WQ FORWARD:          0
L2C TOTAL     ACCESS:    6985605  HIT:    4327631  MISS:    2657974
L2C LOAD      ACCESS:     588151  HIT:     154374  MISS:     433777
L2C RFO       ACCESS:      18536  HIT:      18533  MISS:          3
L2C PREFETCH  ACCESS:    3700821  HIT:    1476627  MISS:    2224194
L2C WRITEBACK ACCESS:    2678097  HIT:    2678097  MISS:          0
L2C PREFETCH  REQUESTED:     135224  ISSUED:     135224  USEFUL:      38921  USELESS:    2185885
L2C TOTAL MSHR MERGED:        676
L2C LOAD MSHR MERGED:         94
L2C RFO MSHR MERGED:          0
L2C PREFETCH MSHR MERGED:        582
L2C WRITEBACK MSHR MERGED:          0
L2C TOTAL ACCESSES:    6986295 HITS:    4327639 MISSES:    2658656
L2C LOAD ACCESSES:     588161 HITS:     154381 MISSES:     433780
L2C RFO ACCESSES:      18536 HITS:      18533 MISSES:          3
L2C PREFETCH ACCESSES:    3701501 HITS:    1476628 MISSES:    2224873
L2C WRITEBACK ACCESSES:    2678097 HITS:    2678097 MISSES:          0
L2C RQ ACCESS:     606697
L2C RQ TO_CACHE:     606690
L2C RQ MERGED:          0
L2C RQ FORWARD:          0
L2C WQ ACCESS:    2678097
L2C WQ TO_CACHE:    2678097
L2C WQ MERGED:          0
L2C WQ FORWARD:          8
LLC TOTAL     ACCESS:    5301807  HIT:    2649714  MISS:    2652093
LLC LOAD      ACCESS:     433683  HIT:        490  MISS:     433193
LLC RFO       ACCESS:          3  HIT:          0  MISS:          3
LLC PREFETCH  ACCESS:    2224288  HIT:       5391  MISS:    2218897
LLC WRITEBACK ACCESS:    2643833  HIT:    2643833  MISS:          0
LLC PREFETCH  REQUESTED:          0  ISSUED:          0  USEFUL:          0  USELESS:    2223888
LLC TOTAL MSHR MERGED:          0
LLC LOAD MSHR MERGED:          0
LLC RFO MSHR MERGED:          0
LLC PREFETCH MSHR MERGED:          0
LLC WRITEBACK MSHR MERGED:          0
LLC TOTAL ACCESSES:    5301813 HITS:    2649714 MISSES:    2652099
LLC LOAD ACCESSES:     433686 HITS:        490 MISSES:     433196
LLC RFO ACCESSES:          3 HITS:          0 MISSES:          3
LLC PREFETCH ACCESSES:    2224291 HITS:       5391 MISSES:    2218900
LLC WRITEBACK ACCESSES:    2643833 HITS:    2643833 MISSES:          0
LLC 0 RQ ACCESS:     433689
LLC 0 RQ TO_CACHE:     433689
LLC 0 RQ MERGED:          0
LLC 0 RQ FORWARD:          0
LLC WQ ACCESS:    2643833
LLC WQ TO_CACHE:    2643833
LLC WQ MERGED:          0
LLC WQ FORWARD:          0
Major fault: 0 Minor fault: 110054
CPU 0 L1D next line prefetcher final stats
CPU 0 L2C PC-based stride prefetcher final stats

DRAM Statistics
 CHANNEL 0
 RQ ROW_BUFFER_HIT:    1694433  ROW_BUFFER_MISS:     957660
 DBUS_CONGESTED:    3146194
 WQ ROW_BUFFER_HIT:    1572443  ROW_BUFFER_MISS:    1071373  FULL:          0

 AVG_CONGESTED_CYCLE: 14
LOADS RETIRED: 32262629
INSTR RETIRED: 150000000
