
*** ChampSim Multicore Out-of-Order Simulator ***

Warmup Instructions: 100000000
Simulation Instructions: 150000000
Number of CPUs: 1
LLC sets: 2048
LLC ways: 16
Clean RRIP Policies: 0 Dirty RRIP Policies: 0 PSEL Width: 10 Track Set: 4294967295 PSEL Mask: 15 Demote Mask: 0DS Algo: 0Window size: 64
Off-chip DRAM Size: 4096 MB Channels: 1 Width: 64-bit Data Rate: 1600 MT/s

CPU 0 runs /mnt/beegfs/pchatz06/selected_traces/554.roms_r.refrate.input1.region_5.w_0.0393_0.0426.trace.gz
NOT SORTED
TRACE STRING: /mnt/beegfs/pchatz06/selected_traces/554.roms_r.refrate.input1.region_5.w_0.0393_0.0426.trace.gz
SORTED
TRACE STRING: /mnt/beegfs/pchatz06/selected_traces/554.roms_r.refrate.input1.region_5.w_0.0393_0.0426.trace.gz
INITIAL
TRACE STRING: /mnt/beegfs/pchatz06/selected_traces/554.roms_r.refrate.input1.region_5.w_0.0393_0.0426.trace.gz

champsim_seed used: 204

CPU 0 L1D next line prefetcher
CPU 0 L2C IP-based stride prefetcher
Heartbeat CPU 0 instructions: 10000002 cycles: 4691362 heartbeat IPC: 2.13158 cumulative IPC: 2.13158 (Simulation time: 0 hr 0 min 17 sec) 
Heartbeat CPU 0 instructions: 20000000 cycles: 9367738 heartbeat IPC: 2.13841 cumulative IPC: 2.13499 (Simulation time: 0 hr 0 min 33 sec) 
Heartbeat CPU 0 instructions: 30000001 cycles: 14168442 heartbeat IPC: 2.08303 cumulative IPC: 2.11738 (Simulation time: 0 hr 0 min 50 sec) 
Heartbeat CPU 0 instructions: 40000000 cycles: 21988394 heartbeat IPC: 1.27878 cumulative IPC: 1.81914 (Simulation time: 0 hr 1 min 15 sec) 
Heartbeat CPU 0 instructions: 50000002 cycles: 29560426 heartbeat IPC: 1.32065 cumulative IPC: 1.69145 (Simulation time: 0 hr 1 min 40 sec) 
Heartbeat CPU 0 instructions: 60000000 cycles: 37387260 heartbeat IPC: 1.27766 cumulative IPC: 1.60482 (Simulation time: 0 hr 2 min 4 sec) 
Heartbeat CPU 0 instructions: 70000003 cycles: 44945503 heartbeat IPC: 1.32306 cumulative IPC: 1.55744 (Simulation time: 0 hr 2 min 29 sec) 
Heartbeat CPU 0 instructions: 80000000 cycles: 52762208 heartbeat IPC: 1.27931 cumulative IPC: 1.51624 (Simulation time: 0 hr 2 min 54 sec) 
Heartbeat CPU 0 instructions: 90000000 cycles: 60340880 heartbeat IPC: 1.31949 cumulative IPC: 1.49153 (Simulation time: 0 hr 3 min 18 sec) 
Heartbeat CPU 0 instructions: 100000000 cycles: 67378206 heartbeat IPC: 1.42099 cumulative IPC: 1.48416 (Simulation time: 0 hr 3 min 41 sec) 

Warmup complete CPU 0 instructions: 100000002 cycles: 67378207 (Simulation time: 0 hr 3 min 41 sec) 

Heartbeat CPU 0 instructions: 110000002 cycles: 80881629 heartbeat IPC: 0.740553 cumulative IPC: 0.740553 (Simulation time: 0 hr 4 min 7 sec) 
Heartbeat CPU 0 instructions: 120000000 cycles: 94649392 heartbeat IPC: 0.726334 cumulative IPC: 0.733375 (Simulation time: 0 hr 4 min 32 sec) 
Heartbeat CPU 0 instructions: 130000003 cycles: 108141182 heartbeat IPC: 0.741192 cumulative IPC: 0.735962 (Simulation time: 0 hr 4 min 57 sec) 
Heartbeat CPU 0 instructions: 140000000 cycles: 121442833 heartbeat IPC: 0.751786 cumulative IPC: 0.739855 (Simulation time: 0 hr 5 min 22 sec) 
Heartbeat CPU 0 instructions: 150000000 cycles: 135233176 heartbeat IPC: 0.725145 cumulative IPC: 0.736866 (Simulation time: 0 hr 5 min 47 sec) 
Heartbeat CPU 0 instructions: 160000000 cycles: 148752320 heartbeat IPC: 0.739692 cumulative IPC: 0.737335 (Simulation time: 0 hr 6 min 13 sec) 
Heartbeat CPU 0 instructions: 170000000 cycles: 162275088 heartbeat IPC: 0.739494 cumulative IPC: 0.737643 (Simulation time: 0 hr 6 min 38 sec) 
Heartbeat CPU 0 instructions: 180000000 cycles: 175877246 heartbeat IPC: 0.735177 cumulative IPC: 0.737334 (Simulation time: 0 hr 7 min 3 sec) 
Heartbeat CPU 0 instructions: 190000002 cycles: 189774152 heartbeat IPC: 0.719585 cumulative IPC: 0.735318 (Simulation time: 0 hr 7 min 28 sec) 
Heartbeat CPU 0 instructions: 200000000 cycles: 202549557 heartbeat IPC: 0.782754 cumulative IPC: 0.739802 (Simulation time: 0 hr 7 min 52 sec) 
Heartbeat CPU 0 instructions: 210000000 cycles: 210740450 heartbeat IPC: 1.22087 cumulative IPC: 0.767287 (Simulation time: 0 hr 8 min 10 sec) 
Heartbeat CPU 0 instructions: 220000000 cycles: 218506828 heartbeat IPC: 1.2876 cumulative IPC: 0.794026 (Simulation time: 0 hr 8 min 28 sec) 
Heartbeat CPU 0 instructions: 230000001 cycles: 226296448 heartbeat IPC: 1.28376 cumulative IPC: 0.818031 (Simulation time: 0 hr 8 min 46 sec) 
Heartbeat CPU 0 instructions: 240000000 cycles: 234094984 heartbeat IPC: 1.28229 cumulative IPC: 0.839747 (Simulation time: 0 hr 9 min 3 sec) 
*** Reached end of trace for Core: 0 Repeating trace: /mnt/beegfs/pchatz06/selected_traces/554.roms_r.refrate.input1.region_5.w_0.0393_0.0426.trace.gz
Heartbeat CPU 0 instructions: 250000001 cycles: 242088284 heartbeat IPC: 1.25105 cumulative IPC: 0.858565 (Simulation time: 0 hr 9 min 21 sec) 
Finished CPU 0 instructions: 150000001 cycles: 174710078 cumulative IPC: 0.858565 (Simulation time: 0 hr 9 min 21 sec) 

CPU 0 Branch Prediction Accuracy: 99.861% MPKI: 0.14312
Number of Branches: 15441815 Number of Mispredictions: 21468
Number of LOAD Instructions: 87640839
Number of LOAD Instructions (ROI): 87640839
Number of STORE Instructions: 20708425
Number of STORE Instructions (ROI): 20708425
Total Destination Memory Operands: 21285524
Total Destination Memory Operands (ROI): 21285524
Total Source Memory Operands: 87640839
Total Source Memory Operands (ROI): 87640839
Number of DEPENDED LOADS: 2776514
Number of DEPENDED LOADS (ROI): 2776514
Number of SQ_ADDED: 21285523
Number of SQ_ADDED (ROI): 21285523
Number of LQ_ADDED: 93295915
Number of LQ_ADDED (ROI): 93295915
Number of Instructions read from trace: 250000010

ChampSim completed all CPUs

Region of Interest Statistics

CPU 0 cumulative IPC: 0.858565 instructions: 150000001 cycles: 174710078
ITLB TOTAL     ACCESS:   42644559  HIT:   42644545  MISS:         14
ITLB LOAD      ACCESS:   42644559  HIT:   42644545  MISS:         14
ITLB RFO       ACCESS:          0  HIT:          0  MISS:          0
ITLB PREFETCH  ACCESS:          0  HIT:          0  MISS:          0
ITLB WRITEBACK ACCESS:          0  HIT:          0  MISS:          0
ITLB PREFETCH  REQUESTED:          0  ISSUED:          0  USEFUL:          0  USELESS:          0
ITLB TOTAL MSHR MERGED:         17
ITLB LOAD MSHR MERGED:         17
ITLB RFO MSHR MERGED:          0
ITLB PREFETCH MSHR MERGED:          0
ITLB WRITEBACK MSHR MERGED:          0
ITLB TOTAL ACCESSES:   42644576 HITS:   42644545 MISSES:         31
ITLB LOAD ACCESSES:   42644576 HITS:   42644545 MISSES:         31
ITLB RFO ACCESSES:          0 HITS:          0 MISSES:          0
ITLB PREFETCH ACCESSES:          0 HITS:          0 MISSES:          0
ITLB WRITEBACK ACCESSES:          0 HITS:          0 MISSES:          0
ITLB RQ ACCESS:  149999755
ITLB RQ TO_CACHE:   42644576
ITLB RQ MERGED:  107355179
ITLB RQ FORWARD:          0
ITLB WQ ACCESS:          0
ITLB WQ TO_CACHE:          0
ITLB WQ MERGED:          0
ITLB WQ FORWARD:          0
DTLB TOTAL     ACCESS:   35693448  HIT:   35643394  MISS:      50054
DTLB LOAD      ACCESS:   24871271  HIT:   24831042  MISS:      40229
DTLB RFO       ACCESS:   10822177  HIT:   10812352  MISS:       9825
DTLB PREFETCH  ACCESS:          0  HIT:          0  MISS:          0
DTLB WRITEBACK ACCESS:          0  HIT:          0  MISS:          0
DTLB PREFETCH  REQUESTED:          0  ISSUED:          0  USEFUL:          0  USELESS:          0
DTLB TOTAL MSHR MERGED:      62747
DTLB LOAD MSHR MERGED:      55112
DTLB RFO MSHR MERGED:       7635
DTLB PREFETCH MSHR MERGED:          0
DTLB WRITEBACK MSHR MERGED:          0
DTLB TOTAL ACCESSES:   35756195 HITS:   35643394 MISSES:     112801
DTLB LOAD ACCESSES:   24926383 HITS:   24831042 MISSES:      95341
DTLB RFO ACCESSES:   10829812 HITS:   10812352 MISSES:      17460
DTLB PREFETCH ACCESSES:          0 HITS:          0 MISSES:          0
DTLB WRITEBACK ACCESSES:          0 HITS:          0 MISSES:          0
DTLB RQ ACCESS:   46103350
DTLB RQ TO_CACHE:   35756195
DTLB RQ MERGED:   10347155
DTLB RQ FORWARD:          0
DTLB WQ ACCESS:          0
DTLB WQ TO_CACHE:          0
DTLB WQ MERGED:          0
DTLB WQ FORWARD:          0
L1D TOTAL     ACCESS:   52715158  HIT:   50938124  MISS:    1777034
L1D LOAD      ACCESS:   22433207  HIT:   22083271  MISS:     349936
L1D RFO       ACCESS:   12613351  HIT:   12062915  MISS:     550436
L1D PREFETCH  ACCESS:   17668600  HIT:   16791938  MISS:     876662
L1D WRITEBACK ACCESS:          0  HIT:          0  MISS:          0
L1D PREFETCH  REQUESTED:   22821358  ISSUED:   22641316  USEFUL:     849876  USELESS:      26798
L1D TOTAL MSHR MERGED:    4466562
L1D LOAD MSHR MERGED:     633122
L1D RFO MSHR MERGED:    2381643
L1D PREFETCH MSHR MERGED:    1451797
L1D WRITEBACK MSHR MERGED:          0
L1D TOTAL ACCESSES:   57181770 HITS:   50938173 MISSES:    6243597
L1D LOAD ACCESSES:   22821358 HITS:   22083271 MISSES:     738087
L1D RFO ACCESSES:   14994983 HITS:   12062915 MISSES:    2932068
L1D PREFETCH ACCESSES:   19365429 HITS:   16791987 MISSES:    2573442
L1D WRITEBACK ACCESSES:          0 HITS:          0 MISSES:          0
L1D RQ ACCESS:   30618843
L1D RQ TO_CACHE:   22821358
L1D RQ MERGED:    7797485
L1D RQ FORWARD:          0
L1D WQ ACCESS:   15484508
L1D WQ TO_CACHE:   14994986
L1D WQ MERGED:     489522
L1D WQ FORWARD:         49
L1I TOTAL     ACCESS:   48086009  HIT:   48085790  MISS:        219
L1I LOAD      ACCESS:   48086009  HIT:   48085790  MISS:        219
L1I RFO       ACCESS:          0  HIT:          0  MISS:          0
L1I PREFETCH  ACCESS:          0  HIT:          0  MISS:          0
L1I WRITEBACK ACCESS:          0  HIT:          0  MISS:          0
L1I PREFETCH  REQUESTED:          0  ISSUED:          0  USEFUL:          0  USELESS:          0
L1I TOTAL MSHR MERGED:        258
L1I LOAD MSHR MERGED:        258
L1I RFO MSHR MERGED:          0
L1I PREFETCH MSHR MERGED:          0
L1I WRITEBACK MSHR MERGED:          0
L1I TOTAL ACCESSES:   48086268 HITS:   48085790 MISSES:        478
L1I LOAD ACCESSES:   48086268 HITS:   48085790 MISSES:        478
L1I RFO ACCESSES:          0 HITS:          0 MISSES:          0
L1I PREFETCH ACCESSES:          0 HITS:          0 MISSES:          0
L1I WRITEBACK ACCESSES:          0 HITS:          0 MISSES:          0
L1I RQ ACCESS:  149999757
L1I RQ TO_CACHE:   48086268
L1I RQ MERGED:  101913489
L1I RQ FORWARD:          0
L1I WQ ACCESS:          0
L1I WQ TO_CACHE:          0
L1I WQ MERGED:          0
L1I WQ FORWARD:          0
L2C TOTAL     ACCESS:    2338496  HIT:     665494  MISS:    1673002
L2C LOAD      ACCESS:     105182  HIT:      18338  MISS:      86844
L2C RFO       ACCESS:     550424  HIT:      17914  MISS:     532510
L2C PREFETCH  ACCESS:    1131504  HIT:      79920  MISS:    1051584
L2C WRITEBACK ACCESS:     551386  HIT:     549322  MISS:       2064
L2C PREFETCH  REQUESTED:      11649  ISSUED:      11649  USEFUL:       9106  USELESS:    1043384
L2C TOTAL MSHR MERGED:        201
L2C LOAD MSHR MERGED:          3
L2C RFO MSHR MERGED:          0
L2C PREFETCH MSHR MERGED:        198
L2C WRITEBACK MSHR MERGED:          0
L2C TOTAL ACCESSES:    2338819 HITS:     665496 MISSES:    1673323
L2C LOAD ACCESSES:     105185 HITS:      18340 MISSES:      86845
L2C RFO ACCESSES:     550424 HITS:      17914 MISSES:     532510
L2C PREFETCH ACCESSES:    1131824 HITS:      79920 MISSES:    1051904
L2C WRITEBACK ACCESSES:     551386 HITS:     549322 MISSES:       2064
L2C RQ ACCESS:     655610
L2C RQ TO_CACHE:     655608
L2C RQ MERGED:          0
L2C RQ FORWARD:          0
L2C WQ ACCESS:     551386
L2C WQ TO_CACHE:     551386
L2C WQ MERGED:          0
L2C WQ FORWARD:          2
LLC TOTAL     ACCESS:    2211450  HIT:    1728093  MISS:     483357
LLC LOAD      ACCESS:      86842  HIT:      58648  MISS:      28194
LLC RFO       ACCESS:     532508  HIT:     421187  MISS:     111321
LLC PREFETCH  ACCESS:    1051670  HIT:     707877  MISS:     343793
LLC WRITEBACK ACCESS:     540430  HIT:     540381  MISS:         49
LLC PREFETCH  REQUESTED:          0  ISSUED:          0  USEFUL:       7842  USELESS:     340431
LLC TOTAL MSHR MERGED:          0
LLC LOAD MSHR MERGED:          0
LLC RFO MSHR MERGED:          0
LLC PREFETCH MSHR MERGED:          0
LLC WRITEBACK MSHR MERGED:          0
LLC TOTAL ACCESSES:    2211468 HITS:    1728111 MISSES:     483357
LLC LOAD ACCESSES:      86842 HITS:      58648 MISSES:      28194
LLC RFO ACCESSES:     532510 HITS:     421189 MISSES:     111321
LLC PREFETCH ACCESSES:    1051686 HITS:     707893 MISSES:     343793
LLC WRITEBACK ACCESSES:     540430 HITS:     540381 MISSES:         49
LLC 0 RQ ACCESS:     619352
LLC 0 RQ TO_CACHE:     619350
LLC 0 RQ MERGED:          0
LLC 0 RQ FORWARD:          0
LLC WQ ACCESS:     540430
LLC WQ TO_CACHE:     540430
LLC WQ MERGED:          0
LLC WQ FORWARD:         18
Major fault: 0 Minor fault: 37322
CPU 0 L1D next line prefetcher final stats
CPU 0 L2C PC-based stride prefetcher final stats

DRAM Statistics
 CHANNEL 0
 RQ ROW_BUFFER_HIT:     373975  ROW_BUFFER_MISS:     108913
 DBUS_CONGESTED:     201627
 WQ ROW_BUFFER_HIT:      28586  ROW_BUFFER_MISS:      88275  FULL:          0

 AVG_CONGESTED_CYCLE: 13
LOADS RETIRED: 33097686
INSTR RETIRED: 150000000
