
*** ChampSim Multicore Out-of-Order Simulator ***

Warmup Instructions: 100000000
Simulation Instructions: 150000000
Number of CPUs: 1
LLC sets: 2048
LLC ways: 16
Clean RRIP Policies: 0 Dirty RRIP Policies: 0 PSEL Width: 10 Track Set: 4294967295 PSEL Mask: 15 Demote Mask: 0DS Algo: 0Window size: 64
Off-chip DRAM Size: 4096 MB Channels: 1 Width: 64-bit Data Rate: 1600 MT/s

CPU 0 runs /mnt/beegfs/pchatz06/selected_traces/554.roms_r.refrate.input1.region_9.w_0.0863_0.0936.trace.gz
NOT SORTED
TRACE STRING: /mnt/beegfs/pchatz06/selected_traces/554.roms_r.refrate.input1.region_9.w_0.0863_0.0936.trace.gz
SORTED
TRACE STRING: /mnt/beegfs/pchatz06/selected_traces/554.roms_r.refrate.input1.region_9.w_0.0863_0.0936.trace.gz
INITIAL
TRACE STRING: /mnt/beegfs/pchatz06/selected_traces/554.roms_r.refrate.input1.region_9.w_0.0863_0.0936.trace.gz

champsim_seed used: 210

CPU 0 L1D next line prefetcher
CPU 0 L2C IP-based stride prefetcher
Heartbeat CPU 0 instructions: 10000001 cycles: 4386520 heartbeat IPC: 2.27971 cumulative IPC: 2.27971 (Simulation time: 0 hr 0 min 15 sec) 
Heartbeat CPU 0 instructions: 20000000 cycles: 8724299 heartbeat IPC: 2.30533 cumulative IPC: 2.29245 (Simulation time: 0 hr 0 min 30 sec) 
Heartbeat CPU 0 instructions: 30000000 cycles: 13059796 heartbeat IPC: 2.30654 cumulative IPC: 2.29713 (Simulation time: 0 hr 0 min 44 sec) 
Heartbeat CPU 0 instructions: 40000000 cycles: 17393432 heartbeat IPC: 2.30753 cumulative IPC: 2.29972 (Simulation time: 0 hr 0 min 59 sec) 
Heartbeat CPU 0 instructions: 50000003 cycles: 21726693 heartbeat IPC: 2.30773 cumulative IPC: 2.30132 (Simulation time: 0 hr 1 min 14 sec) 
Heartbeat CPU 0 instructions: 60000000 cycles: 26056576 heartbeat IPC: 2.30953 cumulative IPC: 2.30268 (Simulation time: 0 hr 1 min 28 sec) 
Heartbeat CPU 0 instructions: 70000001 cycles: 30390675 heartbeat IPC: 2.30728 cumulative IPC: 2.30334 (Simulation time: 0 hr 1 min 43 sec) 
Heartbeat CPU 0 instructions: 80000000 cycles: 34734192 heartbeat IPC: 2.30228 cumulative IPC: 2.30321 (Simulation time: 0 hr 1 min 57 sec) 
Heartbeat CPU 0 instructions: 90000002 cycles: 39075068 heartbeat IPC: 2.30368 cumulative IPC: 2.30326 (Simulation time: 0 hr 2 min 12 sec) 
Heartbeat CPU 0 instructions: 100000000 cycles: 43410235 heartbeat IPC: 2.30672 cumulative IPC: 2.3036 (Simulation time: 0 hr 2 min 27 sec) 

Warmup complete CPU 0 instructions: 100000001 cycles: 43410248 (Simulation time: 0 hr 2 min 27 sec) 

Heartbeat CPU 0 instructions: 110000000 cycles: 52100957 heartbeat IPC: 1.15065 cumulative IPC: 1.15065 (Simulation time: 0 hr 2 min 47 sec) 
Heartbeat CPU 0 instructions: 120000000 cycles: 60807848 heartbeat IPC: 1.14852 cumulative IPC: 1.14958 (Simulation time: 0 hr 3 min 6 sec) 
Heartbeat CPU 0 instructions: 130000000 cycles: 69497333 heartbeat IPC: 1.15082 cumulative IPC: 1.14999 (Simulation time: 0 hr 3 min 26 sec) 
Heartbeat CPU 0 instructions: 140000000 cycles: 78201442 heartbeat IPC: 1.14888 cumulative IPC: 1.14972 (Simulation time: 0 hr 3 min 46 sec) 
Heartbeat CPU 0 instructions: 150000002 cycles: 86861582 heartbeat IPC: 1.15472 cumulative IPC: 1.15071 (Simulation time: 0 hr 4 min 5 sec) 
Heartbeat CPU 0 instructions: 160000000 cycles: 95493371 heartbeat IPC: 1.15851 cumulative IPC: 1.152 (Simulation time: 0 hr 4 min 25 sec) 
Heartbeat CPU 0 instructions: 170000000 cycles: 104160692 heartbeat IPC: 1.15376 cumulative IPC: 1.15225 (Simulation time: 0 hr 4 min 45 sec) 
Heartbeat CPU 0 instructions: 180000000 cycles: 112840757 heartbeat IPC: 1.15207 cumulative IPC: 1.15223 (Simulation time: 0 hr 5 min 4 sec) 
Heartbeat CPU 0 instructions: 190000000 cycles: 121482922 heartbeat IPC: 1.15712 cumulative IPC: 1.15277 (Simulation time: 0 hr 5 min 24 sec) 
Heartbeat CPU 0 instructions: 200000000 cycles: 130103633 heartbeat IPC: 1.16 cumulative IPC: 1.15349 (Simulation time: 0 hr 5 min 44 sec) 
Heartbeat CPU 0 instructions: 210000003 cycles: 138785139 heartbeat IPC: 1.15187 cumulative IPC: 1.15334 (Simulation time: 0 hr 6 min 3 sec) 
Heartbeat CPU 0 instructions: 220000000 cycles: 148171975 heartbeat IPC: 1.06532 cumulative IPC: 1.14546 (Simulation time: 0 hr 6 min 23 sec) 
Heartbeat CPU 0 instructions: 230000002 cycles: 158258827 heartbeat IPC: 0.99139 cumulative IPC: 1.13193 (Simulation time: 0 hr 6 min 44 sec) 
Heartbeat CPU 0 instructions: 240000000 cycles: 169023584 heartbeat IPC: 0.928957 cumulative IPC: 1.11453 (Simulation time: 0 hr 7 min 5 sec) 
*** Reached end of trace for Core: 0 Repeating trace: /mnt/beegfs/pchatz06/selected_traces/554.roms_r.refrate.input1.region_9.w_0.0863_0.0936.trace.gz
Heartbeat CPU 0 instructions: 250000002 cycles: 179233824 heartbeat IPC: 0.979409 cumulative IPC: 1.10437 (Simulation time: 0 hr 7 min 26 sec) 
Finished CPU 0 instructions: 150000001 cycles: 135823576 cumulative IPC: 1.10437 (Simulation time: 0 hr 7 min 26 sec) 

CPU 0 Branch Prediction Accuracy: 99.4846% MPKI: 0.335847
Number of Branches: 9774733 Number of Mispredictions: 50377
Number of LOAD Instructions: 78955743
Number of LOAD Instructions (ROI): 78955743
Number of STORE Instructions: 10319864
Number of STORE Instructions (ROI): 10319864
Total Destination Memory Operands: 12181618
Total Destination Memory Operands (ROI): 12181618
Total Source Memory Operands: 78955743
Total Source Memory Operands (ROI): 78955743
Number of DEPENDED LOADS: 745509
Number of DEPENDED LOADS (ROI): 745509
Number of SQ_ADDED: 12181615
Number of SQ_ADDED (ROI): 12181615
Number of LQ_ADDED: 91288811
Number of LQ_ADDED (ROI): 91288811
Number of Instructions read from trace: 250000027

ChampSim completed all CPUs

Region of Interest Statistics

CPU 0 cumulative IPC: 1.10437 instructions: 150000001 cycles: 135823576
ITLB TOTAL     ACCESS:   26165966  HIT:   26165953  MISS:         13
ITLB LOAD      ACCESS:   26165966  HIT:   26165953  MISS:         13
ITLB RFO       ACCESS:          0  HIT:          0  MISS:          0
ITLB PREFETCH  ACCESS:          0  HIT:          0  MISS:          0
ITLB WRITEBACK ACCESS:          0  HIT:          0  MISS:          0
ITLB PREFETCH  REQUESTED:          0  ISSUED:          0  USEFUL:          0  USELESS:          0
ITLB TOTAL MSHR MERGED:         17
ITLB LOAD MSHR MERGED:         17
ITLB RFO MSHR MERGED:          0
ITLB PREFETCH MSHR MERGED:          0
ITLB WRITEBACK MSHR MERGED:          0
ITLB TOTAL ACCESSES:   26165983 HITS:   26165953 MISSES:         30
ITLB LOAD ACCESSES:   26165983 HITS:   26165953 MISSES:         30
ITLB RFO ACCESSES:          0 HITS:          0 MISSES:          0
ITLB PREFETCH ACCESSES:          0 HITS:          0 MISSES:          0
ITLB WRITEBACK ACCESSES:          0 HITS:          0 MISSES:          0
ITLB RQ ACCESS:  149999771
ITLB RQ TO_CACHE:   26165983
ITLB RQ MERGED:  123833788
ITLB RQ FORWARD:          0
ITLB WQ ACCESS:          0
ITLB WQ TO_CACHE:          0
ITLB WQ MERGED:          0
ITLB WQ FORWARD:          0
DTLB TOTAL     ACCESS:   42186765  HIT:   42085169  MISS:     101596
DTLB LOAD      ACCESS:   35906513  HIT:   35815735  MISS:      90778
DTLB RFO       ACCESS:    6280252  HIT:    6269434  MISS:      10818
DTLB PREFETCH  ACCESS:          0  HIT:          0  MISS:          0
DTLB WRITEBACK ACCESS:          0  HIT:          0  MISS:          0
DTLB PREFETCH  REQUESTED:          0  ISSUED:          0  USEFUL:          0  USELESS:          0
DTLB TOTAL MSHR MERGED:      49712
DTLB LOAD MSHR MERGED:      43319
DTLB RFO MSHR MERGED:       6393
DTLB PREFETCH MSHR MERGED:          0
DTLB WRITEBACK MSHR MERGED:          0
DTLB TOTAL ACCESSES:   42236477 HITS:   42085169 MISSES:     151308
DTLB LOAD ACCESSES:   35949832 HITS:   35815735 MISSES:     134097
DTLB RFO ACCESSES:    6286645 HITS:    6269434 MISSES:      17211
DTLB PREFETCH ACCESSES:          0 HITS:          0 MISSES:          0
DTLB WRITEBACK ACCESSES:          0 HITS:          0 MISSES:          0
DTLB RQ ACCESS:   54503073
DTLB RQ TO_CACHE:   42236478
DTLB RQ MERGED:   12266595
DTLB RQ FORWARD:          0
DTLB WQ ACCESS:          0
DTLB WQ TO_CACHE:          0
DTLB WQ MERGED:          0
DTLB WQ FORWARD:          0
L1D TOTAL     ACCESS:   58171127  HIT:   54480931  MISS:    3690196
L1D LOAD      ACCESS:   34588059  HIT:   33860806  MISS:     727253
L1D RFO       ACCESS:    4798601  HIT:    4126020  MISS:     672581
L1D PREFETCH  ACCESS:   18784467  HIT:   16494105  MISS:    2290362
L1D WRITEBACK ACCESS:          0  HIT:          0  MISS:          0
L1D PREFETCH  REQUESTED:   35471479  ISSUED:   35067258  USEFUL:    2236931  USELESS:      53437
L1D TOTAL MSHR MERGED:    8691773
L1D LOAD MSHR MERGED:    1457272
L1D RFO MSHR MERGED:    2992661
L1D PREFETCH MSHR MERGED:    4241840
L1D WRITEBACK MSHR MERGED:          0
L1D TOTAL ACCESSES:   66906185 HITS:   54524209 MISSES:   12381976
L1D LOAD ACCESSES:   35471485 HITS:   33860812 MISSES:    1610673
L1D RFO ACCESSES:    7791216 HITS:    4126020 MISSES:    3665196
L1D PREFETCH ACCESSES:   23643484 HITS:   16537377 MISSES:    7106107
L1D WRITEBACK ACCESSES:          0 HITS:          0 MISSES:          0
L1D RQ ACCESS:   46711432
L1D RQ TO_CACHE:   35471480
L1D RQ MERGED:   11239946
L1D RQ FORWARD:          0
L1D WQ ACCESS:    7791662
L1D WQ TO_CACHE:    7791217
L1D WQ MERGED:        445
L1D WQ FORWARD:      43278
L1I TOTAL     ACCESS:   33794902  HIT:   33794614  MISS:        288
L1I LOAD      ACCESS:   33794902  HIT:   33794614  MISS:        288
L1I RFO       ACCESS:          0  HIT:          0  MISS:          0
L1I PREFETCH  ACCESS:          0  HIT:          0  MISS:          0
L1I WRITEBACK ACCESS:          0  HIT:          0  MISS:          0
L1I PREFETCH  REQUESTED:          0  ISSUED:          0  USEFUL:          0  USELESS:          0
L1I TOTAL MSHR MERGED:        450
L1I LOAD MSHR MERGED:        450
L1I RFO MSHR MERGED:          0
L1I PREFETCH MSHR MERGED:          0
L1I WRITEBACK MSHR MERGED:          0
L1I TOTAL ACCESSES:   33795352 HITS:   33794614 MISSES:        738
L1I LOAD ACCESSES:   33795352 HITS:   33794614 MISSES:        738
L1I RFO ACCESSES:          0 HITS:          0 MISSES:          0
L1I PREFETCH ACCESSES:          0 HITS:          0 MISSES:          0
L1I WRITEBACK ACCESSES:          0 HITS:          0 MISSES:          0
L1I RQ ACCESS:  149999771
L1I RQ TO_CACHE:   33795352
L1I RQ MERGED:  116204419
L1I RQ FORWARD:          0
L1I WQ ACCESS:          0
L1I WQ TO_CACHE:          0
L1I WQ MERGED:          0
L1I WQ FORWARD:          0
L2C TOTAL     ACCESS:    4497344  HIT:     965166  MISS:    3532178
L2C LOAD      ACCESS:     153677  HIT:      15007  MISS:     138670
L2C RFO       ACCESS:     672535  HIT:        123  MISS:     672412
L2C PREFETCH  ACCESS:    2870042  HIT:     149378  MISS:    2720664
L2C WRITEBACK ACCESS:     801090  HIT:     800658  MISS:        432
L2C PREFETCH  REQUESTED:       6644  ISSUED:       6644  USEFUL:       2216  USELESS:    2717010
L2C TOTAL MSHR MERGED:         80
L2C LOAD MSHR MERGED:          1
L2C RFO MSHR MERGED:          0
L2C PREFETCH MSHR MERGED:         79
L2C WRITEBACK MSHR MERGED:          0
L2C TOTAL ACCESSES:    4497931 HITS:     965179 MISSES:    3532752
L2C LOAD ACCESSES:     153689 HITS:      15016 MISSES:     138673
L2C RFO ACCESSES:     672535 HITS:        123 MISSES:     672412
L2C PREFETCH ACCESSES:    2870617 HITS:     149382 MISSES:    2721235
L2C WRITEBACK ACCESSES:     801090 HITS:     800658 MISSES:        432
L2C RQ ACCESS:     826224
L2C RQ TO_CACHE:     826215
L2C RQ MERGED:          0
L2C RQ FORWARD:          0
L2C WQ ACCESS:     801090
L2C WQ TO_CACHE:     801090
L2C WQ MERGED:          0
L2C WQ FORWARD:         13
LLC TOTAL     ACCESS:    4330842  HIT:    2433837  MISS:    1897005
LLC LOAD      ACCESS:     138669  HIT:      78604  MISS:      60065
LLC RFO       ACCESS:     672412  HIT:     189280  MISS:     483132
LLC PREFETCH  ACCESS:    2721109  HIT:    1367498  MISS:    1353611
LLC WRITEBACK ACCESS:     798652  HIT:     798455  MISS:        197
LLC PREFETCH  REQUESTED:          0  ISSUED:          0  USEFUL:     148562  USELESS:    1212937
LLC TOTAL MSHR MERGED:          1
LLC LOAD MSHR MERGED:          0
LLC RFO MSHR MERGED:          0
LLC PREFETCH MSHR MERGED:          1
LLC WRITEBACK MSHR MERGED:          0
LLC TOTAL ACCESSES:    4330844 HITS:    2433837 MISSES:    1897007
LLC LOAD ACCESSES:     138670 HITS:      78604 MISSES:      60066
LLC RFO ACCESSES:     672412 HITS:     189280 MISSES:     483132
LLC PREFETCH ACCESSES:    2721110 HITS:    1367498 MISSES:    1353612
LLC WRITEBACK ACCESSES:     798652 HITS:     798455 MISSES:        197
LLC 0 RQ ACCESS:     811084
LLC 0 RQ TO_CACHE:     811084
LLC 0 RQ MERGED:          0
LLC 0 RQ FORWARD:          0
LLC WQ ACCESS:     798652
LLC WQ TO_CACHE:     798652
LLC WQ MERGED:          0
LLC WQ FORWARD:          0
Major fault: 0 Minor fault: 20297
CPU 0 L1D next line prefetcher final stats
CPU 0 L2C PC-based stride prefetcher final stats

DRAM Statistics
 CHANNEL 0
 RQ ROW_BUFFER_HIT:    1013372  ROW_BUFFER_MISS:     882539
 DBUS_CONGESTED:    1289295
 WQ ROW_BUFFER_HIT:     111032  ROW_BUFFER_MISS:     612743  FULL:          0

 AVG_CONGESTED_CYCLE: 13
LOADS RETIRED: 47304104
INSTR RETIRED: 150000000
