
*** ChampSim Multicore Out-of-Order Simulator ***

Warmup Instructions: 100000000
Simulation Instructions: 150000000
Number of CPUs: 1
LLC sets: 2048
LLC ways: 16
Clean RRIP Policies: 0 Dirty RRIP Policies: 0 PSEL Width: 10 Track Set: 4294967295 PSEL Mask: 15 Demote Mask: 0DS Algo: 0Window size: 64
Off-chip DRAM Size: 4096 MB Channels: 1 Width: 64-bit Data Rate: 1600 MT/s

CPU 0 runs /mnt/beegfs/pchatz06/selected_traces/554.roms_r.train.input1.region_5.w_0.1674_0.1934.trace.gz
NOT SORTED
TRACE STRING: /mnt/beegfs/pchatz06/selected_traces/554.roms_r.train.input1.region_5.w_0.1674_0.1934.trace.gz
SORTED
TRACE STRING: /mnt/beegfs/pchatz06/selected_traces/554.roms_r.train.input1.region_5.w_0.1674_0.1934.trace.gz
INITIAL
TRACE STRING: /mnt/beegfs/pchatz06/selected_traces/554.roms_r.train.input1.region_5.w_0.1674_0.1934.trace.gz

champsim_seed used: 209

CPU 0 L1D next line prefetcher
CPU 0 L2C IP-based stride prefetcher
Heartbeat CPU 0 instructions: 10000000 cycles: 6080337 heartbeat IPC: 1.64465 cumulative IPC: 1.64465 (Simulation time: 0 hr 0 min 20 sec) 
Heartbeat CPU 0 instructions: 20000000 cycles: 12217205 heartbeat IPC: 1.6295 cumulative IPC: 1.63704 (Simulation time: 0 hr 0 min 41 sec) 
Heartbeat CPU 0 instructions: 30000002 cycles: 18307017 heartbeat IPC: 1.64209 cumulative IPC: 1.63872 (Simulation time: 0 hr 1 min 1 sec) 
Heartbeat CPU 0 instructions: 40000000 cycles: 24275551 heartbeat IPC: 1.67545 cumulative IPC: 1.64775 (Simulation time: 0 hr 1 min 21 sec) 
Heartbeat CPU 0 instructions: 50000001 cycles: 30326497 heartbeat IPC: 1.65263 cumulative IPC: 1.64872 (Simulation time: 0 hr 1 min 41 sec) 
Heartbeat CPU 0 instructions: 60000000 cycles: 36463885 heartbeat IPC: 1.62936 cumulative IPC: 1.64546 (Simulation time: 0 hr 2 min 1 sec) 
Heartbeat CPU 0 instructions: 70000003 cycles: 42543544 heartbeat IPC: 1.64483 cumulative IPC: 1.64537 (Simulation time: 0 hr 2 min 21 sec) 
Heartbeat CPU 0 instructions: 80000000 cycles: 48461644 heartbeat IPC: 1.68973 cumulative IPC: 1.65079 (Simulation time: 0 hr 2 min 41 sec) 
Heartbeat CPU 0 instructions: 90000000 cycles: 54451355 heartbeat IPC: 1.66953 cumulative IPC: 1.65285 (Simulation time: 0 hr 3 min 1 sec) 
Heartbeat CPU 0 instructions: 100000000 cycles: 60550984 heartbeat IPC: 1.63944 cumulative IPC: 1.6515 (Simulation time: 0 hr 3 min 21 sec) 

Warmup complete CPU 0 instructions: 100000001 cycles: 60551007 (Simulation time: 0 hr 3 min 21 sec) 

Heartbeat CPU 0 instructions: 110000002 cycles: 70709633 heartbeat IPC: 0.984383 cumulative IPC: 0.984385 (Simulation time: 0 hr 3 min 45 sec) 
Heartbeat CPU 0 instructions: 120000000 cycles: 81627721 heartbeat IPC: 0.915911 cumulative IPC: 0.948914 (Simulation time: 0 hr 4 min 9 sec) 
Heartbeat CPU 0 instructions: 130000003 cycles: 91925448 heartbeat IPC: 0.971088 cumulative IPC: 0.956192 (Simulation time: 0 hr 4 min 32 sec) 
Heartbeat CPU 0 instructions: 140000000 cycles: 102045194 heartbeat IPC: 0.988167 cumulative IPC: 0.96399 (Simulation time: 0 hr 4 min 56 sec) 
Heartbeat CPU 0 instructions: 150000002 cycles: 112117845 heartbeat IPC: 0.992787 cumulative IPC: 0.969615 (Simulation time: 0 hr 5 min 19 sec) 
Heartbeat CPU 0 instructions: 160000000 cycles: 123007002 heartbeat IPC: 0.918345 cumulative IPC: 0.960676 (Simulation time: 0 hr 5 min 43 sec) 
Heartbeat CPU 0 instructions: 170000002 cycles: 133352905 heartbeat IPC: 0.966566 cumulative IPC: 0.961513 (Simulation time: 0 hr 6 min 6 sec) 
Heartbeat CPU 0 instructions: 180000000 cycles: 143549534 heartbeat IPC: 0.980716 cumulative IPC: 0.963872 (Simulation time: 0 hr 6 min 30 sec) 
Heartbeat CPU 0 instructions: 190000000 cycles: 153454358 heartbeat IPC: 1.00961 cumulative IPC: 0.968749 (Simulation time: 0 hr 6 min 53 sec) 
Heartbeat CPU 0 instructions: 200000000 cycles: 164211702 heartbeat IPC: 0.929597 cumulative IPC: 0.964686 (Simulation time: 0 hr 7 min 16 sec) 
Heartbeat CPU 0 instructions: 210000000 cycles: 174706057 heartbeat IPC: 0.952893 cumulative IPC: 0.963602 (Simulation time: 0 hr 7 min 39 sec) 
Heartbeat CPU 0 instructions: 220000000 cycles: 184773863 heartbeat IPC: 0.993265 cumulative IPC: 0.966006 (Simulation time: 0 hr 8 min 3 sec) 
Heartbeat CPU 0 instructions: 230000001 cycles: 194846402 heartbeat IPC: 0.992798 cumulative IPC: 0.968015 (Simulation time: 0 hr 8 min 26 sec) 
Heartbeat CPU 0 instructions: 240000000 cycles: 205794200 heartbeat IPC: 0.913426 cumulative IPC: 0.963901 (Simulation time: 0 hr 8 min 50 sec) 
*** Reached end of trace for Core: 0 Repeating trace: /mnt/beegfs/pchatz06/selected_traces/554.roms_r.train.input1.region_5.w_0.1674_0.1934.trace.gz
Heartbeat CPU 0 instructions: 250000002 cycles: 216412776 heartbeat IPC: 0.941746 cumulative IPC: 0.962391 (Simulation time: 0 hr 9 min 13 sec) 
Finished CPU 0 instructions: 150000001 cycles: 155861769 cumulative IPC: 0.962391 (Simulation time: 0 hr 9 min 13 sec) 

CPU 0 Branch Prediction Accuracy: 98.888% MPKI: 0.497793
Number of Branches: 6714734 Number of Mispredictions: 74669
Number of LOAD Instructions: 115543862
Number of LOAD Instructions (ROI): 115543862
Number of STORE Instructions: 18466632
Number of STORE Instructions (ROI): 18466632
Total Destination Memory Operands: 19350430
Total Destination Memory Operands (ROI): 19350430
Total Source Memory Operands: 115543862
Total Source Memory Operands (ROI): 115543862
Number of DEPENDED LOADS: 1094476
Number of DEPENDED LOADS (ROI): 1094476
Number of SQ_ADDED: 19350414
Number of SQ_ADDED (ROI): 19350414
Number of LQ_ADDED: 161943881
Number of LQ_ADDED (ROI): 161943881
Number of Instructions read from trace: 250000253

ChampSim completed all CPUs

Region of Interest Statistics

CPU 0 cumulative IPC: 0.962391 instructions: 150000001 cycles: 155861769
ITLB TOTAL     ACCESS:   27813786  HIT:   27813786  MISS:          0
ITLB LOAD      ACCESS:   27813786  HIT:   27813786  MISS:          0
ITLB RFO       ACCESS:          0  HIT:          0  MISS:          0
ITLB PREFETCH  ACCESS:          0  HIT:          0  MISS:          0
ITLB WRITEBACK ACCESS:          0  HIT:          0  MISS:          0
ITLB PREFETCH  REQUESTED:          0  ISSUED:          0  USEFUL:          0  USELESS:          0
ITLB TOTAL MSHR MERGED:          0
ITLB LOAD MSHR MERGED:          0
ITLB RFO MSHR MERGED:          0
ITLB PREFETCH MSHR MERGED:          0
ITLB WRITEBACK MSHR MERGED:          0
ITLB TOTAL ACCESSES:   27813786 HITS:   27813786 MISSES:          0
ITLB LOAD ACCESSES:   27813786 HITS:   27813786 MISSES:          0
ITLB RFO ACCESSES:          0 HITS:          0 MISSES:          0
ITLB PREFETCH ACCESSES:          0 HITS:          0 MISSES:          0
ITLB WRITEBACK ACCESSES:          0 HITS:          0 MISSES:          0
ITLB RQ ACCESS:  149999997
ITLB RQ TO_CACHE:   27813787
ITLB RQ MERGED:  122186210
ITLB RQ FORWARD:          0
ITLB WQ ACCESS:          0
ITLB WQ TO_CACHE:          0
ITLB WQ MERGED:          0
ITLB WQ FORWARD:          0
DTLB TOTAL     ACCESS:   51589054  HIT:   51424311  MISS:     164743
DTLB LOAD      ACCESS:   43440868  HIT:   43298622  MISS:     142246
DTLB RFO       ACCESS:    8148186  HIT:    8125689  MISS:      22497
DTLB PREFETCH  ACCESS:          0  HIT:          0  MISS:          0
DTLB WRITEBACK ACCESS:          0  HIT:          0  MISS:          0
DTLB PREFETCH  REQUESTED:          0  ISSUED:          0  USEFUL:          0  USELESS:          0
DTLB TOTAL MSHR MERGED:      90378
DTLB LOAD MSHR MERGED:      67977
DTLB RFO MSHR MERGED:      22401
DTLB PREFETCH MSHR MERGED:          0
DTLB WRITEBACK MSHR MERGED:          0
DTLB TOTAL ACCESSES:   51679433 HITS:   51424311 MISSES:     255122
DTLB LOAD ACCESSES:   43508846 HITS:   43298622 MISSES:     210224
DTLB RFO ACCESSES:    8170587 HITS:    8125689 MISSES:      44898
DTLB PREFETCH ACCESSES:          0 HITS:          0 MISSES:          0
DTLB WRITEBACK ACCESSES:          0 HITS:          0 MISSES:          0
DTLB RQ ACCESS:   80218282
DTLB RQ TO_CACHE:   51679433
DTLB RQ MERGED:   28538849
DTLB RQ FORWARD:          0
DTLB WQ ACCESS:          0
DTLB WQ TO_CACHE:          0
DTLB WQ MERGED:          0
DTLB WQ FORWARD:          0
L1D TOTAL     ACCESS:   70201934  HIT:   63145282  MISS:    7056652
L1D LOAD      ACCESS:   40758693  HIT:   38712846  MISS:    2045847
L1D RFO       ACCESS:    7663091  HIT:    6488231  MISS:    1174860
L1D PREFETCH  ACCESS:   21780150  HIT:   17944205  MISS:    3835945
L1D WRITEBACK ACCESS:          0  HIT:          0  MISS:          0
L1D PREFETCH  REQUESTED:   42190728  ISSUED:   41715329  USEFUL:    3124766  USELESS:     711179
L1D TOTAL MSHR MERGED:    9034479
L1D LOAD MSHR MERGED:    2130849
L1D RFO MSHR MERGED:    3988359
L1D PREFETCH MSHR MERGED:    2915271
L1D WRITEBACK MSHR MERGED:          0
L1D TOTAL ACCESSES:   79239869 HITS:   63148732 MISSES:   16091137
L1D LOAD ACCESSES:   42192536 HITS:   38714654 MISSES:    3477882
L1D RFO ACCESSES:   11651157 HITS:    6488231 MISSES:    5162926
L1D PREFETCH ACCESSES:   25396176 HITS:   17945847 MISSES:    7450329
L1D WRITEBACK ACCESSES:          0 HITS:          0 MISSES:          0
L1D RQ ACCESS:   68560493
L1D RQ TO_CACHE:   42190730
L1D RQ MERGED:   26367955
L1D RQ FORWARD:          0
L1D WQ ACCESS:   11657826
L1D WQ TO_CACHE:   11651159
L1D WQ MERGED:       6667
L1D WQ FORWARD:       3450
L1I TOTAL     ACCESS:   35661412  HIT:   35606931  MISS:      54481
L1I LOAD      ACCESS:   35661412  HIT:   35606931  MISS:      54481
L1I RFO       ACCESS:          0  HIT:          0  MISS:          0
L1I PREFETCH  ACCESS:          0  HIT:          0  MISS:          0
L1I WRITEBACK ACCESS:          0  HIT:          0  MISS:          0
L1I PREFETCH  REQUESTED:          0  ISSUED:          0  USEFUL:          0  USELESS:          0
L1I TOTAL MSHR MERGED:      97144
L1I LOAD MSHR MERGED:      97144
L1I RFO MSHR MERGED:          0
L1I PREFETCH MSHR MERGED:          0
L1I WRITEBACK MSHR MERGED:          0
L1I TOTAL ACCESSES:   35758556 HITS:   35606931 MISSES:     151625
L1I LOAD ACCESSES:   35758556 HITS:   35606931 MISSES:     151625
L1I RFO ACCESSES:          0 HITS:          0 MISSES:          0
L1I PREFETCH ACCESSES:          0 HITS:          0 MISSES:          0
L1I WRITEBACK ACCESSES:          0 HITS:          0 MISSES:          0
L1I RQ ACCESS:  149999989
L1I RQ TO_CACHE:   35758557
L1I RQ MERGED:  114241432
L1I RQ FORWARD:          0
L1I WQ ACCESS:          0
L1I WQ TO_CACHE:          0
L1I WQ MERGED:          0
L1I WQ FORWARD:          0
L2C TOTAL     ACCESS:    9447326  HIT:    5251248  MISS:    4196078
L2C LOAD      ACCESS:    1401295  HIT:    1051042  MISS:     350253
L2C RFO       ACCESS:    1173031  HIT:     249811  MISS:     923220
L2C PREFETCH  ACCESS:    5311750  HIT:    2392695  MISS:    2919055
L2C WRITEBACK ACCESS:    1561250  HIT:    1557700  MISS:       3550
L2C PREFETCH  REQUESTED:     919772  ISSUED:     919772  USEFUL:     411363  USELESS:    2508284
L2C TOTAL MSHR MERGED:      30694
L2C LOAD MSHR MERGED:         18
L2C RFO MSHR MERGED:          0
L2C PREFETCH MSHR MERGED:      30676
L2C WRITEBACK MSHR MERGED:          0
L2C TOTAL ACCESSES:    9499004 HITS:    5253140 MISSES:    4245864
L2C LOAD ACCESSES:    1401513 HITS:    1051260 MISSES:     350253
L2C RFO ACCESSES:    1174566 HITS:     251343 MISSES:     923223
L2C PREFETCH ACCESSES:    5361675 HITS:    2392837 MISSES:    2968838
L2C WRITEBACK ACCESSES:    1561250 HITS:    1557700 MISSES:       3550
L2C RQ ACCESS:    2576081
L2C RQ TO_CACHE:    2574331
L2C RQ MERGED:          0
L2C RQ FORWARD:          0
L2C WQ ACCESS:    1561250
L2C WQ TO_CACHE:    1561250
L2C WQ MERGED:          0
L2C WQ FORWARD:       1892
LLC TOTAL     ACCESS:    5487861  HIT:    3810071  MISS:    1677790
LLC LOAD      ACCESS:     350231  HIT:     204473  MISS:     145758
LLC RFO       ACCESS:     923213  HIT:     528118  MISS:     395095
LLC PREFETCH  ACCESS:    2936270  HIT:    1799679  MISS:    1136591
LLC WRITEBACK ACCESS:    1278147  HIT:    1277801  MISS:        346
LLC PREFETCH  REQUESTED:          0  ISSUED:          0  USEFUL:      40691  USELESS:    1096361
LLC TOTAL MSHR MERGED:       1446
LLC LOAD MSHR MERGED:          0
LLC RFO MSHR MERGED:          0
LLC PREFETCH MSHR MERGED:       1446
LLC WRITEBACK MSHR MERGED:          0
LLC TOTAL ACCESSES:    5489340 HITS:    3810102 MISSES:    1679238
LLC LOAD ACCESSES:     350235 HITS:     204477 MISSES:     145758
LLC RFO ACCESSES:     923222 HITS:     528125 MISSES:     395097
LLC PREFETCH ACCESSES:    2937736 HITS:    1799699 MISSES:    1138037
LLC WRITEBACK ACCESSES:    1278147 HITS:    1277801 MISSES:        346
LLC 0 RQ ACCESS:    1273458
LLC 0 RQ TO_CACHE:    1273447
LLC 0 RQ MERGED:          0
LLC 0 RQ FORWARD:          0
LLC WQ ACCESS:    1278147
LLC WQ TO_CACHE:    1278147
LLC WQ MERGED:          0
LLC WQ FORWARD:         31
Major fault: 0 Minor fault: 3031
CPU 0 L1D next line prefetcher final stats
CPU 0 L2C PC-based stride prefetcher final stats

DRAM Statistics
 CHANNEL 0
 RQ ROW_BUFFER_HIT:    1055647  ROW_BUFFER_MISS:     620688
 DBUS_CONGESTED:    1023239
 WQ ROW_BUFFER_HIT:      72223  ROW_BUFFER_MISS:     469500  FULL:          0

 AVG_CONGESTED_CYCLE: 13
LOADS RETIRED: 69213870
INSTR RETIRED: 150000000
