
*** ChampSim Multicore Out-of-Order Simulator ***

Warmup Instructions: 100000000
Simulation Instructions: 150000000
Number of CPUs: 1
LLC sets: 2048
LLC ways: 16
Clean RRIP Policies: 0 Dirty RRIP Policies: 0 PSEL Width: 10 Track Set: 4294967295 PSEL Mask: 15 Demote Mask: 0DS Algo: 0Window size: 64
Off-chip DRAM Size: 4096 MB Channels: 1 Width: 64-bit Data Rate: 1600 MT/s

CPU 0 runs /mnt/beegfs/pchatz06/selected_traces/557.xz_r.train.input2.region_17.w_0.076_0.0956.trace.gz
NOT SORTED
TRACE STRING: /mnt/beegfs/pchatz06/selected_traces/557.xz_r.train.input2.region_17.w_0.076_0.0956.trace.gz
SORTED
TRACE STRING: /mnt/beegfs/pchatz06/selected_traces/557.xz_r.train.input2.region_17.w_0.076_0.0956.trace.gz
INITIAL
TRACE STRING: /mnt/beegfs/pchatz06/selected_traces/557.xz_r.train.input2.region_17.w_0.076_0.0956.trace.gz

champsim_seed used: 212

CPU 0 L1D next line prefetcher
CPU 0 L2C IP-based stride prefetcher
Heartbeat CPU 0 instructions: 10000002 cycles: 4593827 heartbeat IPC: 2.17683 cumulative IPC: 2.17683 (Simulation time: 0 hr 0 min 14 sec) 
Heartbeat CPU 0 instructions: 20000000 cycles: 9187461 heartbeat IPC: 2.17693 cumulative IPC: 2.17688 (Simulation time: 0 hr 0 min 28 sec) 
Heartbeat CPU 0 instructions: 30000001 cycles: 13815090 heartbeat IPC: 2.16093 cumulative IPC: 2.17154 (Simulation time: 0 hr 0 min 43 sec) 
Heartbeat CPU 0 instructions: 40000000 cycles: 18405309 heartbeat IPC: 2.17854 cumulative IPC: 2.17329 (Simulation time: 0 hr 0 min 57 sec) 
Heartbeat CPU 0 instructions: 50000003 cycles: 23006082 heartbeat IPC: 2.17355 cumulative IPC: 2.17334 (Simulation time: 0 hr 1 min 11 sec) 
Heartbeat CPU 0 instructions: 60000000 cycles: 27604855 heartbeat IPC: 2.17449 cumulative IPC: 2.17353 (Simulation time: 0 hr 1 min 25 sec) 
Heartbeat CPU 0 instructions: 70000003 cycles: 32207901 heartbeat IPC: 2.17248 cumulative IPC: 2.17338 (Simulation time: 0 hr 1 min 39 sec) 
Heartbeat CPU 0 instructions: 80000000 cycles: 36796104 heartbeat IPC: 2.1795 cumulative IPC: 2.17414 (Simulation time: 0 hr 1 min 53 sec) 
Heartbeat CPU 0 instructions: 90000002 cycles: 41412646 heartbeat IPC: 2.16612 cumulative IPC: 2.17325 (Simulation time: 0 hr 2 min 7 sec) 
Heartbeat CPU 0 instructions: 100000000 cycles: 46029515 heartbeat IPC: 2.16597 cumulative IPC: 2.17252 (Simulation time: 0 hr 2 min 21 sec) 

Warmup complete CPU 0 instructions: 100000001 cycles: 46029516 (Simulation time: 0 hr 2 min 21 sec) 

Heartbeat CPU 0 instructions: 110000001 cycles: 63562453 heartbeat IPC: 0.570355 cumulative IPC: 0.570355 (Simulation time: 0 hr 2 min 44 sec) 
Heartbeat CPU 0 instructions: 120000000 cycles: 81178112 heartbeat IPC: 0.567677 cumulative IPC: 0.569013 (Simulation time: 0 hr 3 min 7 sec) 
Heartbeat CPU 0 instructions: 130000000 cycles: 99181165 heartbeat IPC: 0.555461 cumulative IPC: 0.564423 (Simulation time: 0 hr 3 min 29 sec) 
Heartbeat CPU 0 instructions: 140000000 cycles: 116705204 heartbeat IPC: 0.570645 cumulative IPC: 0.565965 (Simulation time: 0 hr 3 min 52 sec) 
Heartbeat CPU 0 instructions: 150000003 cycles: 134240839 heartbeat IPC: 0.570267 cumulative IPC: 0.566821 (Simulation time: 0 hr 4 min 15 sec) 
Heartbeat CPU 0 instructions: 160000000 cycles: 151830765 heartbeat IPC: 0.568507 cumulative IPC: 0.567101 (Simulation time: 0 hr 4 min 37 sec) 
Heartbeat CPU 0 instructions: 170000000 cycles: 169171247 heartbeat IPC: 0.576685 cumulative IPC: 0.568451 (Simulation time: 0 hr 5 min 0 sec) 
Heartbeat CPU 0 instructions: 180000000 cycles: 186631972 heartbeat IPC: 0.572714 cumulative IPC: 0.56898 (Simulation time: 0 hr 5 min 22 sec) 
Heartbeat CPU 0 instructions: 190000000 cycles: 204388403 heartbeat IPC: 0.563176 cumulative IPC: 0.568329 (Simulation time: 0 hr 5 min 45 sec) 
Heartbeat CPU 0 instructions: 200000000 cycles: 222045933 heartbeat IPC: 0.566331 cumulative IPC: 0.568129 (Simulation time: 0 hr 6 min 7 sec) 
Heartbeat CPU 0 instructions: 210000001 cycles: 239404014 heartbeat IPC: 0.576101 cumulative IPC: 0.568844 (Simulation time: 0 hr 6 min 30 sec) 
Heartbeat CPU 0 instructions: 220000000 cycles: 257020195 heartbeat IPC: 0.56766 cumulative IPC: 0.568745 (Simulation time: 0 hr 6 min 53 sec) 
Heartbeat CPU 0 instructions: 230000003 cycles: 274414143 heartbeat IPC: 0.574913 cumulative IPC: 0.569215 (Simulation time: 0 hr 7 min 15 sec) 
Heartbeat CPU 0 instructions: 240000000 cycles: 292119973 heartbeat IPC: 0.564786 cumulative IPC: 0.568896 (Simulation time: 0 hr 7 min 38 sec) 
*** Reached end of trace for Core: 0 Repeating trace: /mnt/beegfs/pchatz06/selected_traces/557.xz_r.train.input2.region_17.w_0.076_0.0956.trace.gz
Heartbeat CPU 0 instructions: 250000000 cycles: 310195683 heartbeat IPC: 0.553229 cumulative IPC: 0.567824 (Simulation time: 0 hr 8 min 1 sec) 
Finished CPU 0 instructions: 150000000 cycles: 264166169 cumulative IPC: 0.567824 (Simulation time: 0 hr 8 min 1 sec) 

CPU 0 Branch Prediction Accuracy: 94.5247% MPKI: 6.17397
Number of Branches: 16914115 Number of Mispredictions: 926096
Number of LOAD Instructions: 63740390
Number of LOAD Instructions (ROI): 63740390
Number of STORE Instructions: 30549188
Number of STORE Instructions (ROI): 30549188
Total Destination Memory Operands: 33732940
Total Destination Memory Operands (ROI): 33732940
Total Source Memory Operands: 63740390
Total Source Memory Operands (ROI): 63740390
Number of DEPENDED LOADS: 7714109
Number of DEPENDED LOADS (ROI): 7714109
Number of SQ_ADDED: 33732939
Number of SQ_ADDED (ROI): 33732939
Number of LQ_ADDED: 97256832
Number of LQ_ADDED (ROI): 97256832
Number of Instructions read from trace: 250000012

ChampSim completed all CPUs

Region of Interest Statistics

CPU 0 cumulative IPC: 0.567824 instructions: 150000000 cycles: 264166169
ITLB TOTAL     ACCESS:   23484761  HIT:   23484761  MISS:          0
ITLB LOAD      ACCESS:   23484761  HIT:   23484761  MISS:          0
ITLB RFO       ACCESS:          0  HIT:          0  MISS:          0
ITLB PREFETCH  ACCESS:          0  HIT:          0  MISS:          0
ITLB WRITEBACK ACCESS:          0  HIT:          0  MISS:          0
ITLB PREFETCH  REQUESTED:          0  ISSUED:          0  USEFUL:          0  USELESS:          0
ITLB TOTAL MSHR MERGED:          0
ITLB LOAD MSHR MERGED:          0
ITLB RFO MSHR MERGED:          0
ITLB PREFETCH MSHR MERGED:          0
ITLB WRITEBACK MSHR MERGED:          0
ITLB TOTAL ACCESSES:   23484761 HITS:   23484761 MISSES:          0
ITLB LOAD ACCESSES:   23484761 HITS:   23484761 MISSES:          0
ITLB RFO ACCESSES:          0 HITS:          0 MISSES:          0
ITLB PREFETCH ACCESSES:          0 HITS:          0 MISSES:          0
ITLB WRITEBACK ACCESSES:          0 HITS:          0 MISSES:          0
ITLB RQ ACCESS:  149999987
ITLB RQ TO_CACHE:   23484761
ITLB RQ MERGED:  126515226
ITLB RQ FORWARD:          0
ITLB WQ ACCESS:          0
ITLB WQ TO_CACHE:          0
ITLB WQ MERGED:          0
ITLB WQ FORWARD:          0
DTLB TOTAL     ACCESS:   36158843  HIT:   35475616  MISS:     683227
DTLB LOAD      ACCESS:   21311591  HIT:   20631923  MISS:     679668
DTLB RFO       ACCESS:   14847252  HIT:   14843693  MISS:       3559
DTLB PREFETCH  ACCESS:          0  HIT:          0  MISS:          0
DTLB WRITEBACK ACCESS:          0  HIT:          0  MISS:          0
DTLB PREFETCH  REQUESTED:          0  ISSUED:          0  USEFUL:          0  USELESS:          0
DTLB TOTAL MSHR MERGED:      40732
DTLB LOAD MSHR MERGED:       5106
DTLB RFO MSHR MERGED:      35626
DTLB PREFETCH MSHR MERGED:          0
DTLB WRITEBACK MSHR MERGED:          0
DTLB TOTAL ACCESSES:   36199575 HITS:   35475616 MISSES:     723959
DTLB LOAD ACCESSES:   21316697 HITS:   20631923 MISSES:     684774
DTLB RFO ACCESSES:   14882878 HITS:   14843693 MISSES:      39185
DTLB PREFETCH ACCESSES:          0 HITS:          0 MISSES:          0
DTLB WRITEBACK ACCESSES:          0 HITS:          0 MISSES:          0
DTLB RQ ACCESS:   53992767
DTLB RQ TO_CACHE:   36199575
DTLB RQ MERGED:   17793192
DTLB RQ FORWARD:          0
DTLB WQ ACCESS:          0
DTLB WQ TO_CACHE:          0
DTLB WQ MERGED:          0
DTLB WQ FORWARD:          0
L1D TOTAL     ACCESS:   64237029  HIT:   62151952  MISS:    2085077
L1D LOAD      ACCESS:   23652313  HIT:   22633494  MISS:    1018819
L1D RFO       ACCESS:   19911907  HIT:   19875973  MISS:      35934
L1D PREFETCH  ACCESS:   20672809  HIT:   19642485  MISS:    1030324
L1D WRITEBACK ACCESS:          0  HIT:          0  MISS:          0
L1D PREFETCH  REQUESTED:   23674960  ISSUED:   22947983  USEFUL:     104307  USELESS:     925994
L1D TOTAL MSHR MERGED:     136784
L1D LOAD MSHR MERGED:      26490
L1D RFO MSHR MERGED:      46780
L1D PREFETCH MSHR MERGED:      63514
L1D WRITEBACK MSHR MERGED:          0
L1D TOTAL ACCESSES:   64412891 HITS:   62191026 MISSES:    2221865
L1D LOAD ACCESSES:   23702420 HITS:   22660954 MISSES:    1041466
L1D RFO ACCESSES:   19958412 HITS:   19875973 MISSES:      82439
L1D PREFETCH ACCESSES:   20752059 HITS:   19654099 MISSES:    1097960
L1D WRITEBACK ACCESSES:          0 HITS:          0 MISSES:          0
L1D RQ ACCESS:   33624963
L1D RQ TO_CACHE:   23674960
L1D RQ MERGED:    9922543
L1D RQ FORWARD:          0
L1D WQ ACCESS:   20367805
L1D WQ TO_CACHE:   19958413
L1D WQ MERGED:     409392
L1D WQ FORWARD:      39074
L1I TOTAL     ACCESS:   30754773  HIT:   30754772  MISS:          1
L1I LOAD      ACCESS:   30754773  HIT:   30754772  MISS:          1
L1I RFO       ACCESS:          0  HIT:          0  MISS:          0
L1I PREFETCH  ACCESS:          0  HIT:          0  MISS:          0
L1I WRITEBACK ACCESS:          0  HIT:          0  MISS:          0
L1I PREFETCH  REQUESTED:          0  ISSUED:          0  USEFUL:          0  USELESS:          0
L1I TOTAL MSHR MERGED:          1
L1I LOAD MSHR MERGED:          1
L1I RFO MSHR MERGED:          0
L1I PREFETCH MSHR MERGED:          0
L1I WRITEBACK MSHR MERGED:          0
L1I TOTAL ACCESSES:   30754774 HITS:   30754772 MISSES:          2
L1I LOAD ACCESSES:   30754774 HITS:   30754772 MISSES:          2
L1I RFO ACCESSES:          0 HITS:          0 MISSES:          0
L1I PREFETCH ACCESSES:          0 HITS:          0 MISSES:          0
L1I WRITEBACK ACCESSES:          0 HITS:          0 MISSES:          0
L1I RQ ACCESS:  149999987
L1I RQ TO_CACHE:   30754774
L1I RQ MERGED:  119245213
L1I RQ FORWARD:          0
L1I WQ ACCESS:          0
L1I WQ TO_CACHE:          0
L1I WQ MERGED:          0
L1I WQ FORWARD:          0
L2C TOTAL     ACCESS:    2779364  HIT:    1256671  MISS:    1522693
L2C LOAD      ACCESS:    1014963  HIT:     273388  MISS:     741575
L2C RFO       ACCESS:      35658  HIT:       9363  MISS:      26295
L2C PREFETCH  ACCESS:    1059405  HIT:     309276  MISS:     750129
L2C WRITEBACK ACCESS:     669338  HIT:     664644  MISS:       4694
L2C PREFETCH  REQUESTED:      25259  ISSUED:      25259  USEFUL:      34225  USELESS:     715904
L2C TOTAL MSHR MERGED:         20
L2C LOAD MSHR MERGED:          2
L2C RFO MSHR MERGED:          0
L2C PREFETCH MSHR MERGED:         18
L2C WRITEBACK MSHR MERGED:          0
L2C TOTAL ACCESSES:    2779422 HITS:    1256705 MISSES:    1522717
L2C LOAD ACCESSES:    1014977 HITS:     273400 MISSES:     741577
L2C RFO ACCESSES:      35659 HITS:       9364 MISSES:      26295
L2C PREFETCH ACCESSES:    1059448 HITS:     309297 MISSES:     750151
L2C WRITEBACK ACCESSES:     669338 HITS:     664644 MISSES:       4694
L2C RQ ACCESS:    1050636
L2C RQ TO_CACHE:    1050623
L2C RQ MERGED:          0
L2C RQ FORWARD:          0
L2C WQ ACCESS:     669338
L2C WQ TO_CACHE:     669338
L2C WQ MERGED:          0
L2C WQ FORWARD:         34
LLC TOTAL     ACCESS:    2013395  HIT:     903398  MISS:    1109997
LLC LOAD      ACCESS:     741572  HIT:     200428  MISS:     541144
LLC RFO       ACCESS:      26295  HIT:       3098  MISS:      23197
LLC PREFETCH  ACCESS:     750131  HIT:     206918  MISS:     543213
LLC WRITEBACK ACCESS:     495397  HIT:     492954  MISS:       2443
LLC PREFETCH  REQUESTED:          0  ISSUED:          0  USEFUL:      42330  USELESS:     500940
LLC TOTAL MSHR MERGED:          0
LLC LOAD MSHR MERGED:          0
LLC RFO MSHR MERGED:          0
LLC PREFETCH MSHR MERGED:          0
LLC WRITEBACK MSHR MERGED:          0
LLC TOTAL ACCESSES:    2013397 HITS:     903399 MISSES:    1109998
LLC LOAD ACCESSES:     741574 HITS:     200429 MISSES:     541145
LLC RFO ACCESSES:      26295 HITS:       3098 MISSES:      23197
LLC PREFETCH ACCESSES:     750131 HITS:     206918 MISSES:     543213
LLC WRITEBACK ACCESSES:     495397 HITS:     492954 MISSES:       2443
LLC 0 RQ ACCESS:     767870
LLC 0 RQ TO_CACHE:     767869
LLC 0 RQ MERGED:          0
LLC 0 RQ FORWARD:          0
LLC WQ ACCESS:     495397
LLC WQ TO_CACHE:     495397
LLC WQ MERGED:          0
LLC WQ FORWARD:          1
Major fault: 0 Minor fault: 11524
CPU 0 L1D next line prefetcher final stats
CPU 0 L2C PC-based stride prefetcher final stats

DRAM Statistics
 CHANNEL 0
 RQ ROW_BUFFER_HIT:      25493  ROW_BUFFER_MISS:    1081897
 DBUS_CONGESTED:    1029259
 WQ ROW_BUFFER_HIT:      36616  ROW_BUFFER_MISS:     368411  FULL:          0

 AVG_CONGESTED_CYCLE: 13
LOADS RETIRED: 38378601
INSTR RETIRED: 150000000
