
*** ChampSim Multicore Out-of-Order Simulator ***

Warmup Instructions: 100000000
Simulation Instructions: 150000000
Number of CPUs: 1
LLC sets: 2048
LLC ways: 16
Clean RRIP Policies: 0 Dirty RRIP Policies: 0 PSEL Width: 10 Track Set: 4294967295 PSEL Mask: 15 Demote Mask: 0DS Algo: 0Window size: 64
Off-chip DRAM Size: 4096 MB Channels: 1 Width: 64-bit Data Rate: 1600 MT/s

CPU 0 runs /mnt/beegfs/pchatz06/selected_traces/557.xz_r.train.input1.region_5.w_0.0423_0.0492.trace.gz
NOT SORTED
TRACE STRING: /mnt/beegfs/pchatz06/selected_traces/557.xz_r.train.input1.region_5.w_0.0423_0.0492.trace.gz
SORTED
TRACE STRING: /mnt/beegfs/pchatz06/selected_traces/557.xz_r.train.input1.region_5.w_0.0423_0.0492.trace.gz
INITIAL
TRACE STRING: /mnt/beegfs/pchatz06/selected_traces/557.xz_r.train.input1.region_5.w_0.0423_0.0492.trace.gz

champsim_seed used: 207

CPU 0 L1D next line prefetcher
CPU 0 L2C IP-based stride prefetcher
Heartbeat CPU 0 instructions: 10000000 cycles: 4608668 heartbeat IPC: 2.16982 cumulative IPC: 2.16982 (Simulation time: 0 hr 0 min 10 sec) 
Heartbeat CPU 0 instructions: 20000000 cycles: 9179970 heartbeat IPC: 2.18756 cumulative IPC: 2.17866 (Simulation time: 0 hr 0 min 21 sec) 
Heartbeat CPU 0 instructions: 30000002 cycles: 13774599 heartbeat IPC: 2.17645 cumulative IPC: 2.17792 (Simulation time: 0 hr 0 min 31 sec) 
Heartbeat CPU 0 instructions: 40000000 cycles: 18346649 heartbeat IPC: 2.1872 cumulative IPC: 2.18023 (Simulation time: 0 hr 0 min 41 sec) 
Heartbeat CPU 0 instructions: 50000000 cycles: 22955071 heartbeat IPC: 2.16994 cumulative IPC: 2.17817 (Simulation time: 0 hr 0 min 51 sec) 
Heartbeat CPU 0 instructions: 60000000 cycles: 27559720 heartbeat IPC: 2.17172 cumulative IPC: 2.17709 (Simulation time: 0 hr 1 min 1 sec) 
Heartbeat CPU 0 instructions: 70000000 cycles: 32160771 heartbeat IPC: 2.17342 cumulative IPC: 2.17656 (Simulation time: 0 hr 1 min 11 sec) 
Heartbeat CPU 0 instructions: 80000000 cycles: 36723021 heartbeat IPC: 2.1919 cumulative IPC: 2.17847 (Simulation time: 0 hr 1 min 22 sec) 
Heartbeat CPU 0 instructions: 90000001 cycles: 41277663 heartbeat IPC: 2.19556 cumulative IPC: 2.18036 (Simulation time: 0 hr 1 min 32 sec) 
Heartbeat CPU 0 instructions: 100000000 cycles: 45848191 heartbeat IPC: 2.18793 cumulative IPC: 2.18111 (Simulation time: 0 hr 1 min 42 sec) 

Warmup complete CPU 0 instructions: 100000001 cycles: 45848192 (Simulation time: 0 hr 1 min 42 sec) 

Heartbeat CPU 0 instructions: 110000002 cycles: 57604784 heartbeat IPC: 0.850587 cumulative IPC: 0.850587 (Simulation time: 0 hr 1 min 58 sec) 
Heartbeat CPU 0 instructions: 120000000 cycles: 69247234 heartbeat IPC: 0.858926 cumulative IPC: 0.854736 (Simulation time: 0 hr 2 min 15 sec) 
Heartbeat CPU 0 instructions: 130000002 cycles: 81086598 heartbeat IPC: 0.84464 cumulative IPC: 0.851344 (Simulation time: 0 hr 2 min 31 sec) 
Heartbeat CPU 0 instructions: 140000000 cycles: 92168494 heartbeat IPC: 0.902372 cumulative IPC: 0.863552 (Simulation time: 0 hr 2 min 47 sec) 
Heartbeat CPU 0 instructions: 150000001 cycles: 103245000 heartbeat IPC: 0.902812 cumulative IPC: 0.871129 (Simulation time: 0 hr 3 min 2 sec) 
Heartbeat CPU 0 instructions: 160000000 cycles: 114666265 heartbeat IPC: 0.87556 cumulative IPC: 0.871864 (Simulation time: 0 hr 3 min 18 sec) 
Heartbeat CPU 0 instructions: 170000000 cycles: 125619194 heartbeat IPC: 0.912998 cumulative IPC: 0.877512 (Simulation time: 0 hr 3 min 34 sec) 
Heartbeat CPU 0 instructions: 180000000 cycles: 136726304 heartbeat IPC: 0.900324 cumulative IPC: 0.8803 (Simulation time: 0 hr 3 min 49 sec) 
Heartbeat CPU 0 instructions: 190000003 cycles: 147907734 heartbeat IPC: 0.89434 cumulative IPC: 0.881838 (Simulation time: 0 hr 4 min 5 sec) 
Heartbeat CPU 0 instructions: 200000000 cycles: 158961391 heartbeat IPC: 0.904678 cumulative IPC: 0.88407 (Simulation time: 0 hr 4 min 20 sec) 
Heartbeat CPU 0 instructions: 210000001 cycles: 169935961 heartbeat IPC: 0.911198 cumulative IPC: 0.886469 (Simulation time: 0 hr 4 min 36 sec) 
Heartbeat CPU 0 instructions: 220000000 cycles: 180895976 heartbeat IPC: 0.912407 cumulative IPC: 0.888574 (Simulation time: 0 hr 4 min 52 sec) 
Heartbeat CPU 0 instructions: 230000000 cycles: 192053203 heartbeat IPC: 0.89628 cumulative IPC: 0.889162 (Simulation time: 0 hr 5 min 8 sec) 
Heartbeat CPU 0 instructions: 240000000 cycles: 203213564 heartbeat IPC: 0.896028 cumulative IPC: 0.889649 (Simulation time: 0 hr 5 min 23 sec) 
*** Reached end of trace for Core: 0 Repeating trace: /mnt/beegfs/pchatz06/selected_traces/557.xz_r.train.input1.region_5.w_0.0423_0.0492.trace.gz
Heartbeat CPU 0 instructions: 250000001 cycles: 214479639 heartbeat IPC: 0.887621 cumulative IPC: 0.889514 (Simulation time: 0 hr 5 min 39 sec) 
Finished CPU 0 instructions: 150000000 cycles: 168631447 cumulative IPC: 0.889514 (Simulation time: 0 hr 5 min 39 sec) 

CPU 0 Branch Prediction Accuracy: 85.7547% MPKI: 18.6882
Number of Branches: 19678260 Number of Mispredictions: 2803235
Number of LOAD Instructions: 38452477
Number of LOAD Instructions (ROI): 38452477
Number of STORE Instructions: 15690702
Number of STORE Instructions (ROI): 15690702
Total Destination Memory Operands: 20083795
Total Destination Memory Operands (ROI): 20083795
Total Source Memory Operands: 38452477
Total Source Memory Operands (ROI): 38452477
Number of DEPENDED LOADS: 4601458
Number of DEPENDED LOADS (ROI): 4601458
Number of SQ_ADDED: 20083795
Number of SQ_ADDED (ROI): 20083795
Number of LQ_ADDED: 51783915
Number of LQ_ADDED (ROI): 51783915
Number of Instructions read from trace: 250000038

ChampSim completed all CPUs

Region of Interest Statistics

CPU 0 cumulative IPC: 0.889514 instructions: 150000000 cycles: 168631447
ITLB TOTAL     ACCESS:   26111748  HIT:   26111748  MISS:          0
ITLB LOAD      ACCESS:   26111748  HIT:   26111748  MISS:          0
ITLB RFO       ACCESS:          0  HIT:          0  MISS:          0
ITLB PREFETCH  ACCESS:          0  HIT:          0  MISS:          0
ITLB WRITEBACK ACCESS:          0  HIT:          0  MISS:          0
ITLB PREFETCH  REQUESTED:          0  ISSUED:          0  USEFUL:          0  USELESS:          0
ITLB TOTAL MSHR MERGED:          0
ITLB LOAD MSHR MERGED:          0
ITLB RFO MSHR MERGED:          0
ITLB PREFETCH MSHR MERGED:          0
ITLB WRITEBACK MSHR MERGED:          0
ITLB TOTAL ACCESSES:   26111748 HITS:   26111748 MISSES:          0
ITLB LOAD ACCESSES:   26111748 HITS:   26111748 MISSES:          0
ITLB RFO ACCESSES:          0 HITS:          0 MISSES:          0
ITLB PREFETCH ACCESSES:          0 HITS:          0 MISSES:          0
ITLB WRITEBACK ACCESSES:          0 HITS:          0 MISSES:          0
ITLB RQ ACCESS:  150000025
ITLB RQ TO_CACHE:   26111748
ITLB RQ MERGED:  123888277
ITLB RQ FORWARD:          0
ITLB WQ ACCESS:          0
ITLB WQ TO_CACHE:          0
ITLB WQ MERGED:          0
ITLB WQ FORWARD:          0
DTLB TOTAL     ACCESS:   21999282  HIT:   21962334  MISS:      36948
DTLB LOAD      ACCESS:   11760642  HIT:   11726156  MISS:      34486
DTLB RFO       ACCESS:   10238640  HIT:   10236178  MISS:       2462
DTLB PREFETCH  ACCESS:          0  HIT:          0  MISS:          0
DTLB WRITEBACK ACCESS:          0  HIT:          0  MISS:          0
DTLB PREFETCH  REQUESTED:          0  ISSUED:          0  USEFUL:          0  USELESS:          0
DTLB TOTAL MSHR MERGED:      11976
DTLB LOAD MSHR MERGED:      11805
DTLB RFO MSHR MERGED:        171
DTLB PREFETCH MSHR MERGED:          0
DTLB WRITEBACK MSHR MERGED:          0
DTLB TOTAL ACCESSES:   22011258 HITS:   21962334 MISSES:      48924
DTLB LOAD ACCESSES:   11772447 HITS:   11726156 MISSES:      46291
DTLB RFO ACCESSES:   10238811 HITS:   10236178 MISSES:       2633
DTLB PREFETCH ACCESSES:          0 HITS:          0 MISSES:          0
DTLB WRITEBACK ACCESSES:          0 HITS:          0 MISSES:          0
DTLB RQ ACCESS:   31351290
DTLB RQ TO_CACHE:   22011258
DTLB RQ MERGED:    9340032
DTLB RQ FORWARD:          0
DTLB WQ ACCESS:          0
DTLB WQ TO_CACHE:          0
DTLB WQ MERGED:          0
DTLB WQ FORWARD:          0
L1D TOTAL     ACCESS:   39177829  HIT:   38691015  MISS:     486814
L1D LOAD      ACCESS:   14622243  HIT:   14473110  MISS:     149133
L1D RFO       ACCESS:   11675826  HIT:   11552773  MISS:     123053
L1D PREFETCH  ACCESS:   12879760  HIT:   12665132  MISS:     214628
L1D WRITEBACK ACCESS:          0  HIT:          0  MISS:          0
L1D PREFETCH  REQUESTED:   14678717  ISSUED:   14579571  USEFUL:     124552  USELESS:      90054
L1D TOTAL MSHR MERGED:     563144
L1D LOAD MSHR MERGED:      65617
L1D RFO MSHR MERGED:     385988
L1D PREFETCH MSHR MERGED:     111539
L1D WRITEBACK MSHR MERGED:          0
L1D TOTAL ACCESSES:   39741120 HITS:   38691162 MISSES:    1049958
L1D LOAD ACCESSES:   14678717 HITS:   14473110 MISSES:     205607
L1D RFO ACCESSES:   12060838 HITS:   11552773 MISSES:     508065
L1D PREFETCH ACCESSES:   13001565 HITS:   12665279 MISSES:     336286
L1D WRITEBACK ACCESSES:          0 HITS:          0 MISSES:          0
L1D RQ ACCESS:   19147160
L1D RQ TO_CACHE:   14678717
L1D RQ MERGED:    4468443
L1D RQ FORWARD:          0
L1D WQ ACCESS:   12204130
L1D WQ TO_CACHE:   12060839
L1D WQ MERGED:     143291
L1D WQ FORWARD:        147
L1I TOTAL     ACCESS:   34330698  HIT:   34330695  MISS:          3
L1I LOAD      ACCESS:   34330698  HIT:   34330695  MISS:          3
L1I RFO       ACCESS:          0  HIT:          0  MISS:          0
L1I PREFETCH  ACCESS:          0  HIT:          0  MISS:          0
L1I WRITEBACK ACCESS:          0  HIT:          0  MISS:          0
L1I PREFETCH  REQUESTED:          0  ISSUED:          0  USEFUL:          0  USELESS:          0
L1I TOTAL MSHR MERGED:          0
L1I LOAD MSHR MERGED:          0
L1I RFO MSHR MERGED:          0
L1I PREFETCH MSHR MERGED:          0
L1I WRITEBACK MSHR MERGED:          0
L1I TOTAL ACCESSES:   34330698 HITS:   34330695 MISSES:          3
L1I LOAD ACCESSES:   34330698 HITS:   34330695 MISSES:          3
L1I RFO ACCESSES:          0 HITS:          0 MISSES:          0
L1I PREFETCH ACCESSES:          0 HITS:          0 MISSES:          0
L1I WRITEBACK ACCESSES:          0 HITS:          0 MISSES:          0
L1I RQ ACCESS:  150000025
L1I RQ TO_CACHE:   34330698
L1I RQ MERGED:  115669327
L1I RQ FORWARD:          0
L1I WQ ACCESS:          0
L1I WQ TO_CACHE:          0
L1I WQ MERGED:          0
L1I WQ FORWARD:          0
L2C TOTAL     ACCESS:     688795  HIT:     484631  MISS:     204164
L2C LOAD      ACCESS:     139990  HIT:      94511  MISS:      45479
L2C RFO       ACCESS:     122075  HIT:      58208  MISS:      63867
L2C PREFETCH  ACCESS:     227589  HIT:     132805  MISS:      94784
L2C WRITEBACK ACCESS:     199141  HIT:     199107  MISS:         34
L2C PREFETCH  REQUESTED:       2879  ISSUED:       2879  USEFUL:      17722  USELESS:      77052
L2C TOTAL MSHR MERGED:          2
L2C LOAD MSHR MERGED:          0
L2C RFO MSHR MERGED:          0
L2C PREFETCH MSHR MERGED:          2
L2C WRITEBACK MSHR MERGED:          0
L2C TOTAL ACCESSES:     688806 HITS:     484640 MISSES:     204166
L2C LOAD ACCESSES:     139993 HITS:      94514 MISSES:      45479
L2C RFO ACCESSES:     122077 HITS:      58210 MISSES:      63867
L2C PREFETCH ACCESSES:     227595 HITS:     132809 MISSES:      94786
L2C WRITEBACK ACCESSES:     199141 HITS:     199107 MISSES:         34
L2C RQ ACCESS:     262070
L2C RQ TO_CACHE:     262065
L2C RQ MERGED:          0
L2C RQ FORWARD:          0
L2C WQ ACCESS:     199141
L2C WQ TO_CACHE:     199141
L2C WQ MERGED:          0
L2C WQ FORWARD:          9
LLC TOTAL     ACCESS:     304748  HIT:     163854  MISS:     140894
LLC LOAD      ACCESS:      45479  HIT:      27310  MISS:      18169
LLC RFO       ACCESS:      63867  HIT:       2236  MISS:      61631
LLC PREFETCH  ACCESS:      94784  HIT:      33824  MISS:      60960
LLC WRITEBACK ACCESS:     100618  HIT:     100484  MISS:        134
LLC PREFETCH  REQUESTED:          0  ISSUED:          0  USEFUL:      12878  USELESS:      47478
LLC TOTAL MSHR MERGED:          0
LLC LOAD MSHR MERGED:          0
LLC RFO MSHR MERGED:          0
LLC PREFETCH MSHR MERGED:          0
LLC WRITEBACK MSHR MERGED:          0
LLC TOTAL ACCESSES:     304748 HITS:     163854 MISSES:     140894
LLC LOAD ACCESSES:      45479 HITS:      27310 MISSES:      18169
LLC RFO ACCESSES:      63867 HITS:       2236 MISSES:      61631
LLC PREFETCH ACCESSES:      94784 HITS:      33824 MISSES:      60960
LLC WRITEBACK ACCESSES:     100618 HITS:     100484 MISSES:        134
LLC 0 RQ ACCESS:     109346
LLC 0 RQ TO_CACHE:     109346
LLC 0 RQ MERGED:          0
LLC 0 RQ FORWARD:          0
LLC WQ ACCESS:     100618
LLC WQ TO_CACHE:     100618
LLC WQ MERGED:          0
LLC WQ FORWARD:          0
Major fault: 0 Minor fault: 4580
CPU 0 L1D next line prefetcher final stats
CPU 0 L2C PC-based stride prefetcher final stats

DRAM Statistics
 CHANNEL 0
 RQ ROW_BUFFER_HIT:      72677  ROW_BUFFER_MISS:      68063
 DBUS_CONGESTED:     103314
 WQ ROW_BUFFER_HIT:      15088  ROW_BUFFER_MISS:      80984  FULL:          0

 AVG_CONGESTED_CYCLE: 14
LOADS RETIRED: 22211934
INSTR RETIRED: 150000000
