
*** ChampSim Multicore Out-of-Order Simulator ***

Warmup Instructions: 100000000
Simulation Instructions: 500000000
Number of CPUs: 1
LLC sets: 2048
LLC ways: 16
Clean RRIP Policies: 2213230222132302 Dirty RRIP Policies: 2203131222031312 PSEL Width: 10 Track Set: 4294967295 PSEL Mask: 1 Demote Mask: 3010100030101000DS Algo: 0Window size: 0
Off-chip DRAM Size: 4096 MB Channels: 1 Width: 64-bit Data Rate: 1600 MT/s

CPU 0 runs /mnt/beegfs/iconst01/spec2017/Gcc.trace.gz
NOT SORTED
TRACE STRING: /mnt/beegfs/iconst01/spec2017/Gcc.trace.gz
SORTED
TRACE STRING: /mnt/beegfs/iconst01/spec2017/Gcc.trace.gz
INITIAL
TRACE STRING: /mnt/beegfs/iconst01/spec2017/Gcc.trace.gz

champsim_seed used: 269

CPU 0 L1D next line prefetcher
CPU 0 L2C IP-based stride prefetcher
Initialize DRRIP state
Assign rand_sets[0]: 454  LLC: 2048
rand_sets[0]: 454
Assign rand_sets[1]: 1662  LLC: 2048
rand_sets[1]: 1662
Assign rand_sets[2]: 1921  LLC: 2048
rand_sets[2]: 1921
Assign rand_sets[3]: 1131  LLC: 2048
rand_sets[3]: 1131
Assign rand_sets[4]: 331  LLC: 2048
rand_sets[4]: 331
Assign rand_sets[5]: 1531  LLC: 2048
rand_sets[5]: 1531
Assign rand_sets[6]: 482  LLC: 2048
rand_sets[6]: 482
Assign rand_sets[7]: 1275  LLC: 2048
rand_sets[7]: 1275
Assign rand_sets[8]: 1876  LLC: 2048
rand_sets[8]: 1876
Assign rand_sets[9]: 2038  LLC: 2048
rand_sets[9]: 2038
Assign rand_sets[10]: 701  LLC: 2048
rand_sets[10]: 701
Assign rand_sets[11]: 479  LLC: 2048
rand_sets[11]: 479
Assign rand_sets[12]: 892  LLC: 2048
rand_sets[12]: 892
Assign rand_sets[13]: 1820  LLC: 2048
rand_sets[13]: 1820
Assign rand_sets[14]: 1505  LLC: 2048
rand_sets[14]: 1505
Assign rand_sets[15]: 1159  LLC: 2048
rand_sets[15]: 1159
Assign rand_sets[16]: 513  LLC: 2048
rand_sets[16]: 513
Assign rand_sets[17]: 703  LLC: 2048
rand_sets[17]: 703
Assign rand_sets[18]: 561  LLC: 2048
rand_sets[18]: 561
Assign rand_sets[19]: 990  LLC: 2048
rand_sets[19]: 990
Assign rand_sets[20]: 342  LLC: 2048
rand_sets[20]: 342
Assign rand_sets[21]: 882  LLC: 2048
rand_sets[21]: 882
Assign rand_sets[22]: 15  LLC: 2048
rand_sets[22]: 15
Assign rand_sets[23]: 71  LLC: 2048
rand_sets[23]: 71
Assign rand_sets[24]: 1127  LLC: 2048
rand_sets[24]: 1127
Assign rand_sets[25]: 1382  LLC: 2048
rand_sets[25]: 1382
Assign rand_sets[26]: 647  LLC: 2048
rand_sets[26]: 647
Assign rand_sets[27]: 857  LLC: 2048
rand_sets[27]: 857
Assign rand_sets[28]: 1450  LLC: 2048
rand_sets[28]: 1450
Assign rand_sets[29]: 1160  LLC: 2048
rand_sets[29]: 1160
Assign rand_sets[30]: 1852  LLC: 2048
rand_sets[30]: 1852
Assign rand_sets[31]: 1881  LLC: 2048
rand_sets[31]: 1881
Assign rand_sets[32]: 1770  LLC: 2048
rand_sets[32]: 1770
Assign rand_sets[33]: 1622  LLC: 2048
rand_sets[33]: 1622
Assign rand_sets[34]: 275  LLC: 2048
rand_sets[34]: 275
Assign rand_sets[35]: 635  LLC: 2048
rand_sets[35]: 635
Assign rand_sets[36]: 466  LLC: 2048
rand_sets[36]: 466
Assign rand_sets[37]: 1413  LLC: 2048
rand_sets[37]: 1413
Assign rand_sets[38]: 417  LLC: 2048
rand_sets[38]: 417
Assign rand_sets[39]: 472  LLC: 2048
rand_sets[39]: 472
Assign rand_sets[40]: 1340  LLC: 2048
rand_sets[40]: 1340
Assign rand_sets[41]: 852  LLC: 2048
rand_sets[41]: 852
Assign rand_sets[42]: 1365  LLC: 2048
rand_sets[42]: 1365
Assign rand_sets[43]: 47  LLC: 2048
rand_sets[43]: 47
Assign rand_sets[44]: 823  LLC: 2048
rand_sets[44]: 823
Assign rand_sets[45]: 686  LLC: 2048
rand_sets[45]: 686
Assign rand_sets[46]: 1637  LLC: 2048
rand_sets[46]: 1637
Assign rand_sets[47]: 1115  LLC: 2048
rand_sets[47]: 1115
Assign rand_sets[48]: 986  LLC: 2048
rand_sets[48]: 986
Assign rand_sets[49]: 258  LLC: 2048
rand_sets[49]: 258
Assign rand_sets[50]: 633  LLC: 2048
rand_sets[50]: 633
Assign rand_sets[51]: 920  LLC: 2048
rand_sets[51]: 920
Assign rand_sets[52]: 204  LLC: 2048
rand_sets[52]: 204
Assign rand_sets[53]: 227  LLC: 2048
rand_sets[53]: 227
Assign rand_sets[54]: 1818  LLC: 2048
rand_sets[54]: 1818
Assign rand_sets[55]: 886  LLC: 2048
rand_sets[55]: 886
Assign rand_sets[56]: 1422  LLC: 2048
rand_sets[56]: 1422
Assign rand_sets[57]: 607  LLC: 2048
rand_sets[57]: 607
Assign rand_sets[58]: 217  LLC: 2048
rand_sets[58]: 217
Assign rand_sets[59]: 1945  LLC: 2048
rand_sets[59]: 1945
Assign rand_sets[60]: 143  LLC: 2048
rand_sets[60]: 143
Assign rand_sets[61]: 1311  LLC: 2048
rand_sets[61]: 1311
Assign rand_sets[62]: 319  LLC: 2048
rand_sets[62]: 319
Assign rand_sets[63]: 1846  LLC: 2048
rand_sets[63]: 1846
 CLEAN-RRIP-POLICY-1: 2-2-1-3-2-3-0-2- CLEAN-RRIP-POLICY-2: 2-2-1-3-2-3-0-2-
 DIRTY-RRIP-POLICY-1: 2-2-0-3-1-3-1-2- DIRTY-RRIP-POLICY-2: 2-2-0-3-1-3-1-2-
 PSEL width: 10
Heartbeat CPU 0 instructions: 10000001 cycles: 7315980 heartbeat IPC: 1.36687 cumulative IPC: 1.36687 (Simulation time: 0 hr 0 min 13 sec) 
Heartbeat CPU 0 instructions: 20000000 cycles: 14307647 heartbeat IPC: 1.43027 cumulative IPC: 1.39785 (Simulation time: 0 hr 0 min 27 sec) 
Heartbeat CPU 0 instructions: 30000001 cycles: 21020525 heartbeat IPC: 1.48967 cumulative IPC: 1.42718 (Simulation time: 0 hr 0 min 42 sec) 
Heartbeat CPU 0 instructions: 40000000 cycles: 27481281 heartbeat IPC: 1.54781 cumulative IPC: 1.45554 (Simulation time: 0 hr 0 min 56 sec) 
Heartbeat CPU 0 instructions: 50000001 cycles: 33583017 heartbeat IPC: 1.63888 cumulative IPC: 1.48885 (Simulation time: 0 hr 1 min 11 sec) 
Heartbeat CPU 0 instructions: 60000000 cycles: 40064223 heartbeat IPC: 1.54292 cumulative IPC: 1.4976 (Simulation time: 0 hr 1 min 25 sec) 
Heartbeat CPU 0 instructions: 70000000 cycles: 47102883 heartbeat IPC: 1.42072 cumulative IPC: 1.48611 (Simulation time: 0 hr 1 min 39 sec) 
Heartbeat CPU 0 instructions: 80000000 cycles: 54193007 heartbeat IPC: 1.41041 cumulative IPC: 1.47621 (Simulation time: 0 hr 1 min 53 sec) 
Heartbeat CPU 0 instructions: 90000003 cycles: 61197712 heartbeat IPC: 1.42761 cumulative IPC: 1.47064 (Simulation time: 0 hr 2 min 7 sec) 
Heartbeat CPU 0 instructions: 100000000 cycles: 68365133 heartbeat IPC: 1.3952 cumulative IPC: 1.46273 (Simulation time: 0 hr 2 min 20 sec) 

Warmup complete CPU 0 instructions: 100000004 cycles: 68365134 (Simulation time: 0 hr 2 min 20 sec) 

Heartbeat CPU 0 instructions: 110000003 cycles: 95971958 heartbeat IPC: 0.362229 cumulative IPC: 0.362229 (Simulation time: 0 hr 2 min 46 sec) 
Heartbeat CPU 0 instructions: 120000000 cycles: 123414098 heartbeat IPC: 0.364403 cumulative IPC: 0.363313 (Simulation time: 0 hr 3 min 12 sec) 
Heartbeat CPU 0 instructions: 130000000 cycles: 148381115 heartbeat IPC: 0.400528 cumulative IPC: 0.374925 (Simulation time: 0 hr 3 min 38 sec) 
Heartbeat CPU 0 instructions: 140000000 cycles: 177882672 heartbeat IPC: 0.338965 cumulative IPC: 0.365238 (Simulation time: 0 hr 4 min 3 sec) 
Heartbeat CPU 0 instructions: 150000000 cycles: 207730188 heartbeat IPC: 0.335036 cumulative IPC: 0.35877 (Simulation time: 0 hr 4 min 29 sec) 
Heartbeat CPU 0 instructions: 160000000 cycles: 235143794 heartbeat IPC: 0.364782 cumulative IPC: 0.359758 (Simulation time: 0 hr 4 min 54 sec) 
Heartbeat CPU 0 instructions: 170000001 cycles: 263116858 heartbeat IPC: 0.357487 cumulative IPC: 0.359432 (Simulation time: 0 hr 5 min 21 sec) 
Heartbeat CPU 0 instructions: 180000000 cycles: 291534330 heartbeat IPC: 0.351896 cumulative IPC: 0.358472 (Simulation time: 0 hr 5 min 48 sec) 
Heartbeat CPU 0 instructions: 190000002 cycles: 319516992 heartbeat IPC: 0.357364 cumulative IPC: 0.358349 (Simulation time: 0 hr 6 min 14 sec) 
Heartbeat CPU 0 instructions: 200000000 cycles: 347848417 heartbeat IPC: 0.352965 cumulative IPC: 0.357803 (Simulation time: 0 hr 6 min 40 sec) 
Heartbeat CPU 0 instructions: 210000002 cycles: 375675255 heartbeat IPC: 0.359365 cumulative IPC: 0.357945 (Simulation time: 0 hr 7 min 6 sec) 
Heartbeat CPU 0 instructions: 220000000 cycles: 404817591 heartbeat IPC: 0.343143 cumulative IPC: 0.356663 (Simulation time: 0 hr 7 min 31 sec) 
Heartbeat CPU 0 instructions: 230000000 cycles: 432319958 heartbeat IPC: 0.363605 cumulative IPC: 0.357187 (Simulation time: 0 hr 7 min 56 sec) 
Heartbeat CPU 0 instructions: 240000000 cycles: 458236538 heartbeat IPC: 0.385853 cumulative IPC: 0.359093 (Simulation time: 0 hr 8 min 20 sec) 
Heartbeat CPU 0 instructions: 250000000 cycles: 488330090 heartbeat IPC: 0.332297 cumulative IPC: 0.357173 (Simulation time: 0 hr 8 min 47 sec) 
Heartbeat CPU 0 instructions: 260000000 cycles: 515409286 heartbeat IPC: 0.369287 cumulative IPC: 0.357906 (Simulation time: 0 hr 9 min 13 sec) 
Heartbeat CPU 0 instructions: 270000003 cycles: 543785407 heartbeat IPC: 0.352409 cumulative IPC: 0.357578 (Simulation time: 0 hr 9 min 40 sec) 
Heartbeat CPU 0 instructions: 280000000 cycles: 571930296 heartbeat IPC: 0.355304 cumulative IPC: 0.357451 (Simulation time: 0 hr 10 min 6 sec) 
Heartbeat CPU 0 instructions: 290000000 cycles: 600833438 heartbeat IPC: 0.345983 cumulative IPC: 0.356829 (Simulation time: 0 hr 10 min 33 sec) 
Heartbeat CPU 0 instructions: 300000000 cycles: 630809467 heartbeat IPC: 0.3336 cumulative IPC: 0.355591 (Simulation time: 0 hr 10 min 59 sec) 
Heartbeat CPU 0 instructions: 310000001 cycles: 660223554 heartbeat IPC: 0.339973 cumulative IPC: 0.354815 (Simulation time: 0 hr 11 min 24 sec) 
Heartbeat CPU 0 instructions: 320000000 cycles: 688430600 heartbeat IPC: 0.354521 cumulative IPC: 0.354801 (Simulation time: 0 hr 11 min 50 sec) 
Heartbeat CPU 0 instructions: 330000000 cycles: 717064770 heartbeat IPC: 0.349233 cumulative IPC: 0.354555 (Simulation time: 0 hr 12 min 15 sec) 
Heartbeat CPU 0 instructions: 340000000 cycles: 746303854 heartbeat IPC: 0.342008 cumulative IPC: 0.354014 (Simulation time: 0 hr 12 min 40 sec) 
Heartbeat CPU 0 instructions: 350000003 cycles: 773344979 heartbeat IPC: 0.369807 cumulative IPC: 0.35462 (Simulation time: 0 hr 13 min 5 sec) 
Heartbeat CPU 0 instructions: 360000000 cycles: 801468877 heartbeat IPC: 0.355569 cumulative IPC: 0.354656 (Simulation time: 0 hr 13 min 29 sec) 
Heartbeat CPU 0 instructions: 370000000 cycles: 829641003 heartbeat IPC: 0.354961 cumulative IPC: 0.354668 (Simulation time: 0 hr 13 min 53 sec) 
Heartbeat CPU 0 instructions: 380000000 cycles: 858137822 heartbeat IPC: 0.350916 cumulative IPC: 0.354532 (Simulation time: 0 hr 14 min 17 sec) 
Heartbeat CPU 0 instructions: 390000001 cycles: 885740625 heartbeat IPC: 0.362282 cumulative IPC: 0.354794 (Simulation time: 0 hr 14 min 41 sec) 
Heartbeat CPU 0 instructions: 400000000 cycles: 914370474 heartbeat IPC: 0.349286 cumulative IPC: 0.354608 (Simulation time: 0 hr 15 min 5 sec) 
Heartbeat CPU 0 instructions: 410000001 cycles: 941665649 heartbeat IPC: 0.366365 cumulative IPC: 0.354975 (Simulation time: 0 hr 15 min 29 sec) 
Heartbeat CPU 0 instructions: 420000000 cycles: 968980968 heartbeat IPC: 0.366095 cumulative IPC: 0.355312 (Simulation time: 0 hr 15 min 53 sec) 
Heartbeat CPU 0 instructions: 430000002 cycles: 996686654 heartbeat IPC: 0.360937 cumulative IPC: 0.35548 (Simulation time: 0 hr 16 min 17 sec) 
Heartbeat CPU 0 instructions: 440000000 cycles: 1026211947 heartbeat IPC: 0.338693 cumulative IPC: 0.354963 (Simulation time: 0 hr 16 min 41 sec) 
Heartbeat CPU 0 instructions: 450000002 cycles: 1055444434 heartbeat IPC: 0.342085 cumulative IPC: 0.354581 (Simulation time: 0 hr 17 min 5 sec) 
Heartbeat CPU 0 instructions: 460000000 cycles: 1083137885 heartbeat IPC: 0.361096 cumulative IPC: 0.354759 (Simulation time: 0 hr 17 min 29 sec) 
Heartbeat CPU 0 instructions: 470000000 cycles: 1110769360 heartbeat IPC: 0.361906 cumulative IPC: 0.354949 (Simulation time: 0 hr 17 min 53 sec) 
Heartbeat CPU 0 instructions: 480000000 cycles: 1138647885 heartbeat IPC: 0.358699 cumulative IPC: 0.355046 (Simulation time: 0 hr 18 min 16 sec) 
Heartbeat CPU 0 instructions: 490000000 cycles: 1166238036 heartbeat IPC: 0.362448 cumulative IPC: 0.355232 (Simulation time: 0 hr 18 min 40 sec) 
Heartbeat CPU 0 instructions: 500000000 cycles: 1194547616 heartbeat IPC: 0.353237 cumulative IPC: 0.355182 (Simulation time: 0 hr 19 min 4 sec) 
Heartbeat CPU 0 instructions: 510000000 cycles: 1228778929 heartbeat IPC: 0.29213 cumulative IPC: 0.353322 (Simulation time: 0 hr 19 min 31 sec) 
Heartbeat CPU 0 instructions: 520000000 cycles: 1256771277 heartbeat IPC: 0.35724 cumulative IPC: 0.353415 (Simulation time: 0 hr 19 min 56 sec) 
Heartbeat CPU 0 instructions: 530000001 cycles: 1286247854 heartbeat IPC: 0.339252 cumulative IPC: 0.353072 (Simulation time: 0 hr 20 min 21 sec) 
Heartbeat CPU 0 instructions: 540000000 cycles: 1314303808 heartbeat IPC: 0.356431 cumulative IPC: 0.353147 (Simulation time: 0 hr 20 min 46 sec) 
Heartbeat CPU 0 instructions: 550000001 cycles: 1343472413 heartbeat IPC: 0.342834 cumulative IPC: 0.352911 (Simulation time: 0 hr 21 min 12 sec) 
Heartbeat CPU 0 instructions: 560000000 cycles: 1368853787 heartbeat IPC: 0.39399 cumulative IPC: 0.353713 (Simulation time: 0 hr 21 min 37 sec) 
Heartbeat CPU 0 instructions: 570000000 cycles: 1398303485 heartbeat IPC: 0.339562 cumulative IPC: 0.3534 (Simulation time: 0 hr 22 min 2 sec) 
Heartbeat CPU 0 instructions: 580000000 cycles: 1426232833 heartbeat IPC: 0.358046 cumulative IPC: 0.353495 (Simulation time: 0 hr 22 min 27 sec) 
Heartbeat CPU 0 instructions: 590000001 cycles: 1450968413 heartbeat IPC: 0.404276 cumulative IPC: 0.354404 (Simulation time: 0 hr 22 min 51 sec) 
Heartbeat CPU 0 instructions: 600000000 cycles: 1477031440 heartbeat IPC: 0.383685 cumulative IPC: 0.354946 (Simulation time: 0 hr 23 min 15 sec) 
Finished CPU 0 instructions: 500000000 cycles: 1408666328 cumulative IPC: 0.354946 (Simulation time: 0 hr 23 min 15 sec) 

CPU 0 Branch Prediction Accuracy: 86.4311% MPKI: 26.2662
Number of Branches: 96788573 Number of Mispredictions: 13133102
Number of LOAD Instructions: 164682285
Number of LOAD Instructions (ROI): 164682285
Number of STORE Instructions: 78194750
Number of STORE Instructions (ROI): 78194750
Total Destination Memory Operands: 83268534
Total Destination Memory Operands (ROI): 83268534
Total Source Memory Operands: 164712438
Total Source Memory Operands (ROI): 164712438
Number of DEPENDED LOADS: 7057992
Number of DEPENDED LOADS (ROI): 7057992
Number of SQ_ADDED: 83268522
Number of SQ_ADDED (ROI): 83268522
Number of LQ_ADDED: 236742531
Number of LQ_ADDED (ROI): 236742531
Number of Instructions read from trace: 600000066

ChampSim completed all CPUs

Region of Interest Statistics

CPU 0 cumulative IPC: 0.354946 instructions: 500000000 cycles: 1408666328
ITLB TOTAL     ACCESS:  100517546  HIT:  100313100  MISS:     204446
ITLB LOAD      ACCESS:  100517546  HIT:  100313100  MISS:     204446
ITLB RFO       ACCESS:          0  HIT:          0  MISS:          0
ITLB PREFETCH  ACCESS:          0  HIT:          0  MISS:          0
ITLB WRITEBACK ACCESS:          0  HIT:          0  MISS:          0
ITLB PREFETCH  REQUESTED:          0  ISSUED:          0  USEFUL:          0  USELESS:          0
ITLB TOTAL MSHR MERGED:     172424
ITLB LOAD MSHR MERGED:     172424
ITLB RFO MSHR MERGED:          0
ITLB PREFETCH MSHR MERGED:          0
ITLB WRITEBACK MSHR MERGED:          0
ITLB TOTAL ACCESSES:  100689970 HITS:  100313100 MISSES:     376870
ITLB LOAD ACCESSES:  100689970 HITS:  100313100 MISSES:     376870
ITLB RFO ACCESSES:          0 HITS:          0 MISSES:          0
ITLB PREFETCH ACCESSES:          0 HITS:          0 MISSES:          0
ITLB WRITEBACK ACCESSES:          0 HITS:          0 MISSES:          0
ITLB RQ ACCESS:  500000057
ITLB RQ TO_CACHE:  100689970
ITLB RQ MERGED:  399310087
ITLB RQ FORWARD:          0
ITLB WQ ACCESS:          0
ITLB WQ TO_CACHE:          0
ITLB WQ MERGED:          0
ITLB WQ FORWARD:          0
DTLB TOTAL     ACCESS:  165338159  HIT:  164703805  MISS:     634354
DTLB LOAD      ACCESS:  106293334  HIT:  105723410  MISS:     569924
DTLB RFO       ACCESS:   59044825  HIT:   58980395  MISS:      64430
DTLB PREFETCH  ACCESS:          0  HIT:          0  MISS:          0
DTLB WRITEBACK ACCESS:          0  HIT:          0  MISS:          0
DTLB PREFETCH  REQUESTED:          0  ISSUED:          0  USEFUL:          0  USELESS:          0
DTLB TOTAL MSHR MERGED:      99999
DTLB LOAD MSHR MERGED:      59473
DTLB RFO MSHR MERGED:      40526
DTLB PREFETCH MSHR MERGED:          0
DTLB WRITEBACK MSHR MERGED:          0
DTLB TOTAL ACCESSES:  165438158 HITS:  164703805 MISSES:     734353
DTLB LOAD ACCESSES:  106352807 HITS:  105723410 MISSES:     629397
DTLB RFO ACCESSES:   59085351 HITS:   58980395 MISSES:     104956
DTLB PREFETCH ACCESSES:          0 HITS:          0 MISSES:          0
DTLB WRITEBACK ACCESSES:          0 HITS:          0 MISSES:          0
DTLB RQ ACCESS:  200312904
DTLB RQ TO_CACHE:  165438158
DTLB RQ MERGED:   34874746
DTLB RQ FORWARD:          0
DTLB WQ ACCESS:          0
DTLB WQ TO_CACHE:          0
DTLB WQ MERGED:          0
DTLB WQ FORWARD:          0
L1D TOTAL     ACCESS:  281844354  HIT:  273935003  MISS:    7909351
L1D LOAD      ACCESS:  110420075  HIT:  107142380  MISS:    3277695
L1D RFO       ACCESS:   67122658  HIT:   66232190  MISS:     890468
L1D PREFETCH  ACCESS:  104301621  HIT:  100560433  MISS:    3741188
L1D WRITEBACK ACCESS:          0  HIT:          0  MISS:          0
L1D PREFETCH  REQUESTED:  110818605  ISSUED:  109119314  USEFUL:    1661853  USELESS:    2079299
L1D TOTAL MSHR MERGED:    2862574
L1D LOAD MSHR MERGED:     495679
L1D RFO MSHR MERGED:    1863228
L1D PREFETCH MSHR MERGED:     503667
L1D WRITEBACK MSHR MERGED:          0
L1D TOTAL ACCESSES:  284734336 HITS:  273962411 MISSES:   10771925
L1D LOAD ACCESSES:  110820018 HITS:  107143793 MISSES:    3676225
L1D RFO ACCESSES:   68974219 HITS:   66232190 MISSES:    2742029
L1D PREFETCH ACCESSES:  104940099 HITS:  100586428 MISSES:    4353671
L1D WRITEBACK ACCESSES:          0 HITS:          0 MISSES:          0
L1D RQ ACCESS:  130760301
L1D RQ TO_CACHE:  110818608
L1D RQ MERGED:   19940280
L1D RQ FORWARD:          0
L1D WQ ACCESS:   69552603
L1D WQ TO_CACHE:   68974220
L1D WQ MERGED:     578383
L1D WQ FORWARD:      27408
L1I TOTAL     ACCESS:  126564853  HIT:  122326300  MISS:    4238553
L1I LOAD      ACCESS:  126564853  HIT:  122326300  MISS:    4238553
L1I RFO       ACCESS:          0  HIT:          0  MISS:          0
L1I PREFETCH  ACCESS:          0  HIT:          0  MISS:          0
L1I WRITEBACK ACCESS:          0  HIT:          0  MISS:          0
L1I PREFETCH  REQUESTED:          0  ISSUED:          0  USEFUL:          0  USELESS:          0
L1I TOTAL MSHR MERGED:    1834627
L1I LOAD MSHR MERGED:    1834627
L1I RFO MSHR MERGED:          0
L1I PREFETCH MSHR MERGED:          0
L1I WRITEBACK MSHR MERGED:          0
L1I TOTAL ACCESSES:  128399483 HITS:  122326300 MISSES:    6073183
L1I LOAD ACCESSES:  128399483 HITS:  122326300 MISSES:    6073183
L1I RFO ACCESSES:          0 HITS:          0 MISSES:          0
L1I PREFETCH ACCESSES:          0 HITS:          0 MISSES:          0
L1I WRITEBACK ACCESSES:          0 HITS:          0 MISSES:          0
L1I RQ ACCESS:  500000057
L1I RQ TO_CACHE:  128399483
L1I RQ MERGED:  371600574
L1I RQ FORWARD:          0
L1I WQ ACCESS:          0
L1I WQ TO_CACHE:          0
L1I WQ MERGED:          0
L1I WQ FORWARD:          0
L2C TOTAL     ACCESS:   14905164  HIT:   11158667  MISS:    3746497
L2C LOAD      ACCESS:    7418890  HIT:    5098857  MISS:    2320033
L2C RFO       ACCESS:     878703  HIT:     409896  MISS:     468807
L2C PREFETCH  ACCESS:    4568337  HIT:    3627934  MISS:     940403
L2C WRITEBACK ACCESS:    2039234  HIT:    2021980  MISS:      17254
L2C PREFETCH  REQUESTED:     842771  ISSUED:     842771  USEFUL:     203355  USELESS:     736754
L2C TOTAL MSHR MERGED:       7137
L2C LOAD MSHR MERGED:        816
L2C RFO MSHR MERGED:          0
L2C PREFETCH MSHR MERGED:       6321
L2C WRITEBACK MSHR MERGED:          0
L2C TOTAL ACCESSES:   14913174 HITS:   11159118 MISSES:    3754056
L2C LOAD ACCESSES:    7419099 HITS:    5099066 MISSES:    2320033
L2C RFO ACCESSES:     878801 HITS:     409994 MISSES:     468807
L2C PREFETCH ACCESSES:    4576040 HITS:    3628078 MISSES:     947962
L2C WRITEBACK ACCESSES:    2039234 HITS:    2021980 MISSES:      17254
L2C RQ ACCESS:    8297903
L2C RQ TO_CACHE:    8297596
L2C RQ MERGED:          0
L2C RQ FORWARD:          0
L2C WQ ACCESS:    2039234
L2C WQ TO_CACHE:    2039234
L2C WQ MERGED:          0
L2C WQ FORWARD:        451
LLC TOTAL     ACCESS:    4609813  HIT:    3991749  MISS:     618064
LLC LOAD      ACCESS:    2319201  HIT:    2077853  MISS:     241348
LLC RFO       ACCESS:     468797  HIT:     411546  MISS:      57251
LLC PREFETCH  ACCESS:     941526  HIT:     669444  MISS:     272082
LLC WRITEBACK ACCESS:     880289  HIT:     832906  MISS:      47383
LLC PREFETCH  REQUESTED:          0  ISSUED:          0  USEFUL:      15157  USELESS:     257295
LLC TOTAL MSHR MERGED:         95
LLC LOAD MSHR MERGED:         33
LLC RFO MSHR MERGED:          0
LLC PREFETCH MSHR MERGED:         62
LLC WRITEBACK MSHR MERGED:          0
LLC TOTAL ACCESSES:    4609945 HITS:    3991786 MISSES:     618159
LLC LOAD ACCESSES:    2319217 HITS:    2077869 MISSES:     241348
LLC RFO ACCESSES:     468807 HITS:     411556 MISSES:      57251
LLC PREFETCH ACCESSES:     941632 HITS:     669455 MISSES:     272177
LLC WRITEBACK ACCESSES:     880289 HITS:     832906 MISSES:      47383
LLC 0 RQ ACCESS:    2788024
LLC 0 RQ TO_CACHE:    2787998
LLC 0 RQ MERGED:          0
LLC 0 RQ FORWARD:          0
LLC WQ ACCESS:     880289
LLC WQ TO_CACHE:     880289
LLC WQ MERGED:          0
LLC WQ FORWARD:         37
Major fault: 0 Minor fault: 12862
CPU 0 L1D next line prefetcher final stats
CPU 0 L2C PC-based stride prefetcher final stats
All Misses: 740491
All Hits: 4686328
SD Algo Stats - Switches: 0 SRR-Repls: 285925 BRR-Repls: 0

DRAM Statistics
 CHANNEL 0
 RQ ROW_BUFFER_HIT:     115259  ROW_BUFFER_MISS:     454645
 DBUS_CONGESTED:     323267
 WQ ROW_BUFFER_HIT:      11168  ROW_BUFFER_MISS:     155776  FULL:          0

 AVG_CONGESTED_CYCLE: 13
LOADS RETIRED: 136549171
INSTR RETIRED: 500000000
