
*** ChampSim Multicore Out-of-Order Simulator ***

Warmup Instructions: 100000000
Simulation Instructions: 500000000
Number of CPUs: 1
LLC sets: 2048
LLC ways: 16
Clean RRIP Policies: 2213230222132302 Dirty RRIP Policies: 2203131222031312 PSEL Width: 10 Track Set: 4294967295 PSEL Mask: 1 Demote Mask: 3010100030101000DS Algo: 0Window size: 0
Off-chip DRAM Size: 4096 MB Channels: 1 Width: 64-bit Data Rate: 1600 MT/s

CPU 0 runs /mnt/beegfs/iconst01/spec2017/Omnetpp.trace.gz
NOT SORTED
TRACE STRING: /mnt/beegfs/iconst01/spec2017/Omnetpp.trace.gz
SORTED
TRACE STRING: /mnt/beegfs/iconst01/spec2017/Omnetpp.trace.gz
INITIAL
TRACE STRING: /mnt/beegfs/iconst01/spec2017/Omnetpp.trace.gz

champsim_seed used: 739

CPU 0 L1D next line prefetcher
CPU 0 L2C IP-based stride prefetcher
Initialize DRRIP state
Assign rand_sets[0]: 454  LLC: 2048
rand_sets[0]: 454
Assign rand_sets[1]: 1662  LLC: 2048
rand_sets[1]: 1662
Assign rand_sets[2]: 1921  LLC: 2048
rand_sets[2]: 1921
Assign rand_sets[3]: 1131  LLC: 2048
rand_sets[3]: 1131
Assign rand_sets[4]: 331  LLC: 2048
rand_sets[4]: 331
Assign rand_sets[5]: 1531  LLC: 2048
rand_sets[5]: 1531
Assign rand_sets[6]: 482  LLC: 2048
rand_sets[6]: 482
Assign rand_sets[7]: 1275  LLC: 2048
rand_sets[7]: 1275
Assign rand_sets[8]: 1876  LLC: 2048
rand_sets[8]: 1876
Assign rand_sets[9]: 2038  LLC: 2048
rand_sets[9]: 2038
Assign rand_sets[10]: 701  LLC: 2048
rand_sets[10]: 701
Assign rand_sets[11]: 479  LLC: 2048
rand_sets[11]: 479
Assign rand_sets[12]: 892  LLC: 2048
rand_sets[12]: 892
Assign rand_sets[13]: 1820  LLC: 2048
rand_sets[13]: 1820
Assign rand_sets[14]: 1505  LLC: 2048
rand_sets[14]: 1505
Assign rand_sets[15]: 1159  LLC: 2048
rand_sets[15]: 1159
Assign rand_sets[16]: 513  LLC: 2048
rand_sets[16]: 513
Assign rand_sets[17]: 703  LLC: 2048
rand_sets[17]: 703
Assign rand_sets[18]: 561  LLC: 2048
rand_sets[18]: 561
Assign rand_sets[19]: 990  LLC: 2048
rand_sets[19]: 990
Assign rand_sets[20]: 342  LLC: 2048
rand_sets[20]: 342
Assign rand_sets[21]: 882  LLC: 2048
rand_sets[21]: 882
Assign rand_sets[22]: 15  LLC: 2048
rand_sets[22]: 15
Assign rand_sets[23]: 71  LLC: 2048
rand_sets[23]: 71
Assign rand_sets[24]: 1127  LLC: 2048
rand_sets[24]: 1127
Assign rand_sets[25]: 1382  LLC: 2048
rand_sets[25]: 1382
Assign rand_sets[26]: 647  LLC: 2048
rand_sets[26]: 647
Assign rand_sets[27]: 857  LLC: 2048
rand_sets[27]: 857
Assign rand_sets[28]: 1450  LLC: 2048
rand_sets[28]: 1450
Assign rand_sets[29]: 1160  LLC: 2048
rand_sets[29]: 1160
Assign rand_sets[30]: 1852  LLC: 2048
rand_sets[30]: 1852
Assign rand_sets[31]: 1881  LLC: 2048
rand_sets[31]: 1881
Assign rand_sets[32]: 1770  LLC: 2048
rand_sets[32]: 1770
Assign rand_sets[33]: 1622  LLC: 2048
rand_sets[33]: 1622
Assign rand_sets[34]: 275  LLC: 2048
rand_sets[34]: 275
Assign rand_sets[35]: 635  LLC: 2048
rand_sets[35]: 635
Assign rand_sets[36]: 466  LLC: 2048
rand_sets[36]: 466
Assign rand_sets[37]: 1413  LLC: 2048
rand_sets[37]: 1413
Assign rand_sets[38]: 417  LLC: 2048
rand_sets[38]: 417
Assign rand_sets[39]: 472  LLC: 2048
rand_sets[39]: 472
Assign rand_sets[40]: 1340  LLC: 2048
rand_sets[40]: 1340
Assign rand_sets[41]: 852  LLC: 2048
rand_sets[41]: 852
Assign rand_sets[42]: 1365  LLC: 2048
rand_sets[42]: 1365
Assign rand_sets[43]: 47  LLC: 2048
rand_sets[43]: 47
Assign rand_sets[44]: 823  LLC: 2048
rand_sets[44]: 823
Assign rand_sets[45]: 686  LLC: 2048
rand_sets[45]: 686
Assign rand_sets[46]: 1637  LLC: 2048
rand_sets[46]: 1637
Assign rand_sets[47]: 1115  LLC: 2048
rand_sets[47]: 1115
Assign rand_sets[48]: 986  LLC: 2048
rand_sets[48]: 986
Assign rand_sets[49]: 258  LLC: 2048
rand_sets[49]: 258
Assign rand_sets[50]: 633  LLC: 2048
rand_sets[50]: 633
Assign rand_sets[51]: 920  LLC: 2048
rand_sets[51]: 920
Assign rand_sets[52]: 204  LLC: 2048
rand_sets[52]: 204
Assign rand_sets[53]: 227  LLC: 2048
rand_sets[53]: 227
Assign rand_sets[54]: 1818  LLC: 2048
rand_sets[54]: 1818
Assign rand_sets[55]: 886  LLC: 2048
rand_sets[55]: 886
Assign rand_sets[56]: 1422  LLC: 2048
rand_sets[56]: 1422
Assign rand_sets[57]: 607  LLC: 2048
rand_sets[57]: 607
Assign rand_sets[58]: 217  LLC: 2048
rand_sets[58]: 217
Assign rand_sets[59]: 1945  LLC: 2048
rand_sets[59]: 1945
Assign rand_sets[60]: 143  LLC: 2048
rand_sets[60]: 143
Assign rand_sets[61]: 1311  LLC: 2048
rand_sets[61]: 1311
Assign rand_sets[62]: 319  LLC: 2048
rand_sets[62]: 319
Assign rand_sets[63]: 1846  LLC: 2048
rand_sets[63]: 1846
 CLEAN-RRIP-POLICY-1: 2-2-1-3-2-3-0-2- CLEAN-RRIP-POLICY-2: 2-2-1-3-2-3-0-2-
 DIRTY-RRIP-POLICY-1: 2-2-0-3-1-3-1-2- DIRTY-RRIP-POLICY-2: 2-2-0-3-1-3-1-2-
 PSEL width: 10
Heartbeat CPU 0 instructions: 10000000 cycles: 7320016 heartbeat IPC: 1.36612 cumulative IPC: 1.36612 (Simulation time: 0 hr 0 min 19 sec) 
Heartbeat CPU 0 instructions: 20000000 cycles: 14623932 heartbeat IPC: 1.36913 cumulative IPC: 1.36762 (Simulation time: 0 hr 0 min 38 sec) 
Heartbeat CPU 0 instructions: 30000003 cycles: 21925469 heartbeat IPC: 1.36958 cumulative IPC: 1.36827 (Simulation time: 0 hr 0 min 57 sec) 
Heartbeat CPU 0 instructions: 40000000 cycles: 29213875 heartbeat IPC: 1.37204 cumulative IPC: 1.36921 (Simulation time: 0 hr 1 min 17 sec) 
Heartbeat CPU 0 instructions: 50000000 cycles: 36490526 heartbeat IPC: 1.37426 cumulative IPC: 1.37022 (Simulation time: 0 hr 1 min 36 sec) 
Heartbeat CPU 0 instructions: 60000000 cycles: 43770807 heartbeat IPC: 1.37357 cumulative IPC: 1.37078 (Simulation time: 0 hr 1 min 55 sec) 
Heartbeat CPU 0 instructions: 70000001 cycles: 51056254 heartbeat IPC: 1.3726 cumulative IPC: 1.37104 (Simulation time: 0 hr 2 min 15 sec) 
Heartbeat CPU 0 instructions: 80000000 cycles: 58331484 heartbeat IPC: 1.37453 cumulative IPC: 1.37147 (Simulation time: 0 hr 2 min 34 sec) 
Heartbeat CPU 0 instructions: 90000000 cycles: 65638032 heartbeat IPC: 1.36864 cumulative IPC: 1.37116 (Simulation time: 0 hr 2 min 54 sec) 
Heartbeat CPU 0 instructions: 100000000 cycles: 72930341 heartbeat IPC: 1.37131 cumulative IPC: 1.37117 (Simulation time: 0 hr 3 min 14 sec) 

Warmup complete CPU 0 instructions: 100000002 cycles: 72930342 (Simulation time: 0 hr 3 min 14 sec) 

Heartbeat CPU 0 instructions: 110000002 cycles: 113308360 heartbeat IPC: 0.24766 cumulative IPC: 0.24766 (Simulation time: 0 hr 3 min 52 sec) 
Heartbeat CPU 0 instructions: 120000000 cycles: 153398770 heartbeat IPC: 0.249436 cumulative IPC: 0.248545 (Simulation time: 0 hr 4 min 31 sec) 
Heartbeat CPU 0 instructions: 130000002 cycles: 193706804 heartbeat IPC: 0.24809 cumulative IPC: 0.248393 (Simulation time: 0 hr 5 min 9 sec) 
Heartbeat CPU 0 instructions: 140000000 cycles: 234137204 heartbeat IPC: 0.247339 cumulative IPC: 0.248128 (Simulation time: 0 hr 5 min 47 sec) 
Heartbeat CPU 0 instructions: 150000002 cycles: 274119646 heartbeat IPC: 0.25011 cumulative IPC: 0.248522 (Simulation time: 0 hr 6 min 26 sec) 
Heartbeat CPU 0 instructions: 160000000 cycles: 314134403 heartbeat IPC: 0.249908 cumulative IPC: 0.248752 (Simulation time: 0 hr 7 min 4 sec) 
Heartbeat CPU 0 instructions: 170000001 cycles: 353420190 heartbeat IPC: 0.254545 cumulative IPC: 0.249563 (Simulation time: 0 hr 7 min 42 sec) 
Heartbeat CPU 0 instructions: 180000000 cycles: 393423817 heartbeat IPC: 0.249977 cumulative IPC: 0.249615 (Simulation time: 0 hr 8 min 20 sec) 
Heartbeat CPU 0 instructions: 190000002 cycles: 433417962 heartbeat IPC: 0.250037 cumulative IPC: 0.249662 (Simulation time: 0 hr 8 min 58 sec) 
Heartbeat CPU 0 instructions: 200000000 cycles: 474582931 heartbeat IPC: 0.242925 cumulative IPC: 0.248971 (Simulation time: 0 hr 9 min 37 sec) 
Heartbeat CPU 0 instructions: 210000003 cycles: 514629913 heartbeat IPC: 0.249707 cumulative IPC: 0.249038 (Simulation time: 0 hr 10 min 15 sec) 
Heartbeat CPU 0 instructions: 220000000 cycles: 554886391 heartbeat IPC: 0.248407 cumulative IPC: 0.248985 (Simulation time: 0 hr 10 min 54 sec) 
Heartbeat CPU 0 instructions: 230000000 cycles: 595120043 heartbeat IPC: 0.248548 cumulative IPC: 0.248952 (Simulation time: 0 hr 11 min 32 sec) 
Heartbeat CPU 0 instructions: 240000000 cycles: 635100029 heartbeat IPC: 0.250125 cumulative IPC: 0.249035 (Simulation time: 0 hr 12 min 10 sec) 
Heartbeat CPU 0 instructions: 250000000 cycles: 675115795 heartbeat IPC: 0.249902 cumulative IPC: 0.249093 (Simulation time: 0 hr 12 min 47 sec) 
Heartbeat CPU 0 instructions: 260000000 cycles: 715227111 heartbeat IPC: 0.249306 cumulative IPC: 0.249106 (Simulation time: 0 hr 13 min 25 sec) 
Heartbeat CPU 0 instructions: 270000000 cycles: 755364847 heartbeat IPC: 0.249142 cumulative IPC: 0.249108 (Simulation time: 0 hr 14 min 3 sec) 
Heartbeat CPU 0 instructions: 280000000 cycles: 795878154 heartbeat IPC: 0.246832 cumulative IPC: 0.248981 (Simulation time: 0 hr 14 min 41 sec) 
Heartbeat CPU 0 instructions: 290000001 cycles: 835626183 heartbeat IPC: 0.251585 cumulative IPC: 0.249116 (Simulation time: 0 hr 15 min 18 sec) 
Heartbeat CPU 0 instructions: 300000000 cycles: 876025807 heartbeat IPC: 0.247527 cumulative IPC: 0.249036 (Simulation time: 0 hr 15 min 56 sec) 
Heartbeat CPU 0 instructions: 310000000 cycles: 916359924 heartbeat IPC: 0.247929 cumulative IPC: 0.248983 (Simulation time: 0 hr 16 min 33 sec) 
Heartbeat CPU 0 instructions: 320000000 cycles: 956463962 heartbeat IPC: 0.249351 cumulative IPC: 0.249 (Simulation time: 0 hr 17 min 10 sec) 
Heartbeat CPU 0 instructions: 330000000 cycles: 996515068 heartbeat IPC: 0.249681 cumulative IPC: 0.24903 (Simulation time: 0 hr 17 min 48 sec) 
Heartbeat CPU 0 instructions: 340000000 cycles: 1037190149 heartbeat IPC: 0.245851 cumulative IPC: 0.248896 (Simulation time: 0 hr 18 min 25 sec) 
Heartbeat CPU 0 instructions: 350000001 cycles: 1077360722 heartbeat IPC: 0.248938 cumulative IPC: 0.248897 (Simulation time: 0 hr 19 min 3 sec) 
Heartbeat CPU 0 instructions: 360000000 cycles: 1117804367 heartbeat IPC: 0.247258 cumulative IPC: 0.248834 (Simulation time: 0 hr 19 min 40 sec) 
Heartbeat CPU 0 instructions: 370000000 cycles: 1157326264 heartbeat IPC: 0.253024 cumulative IPC: 0.248987 (Simulation time: 0 hr 20 min 17 sec) 
Heartbeat CPU 0 instructions: 380000000 cycles: 1197740638 heartbeat IPC: 0.247437 cumulative IPC: 0.248931 (Simulation time: 0 hr 20 min 54 sec) 
Heartbeat CPU 0 instructions: 390000001 cycles: 1237687018 heartbeat IPC: 0.250336 cumulative IPC: 0.248979 (Simulation time: 0 hr 21 min 31 sec) 
Heartbeat CPU 0 instructions: 400000000 cycles: 1277758134 heartbeat IPC: 0.249556 cumulative IPC: 0.248998 (Simulation time: 0 hr 22 min 8 sec) 
Heartbeat CPU 0 instructions: 410000000 cycles: 1317671459 heartbeat IPC: 0.250543 cumulative IPC: 0.249048 (Simulation time: 0 hr 22 min 45 sec) 
Heartbeat CPU 0 instructions: 420000000 cycles: 1357627178 heartbeat IPC: 0.250277 cumulative IPC: 0.249086 (Simulation time: 0 hr 23 min 22 sec) 
Heartbeat CPU 0 instructions: 430000000 cycles: 1397637829 heartbeat IPC: 0.249933 cumulative IPC: 0.249112 (Simulation time: 0 hr 23 min 59 sec) 
Heartbeat CPU 0 instructions: 440000000 cycles: 1437676288 heartbeat IPC: 0.24976 cumulative IPC: 0.249131 (Simulation time: 0 hr 24 min 36 sec) 
Heartbeat CPU 0 instructions: 450000002 cycles: 1477589501 heartbeat IPC: 0.250544 cumulative IPC: 0.249171 (Simulation time: 0 hr 25 min 13 sec) 
Heartbeat CPU 0 instructions: 460000000 cycles: 1516934079 heartbeat IPC: 0.254165 cumulative IPC: 0.249307 (Simulation time: 0 hr 25 min 50 sec) 
Heartbeat CPU 0 instructions: 470000000 cycles: 1557124612 heartbeat IPC: 0.248815 cumulative IPC: 0.249294 (Simulation time: 0 hr 26 min 27 sec) 
Heartbeat CPU 0 instructions: 480000000 cycles: 1596929393 heartbeat IPC: 0.251226 cumulative IPC: 0.249344 (Simulation time: 0 hr 27 min 4 sec) 
Heartbeat CPU 0 instructions: 490000001 cycles: 1636921448 heartbeat IPC: 0.25005 cumulative IPC: 0.249362 (Simulation time: 0 hr 27 min 42 sec) 
Heartbeat CPU 0 instructions: 500000000 cycles: 1677120818 heartbeat IPC: 0.24876 cumulative IPC: 0.249347 (Simulation time: 0 hr 28 min 18 sec) 
Heartbeat CPU 0 instructions: 510000000 cycles: 1716806520 heartbeat IPC: 0.25198 cumulative IPC: 0.249411 (Simulation time: 0 hr 28 min 54 sec) 
Heartbeat CPU 0 instructions: 520000000 cycles: 1757203145 heartbeat IPC: 0.247545 cumulative IPC: 0.249366 (Simulation time: 0 hr 29 min 31 sec) 
Heartbeat CPU 0 instructions: 530000000 cycles: 1797071099 heartbeat IPC: 0.250828 cumulative IPC: 0.2494 (Simulation time: 0 hr 30 min 5 sec) 
Heartbeat CPU 0 instructions: 540000000 cycles: 1836696508 heartbeat IPC: 0.252363 cumulative IPC: 0.249466 (Simulation time: 0 hr 30 min 40 sec) 
Heartbeat CPU 0 instructions: 550000001 cycles: 1877039336 heartbeat IPC: 0.247876 cumulative IPC: 0.249431 (Simulation time: 0 hr 31 min 15 sec) 
Heartbeat CPU 0 instructions: 560000000 cycles: 1917460001 heartbeat IPC: 0.247398 cumulative IPC: 0.249386 (Simulation time: 0 hr 31 min 50 sec) 
Heartbeat CPU 0 instructions: 570000003 cycles: 1957862862 heartbeat IPC: 0.247507 cumulative IPC: 0.249346 (Simulation time: 0 hr 32 min 25 sec) 
Heartbeat CPU 0 instructions: 580000000 cycles: 1998085061 heartbeat IPC: 0.248619 cumulative IPC: 0.249331 (Simulation time: 0 hr 33 min 0 sec) 
Heartbeat CPU 0 instructions: 590000001 cycles: 2038764076 heartbeat IPC: 0.245827 cumulative IPC: 0.249258 (Simulation time: 0 hr 33 min 35 sec) 
Heartbeat CPU 0 instructions: 600000000 cycles: 2079142455 heartbeat IPC: 0.247657 cumulative IPC: 0.249226 (Simulation time: 0 hr 34 min 10 sec) 
Finished CPU 0 instructions: 500000000 cycles: 2006212121 cumulative IPC: 0.249226 (Simulation time: 0 hr 34 min 10 sec) 

CPU 0 Branch Prediction Accuracy: 96.2429% MPKI: 5.85335
Number of Branches: 77897976 Number of Mispredictions: 2926674
Number of LOAD Instructions: 193081861
Number of LOAD Instructions (ROI): 193081861
Number of STORE Instructions: 97310749
Number of STORE Instructions (ROI): 97310749
Total Destination Memory Operands: 106368027
Total Destination Memory Operands (ROI): 106368027
Total Source Memory Operands: 193081861
Total Source Memory Operands (ROI): 193081861
Number of DEPENDED LOADS: 6433122
Number of DEPENDED LOADS (ROI): 6433122
Number of SQ_ADDED: 106367982
Number of SQ_ADDED (ROI): 106367982
Number of LQ_ADDED: 425980138
Number of LQ_ADDED (ROI): 425980138
Number of Instructions read from trace: 600000256

ChampSim completed all CPUs

Region of Interest Statistics

CPU 0 cumulative IPC: 0.249226 instructions: 500000000 cycles: 2006212121
ITLB TOTAL     ACCESS:  151278894  HIT:  151263063  MISS:      15831
ITLB LOAD      ACCESS:  151278894  HIT:  151263063  MISS:      15831
ITLB RFO       ACCESS:          0  HIT:          0  MISS:          0
ITLB PREFETCH  ACCESS:          0  HIT:          0  MISS:          0
ITLB WRITEBACK ACCESS:          0  HIT:          0  MISS:          0
ITLB PREFETCH  REQUESTED:          0  ISSUED:          0  USEFUL:          0  USELESS:          0
ITLB TOTAL MSHR MERGED:      17599
ITLB LOAD MSHR MERGED:      17599
ITLB RFO MSHR MERGED:          0
ITLB PREFETCH MSHR MERGED:          0
ITLB WRITEBACK MSHR MERGED:          0
ITLB TOTAL ACCESSES:  151296493 HITS:  151263063 MISSES:      33430
ITLB LOAD ACCESSES:  151296493 HITS:  151263063 MISSES:      33430
ITLB RFO ACCESSES:          0 HITS:          0 MISSES:          0
ITLB PREFETCH ACCESSES:          0 HITS:          0 MISSES:          0
ITLB WRITEBACK ACCESSES:          0 HITS:          0 MISSES:          0
ITLB RQ ACCESS:  500000242
ITLB RQ TO_CACHE:  151296493
ITLB RQ MERGED:  348703749
ITLB RQ FORWARD:          0
ITLB WQ ACCESS:          0
ITLB WQ TO_CACHE:          0
ITLB WQ MERGED:          0
ITLB WQ FORWARD:          0
DTLB TOTAL     ACCESS:  199568283  HIT:  194189215  MISS:    5379068
DTLB LOAD      ACCESS:  123140428  HIT:  118121848  MISS:    5018580
DTLB RFO       ACCESS:   76427855  HIT:   76067367  MISS:     360488
DTLB PREFETCH  ACCESS:          0  HIT:          0  MISS:          0
DTLB WRITEBACK ACCESS:          0  HIT:          0  MISS:          0
DTLB PREFETCH  REQUESTED:          0  ISSUED:          0  USEFUL:          0  USELESS:          0
DTLB TOTAL MSHR MERGED:     917159
DTLB LOAD MSHR MERGED:     807304
DTLB RFO MSHR MERGED:     109855
DTLB PREFETCH MSHR MERGED:          0
DTLB WRITEBACK MSHR MERGED:          0
DTLB TOTAL ACCESSES:  200485442 HITS:  194189215 MISSES:    6296227
DTLB LOAD ACCESSES:  123947732 HITS:  118121848 MISSES:    5825884
DTLB RFO ACCESSES:   76537710 HITS:   76067367 MISSES:     470343
DTLB PREFETCH ACCESSES:          0 HITS:          0 MISSES:          0
DTLB WRITEBACK ACCESSES:          0 HITS:          0 MISSES:          0
DTLB RQ ACCESS:  243892134
DTLB RQ TO_CACHE:  200485442
DTLB RQ MERGED:   43406692
DTLB RQ FORWARD:          0
DTLB WQ ACCESS:          0
DTLB WQ TO_CACHE:          0
DTLB WQ MERGED:          0
DTLB WQ FORWARD:          0
L1D TOTAL     ACCESS:  335651651  HIT:  317555407  MISS:   18096244
L1D LOAD      ACCESS:  127704488  HIT:  118763110  MISS:    8941378
L1D RFO       ACCESS:   87094407  HIT:   86313056  MISS:     781351
L1D PREFETCH  ACCESS:  120852756  HIT:  112479241  MISS:    8373515
L1D WRITEBACK ACCESS:          0  HIT:          0  MISS:          0
L1D PREFETCH  REQUESTED:  128482978  ISSUED:  126885000  USEFUL:    1744355  USELESS:    6629172
L1D TOTAL MSHR MERGED:    3820873
L1D LOAD MSHR MERGED:     940916
L1D RFO MSHR MERGED:    1053935
L1D PREFETCH MSHR MERGED:    1826022
L1D WRITEBACK MSHR MERGED:          0
L1D TOTAL ACCESSES:  339557712 HITS:  317640595 MISSES:   21917117
L1D LOAD ACCESSES:  128483410 HITS:  118763542 MISSES:    9719868
L1D RFO ACCESSES:   88087729 HITS:   86313056 MISSES:    1774673
L1D PREFETCH ACCESSES:  122986573 HITS:  112563997 MISSES:   10422576
L1D WRITEBACK ACCESSES:          0 HITS:          0 MISSES:          0
L1D RQ ACCESS:  155260749
L1D RQ TO_CACHE:  128482978
L1D RQ MERGED:   26777339
L1D RQ FORWARD:          0
L1D WQ ACCESS:   88631385
L1D WQ TO_CACHE:   88087728
L1D WQ MERGED:     543657
L1D WQ FORWARD:      85188
L1I TOTAL     ACCESS:  175581757  HIT:  175315292  MISS:     266465
L1I LOAD      ACCESS:  175581757  HIT:  175315292  MISS:     266465
L1I RFO       ACCESS:          0  HIT:          0  MISS:          0
L1I PREFETCH  ACCESS:          0  HIT:          0  MISS:          0
L1I WRITEBACK ACCESS:          0  HIT:          0  MISS:          0
L1I PREFETCH  REQUESTED:          0  ISSUED:          0  USEFUL:          0  USELESS:          0
L1I TOTAL MSHR MERGED:     213088
L1I LOAD MSHR MERGED:     213088
L1I RFO MSHR MERGED:          0
L1I PREFETCH MSHR MERGED:          0
L1I WRITEBACK MSHR MERGED:          0
L1I TOTAL ACCESSES:  175794845 HITS:  175315292 MISSES:     479553
L1I LOAD ACCESSES:  175794845 HITS:  175315292 MISSES:     479553
L1I RFO ACCESSES:          0 HITS:          0 MISSES:          0
L1I PREFETCH ACCESSES:          0 HITS:          0 MISSES:          0
L1I WRITEBACK ACCESSES:          0 HITS:          0 MISSES:          0
L1I RQ ACCESS:  500000242
L1I RQ TO_CACHE:  175794845
L1I RQ MERGED:  324205397
L1I RQ FORWARD:          0
L1I WQ ACCESS:          0
L1I WQ TO_CACHE:          0
L1I WQ MERGED:          0
L1I WQ FORWARD:          0
L2C TOTAL     ACCESS:   23738835  HIT:   12113051  MISS:   11625784
L2C LOAD      ACCESS:    9044240  HIT:    3564739  MISS:    5479501
L2C RFO       ACCESS:     720681  HIT:     130402  MISS:     590279
L2C PREFETCH  ACCESS:    8613563  HIT:    3086260  MISS:    5527303
L2C WRITEBACK ACCESS:    5360351  HIT:    5331650  MISS:      28701
L2C PREFETCH  REQUESTED:      18049  ISSUED:      18049  USEFUL:     323031  USELESS:    5204447
L2C TOTAL MSHR MERGED:         21
L2C LOAD MSHR MERGED:          2
L2C RFO MSHR MERGED:          0
L2C PREFETCH MSHR MERGED:         19
L2C WRITEBACK MSHR MERGED:          0
L2C TOTAL ACCESSES:   23740648 HITS:   12114839 MISSES:   11625809
L2C LOAD ACCESSES:    9045417 HITS:    3565916 MISSES:    5479501
L2C RFO ACCESSES:     720738 HITS:     130459 MISSES:     590279
L2C PREFETCH ACCESSES:    8614142 HITS:    3086814 MISSES:    5527328
L2C WRITEBACK ACCESSES:    5360351 HITS:    5331650 MISSES:      28701
L2C RQ ACCESS:    9766155
L2C RQ TO_CACHE:    9764921
L2C RQ MERGED:          0
L2C RQ FORWARD:          0
L2C WQ ACCESS:    5360351
L2C WQ TO_CACHE:    5360351
L2C WQ MERGED:          0
L2C WQ FORWARD:       1788
LLC TOTAL     ACCESS:   15448708  HIT:    6629173  MISS:    8819535
LLC LOAD      ACCESS:    5479470  HIT:    2085458  MISS:    3394012
LLC RFO       ACCESS:     590277  HIT:     293654  MISS:     296623
LLC PREFETCH  ACCESS:    5527292  HIT:    1136035  MISS:    4391257
LLC WRITEBACK ACCESS:    3851669  HIT:    3114026  MISS:     737643
LLC PREFETCH  REQUESTED:          0  ISSUED:          0  USEFUL:      25225  USELESS:    4366558
LLC TOTAL MSHR MERGED:          0
LLC LOAD MSHR MERGED:          0
LLC RFO MSHR MERGED:          0
LLC PREFETCH MSHR MERGED:          0
LLC WRITEBACK MSHR MERGED:          0
LLC TOTAL ACCESSES:   15448756 HITS:    6629221 MISSES:    8819535
LLC LOAD ACCESSES:    5479499 HITS:    2085487 MISSES:    3394012
LLC RFO ACCESSES:     590279 HITS:     293656 MISSES:     296623
LLC PREFETCH ACCESSES:    5527309 HITS:    1136052 MISSES:    4391257
LLC WRITEBACK ACCESSES:    3851669 HITS:    3114026 MISSES:     737643
LLC 0 RQ ACCESS:    6069778
LLC 0 RQ TO_CACHE:    6069747
LLC 0 RQ MERGED:          0
LLC 0 RQ FORWARD:          0
LLC WQ ACCESS:    3851669
LLC WQ TO_CACHE:    3851669
LLC WQ MERGED:          0
LLC WQ FORWARD:         48
Major fault: 0 Minor fault: 44814
CPU 0 L1D next line prefetcher final stats
CPU 0 L2C PC-based stride prefetcher final stats
All Misses: 10676945
All Hits: 7944267
SD Algo Stats - Switches: 0 SRR-Repls: 3873704 BRR-Repls: 0

DRAM Statistics
 CHANNEL 0
 RQ ROW_BUFFER_HIT:    1430415  ROW_BUFFER_MISS:    6650260
 DBUS_CONGESTED:    5403998
 WQ ROW_BUFFER_HIT:     171302  ROW_BUFFER_MISS:    2050529  FULL:          0

 AVG_CONGESTED_CYCLE: 13
LOADS RETIRED: 160808997
INSTR RETIRED: 500000000
