
*** ChampSim Multicore Out-of-Order Simulator ***

Warmup Instructions: 100000000
Simulation Instructions: 500000000
Number of CPUs: 1
LLC sets: 2048
LLC ways: 16
Clean RRIP Policies: 2213232222132322 Dirty RRIP Policies: 1203230212032302 PSEL Width: 10 Track Set: 4294967295 PSEL Mask: 1 Demote Mask: 4040100040401000DS Algo: 0Window size: 0
Off-chip DRAM Size: 4096 MB Channels: 1 Width: 64-bit Data Rate: 1600 MT/s

CPU 0 runs /mnt/beegfs/iconst01/spec2017/Mcf.trace.gz
NOT SORTED
TRACE STRING: /mnt/beegfs/iconst01/spec2017/Mcf.trace.gz
SORTED
TRACE STRING: /mnt/beegfs/iconst01/spec2017/Mcf.trace.gz
INITIAL
TRACE STRING: /mnt/beegfs/iconst01/spec2017/Mcf.trace.gz

champsim_seed used: 278

CPU 0 L1D next line prefetcher
CPU 0 L2C IP-based stride prefetcher
Initialize DRRIP state
Assign rand_sets[0]: 454  LLC: 2048
rand_sets[0]: 454
Assign rand_sets[1]: 1662  LLC: 2048
rand_sets[1]: 1662
Assign rand_sets[2]: 1921  LLC: 2048
rand_sets[2]: 1921
Assign rand_sets[3]: 1131  LLC: 2048
rand_sets[3]: 1131
Assign rand_sets[4]: 331  LLC: 2048
rand_sets[4]: 331
Assign rand_sets[5]: 1531  LLC: 2048
rand_sets[5]: 1531
Assign rand_sets[6]: 482  LLC: 2048
rand_sets[6]: 482
Assign rand_sets[7]: 1275  LLC: 2048
rand_sets[7]: 1275
Assign rand_sets[8]: 1876  LLC: 2048
rand_sets[8]: 1876
Assign rand_sets[9]: 2038  LLC: 2048
rand_sets[9]: 2038
Assign rand_sets[10]: 701  LLC: 2048
rand_sets[10]: 701
Assign rand_sets[11]: 479  LLC: 2048
rand_sets[11]: 479
Assign rand_sets[12]: 892  LLC: 2048
rand_sets[12]: 892
Assign rand_sets[13]: 1820  LLC: 2048
rand_sets[13]: 1820
Assign rand_sets[14]: 1505  LLC: 2048
rand_sets[14]: 1505
Assign rand_sets[15]: 1159  LLC: 2048
rand_sets[15]: 1159
Assign rand_sets[16]: 513  LLC: 2048
rand_sets[16]: 513
Assign rand_sets[17]: 703  LLC: 2048
rand_sets[17]: 703
Assign rand_sets[18]: 561  LLC: 2048
rand_sets[18]: 561
Assign rand_sets[19]: 990  LLC: 2048
rand_sets[19]: 990
Assign rand_sets[20]: 342  LLC: 2048
rand_sets[20]: 342
Assign rand_sets[21]: 882  LLC: 2048
rand_sets[21]: 882
Assign rand_sets[22]: 15  LLC: 2048
rand_sets[22]: 15
Assign rand_sets[23]: 71  LLC: 2048
rand_sets[23]: 71
Assign rand_sets[24]: 1127  LLC: 2048
rand_sets[24]: 1127
Assign rand_sets[25]: 1382  LLC: 2048
rand_sets[25]: 1382
Assign rand_sets[26]: 647  LLC: 2048
rand_sets[26]: 647
Assign rand_sets[27]: 857  LLC: 2048
rand_sets[27]: 857
Assign rand_sets[28]: 1450  LLC: 2048
rand_sets[28]: 1450
Assign rand_sets[29]: 1160  LLC: 2048
rand_sets[29]: 1160
Assign rand_sets[30]: 1852  LLC: 2048
rand_sets[30]: 1852
Assign rand_sets[31]: 1881  LLC: 2048
rand_sets[31]: 1881
Assign rand_sets[32]: 1770  LLC: 2048
rand_sets[32]: 1770
Assign rand_sets[33]: 1622  LLC: 2048
rand_sets[33]: 1622
Assign rand_sets[34]: 275  LLC: 2048
rand_sets[34]: 275
Assign rand_sets[35]: 635  LLC: 2048
rand_sets[35]: 635
Assign rand_sets[36]: 466  LLC: 2048
rand_sets[36]: 466
Assign rand_sets[37]: 1413  LLC: 2048
rand_sets[37]: 1413
Assign rand_sets[38]: 417  LLC: 2048
rand_sets[38]: 417
Assign rand_sets[39]: 472  LLC: 2048
rand_sets[39]: 472
Assign rand_sets[40]: 1340  LLC: 2048
rand_sets[40]: 1340
Assign rand_sets[41]: 852  LLC: 2048
rand_sets[41]: 852
Assign rand_sets[42]: 1365  LLC: 2048
rand_sets[42]: 1365
Assign rand_sets[43]: 47  LLC: 2048
rand_sets[43]: 47
Assign rand_sets[44]: 823  LLC: 2048
rand_sets[44]: 823
Assign rand_sets[45]: 686  LLC: 2048
rand_sets[45]: 686
Assign rand_sets[46]: 1637  LLC: 2048
rand_sets[46]: 1637
Assign rand_sets[47]: 1115  LLC: 2048
rand_sets[47]: 1115
Assign rand_sets[48]: 986  LLC: 2048
rand_sets[48]: 986
Assign rand_sets[49]: 258  LLC: 2048
rand_sets[49]: 258
Assign rand_sets[50]: 633  LLC: 2048
rand_sets[50]: 633
Assign rand_sets[51]: 920  LLC: 2048
rand_sets[51]: 920
Assign rand_sets[52]: 204  LLC: 2048
rand_sets[52]: 204
Assign rand_sets[53]: 227  LLC: 2048
rand_sets[53]: 227
Assign rand_sets[54]: 1818  LLC: 2048
rand_sets[54]: 1818
Assign rand_sets[55]: 886  LLC: 2048
rand_sets[55]: 886
Assign rand_sets[56]: 1422  LLC: 2048
rand_sets[56]: 1422
Assign rand_sets[57]: 607  LLC: 2048
rand_sets[57]: 607
Assign rand_sets[58]: 217  LLC: 2048
rand_sets[58]: 217
Assign rand_sets[59]: 1945  LLC: 2048
rand_sets[59]: 1945
Assign rand_sets[60]: 143  LLC: 2048
rand_sets[60]: 143
Assign rand_sets[61]: 1311  LLC: 2048
rand_sets[61]: 1311
Assign rand_sets[62]: 319  LLC: 2048
rand_sets[62]: 319
Assign rand_sets[63]: 1846  LLC: 2048
rand_sets[63]: 1846
 CLEAN-RRIP-POLICY-1: 2-2-1-3-2-3-2-2- CLEAN-RRIP-POLICY-2: 2-2-1-3-2-3-2-2-
 DIRTY-RRIP-POLICY-1: 1-2-0-3-2-3-0-2- DIRTY-RRIP-POLICY-2: 1-2-0-3-2-3-0-2-
 PSEL width: 10
Heartbeat CPU 0 instructions: 10000002 cycles: 6248871 heartbeat IPC: 1.60029 cumulative IPC: 1.60029 (Simulation time: 0 hr 0 min 13 sec) 
Heartbeat CPU 0 instructions: 20000000 cycles: 12470658 heartbeat IPC: 1.60725 cumulative IPC: 1.60376 (Simulation time: 0 hr 0 min 26 sec) 
Heartbeat CPU 0 instructions: 30000000 cycles: 18681727 heartbeat IPC: 1.61003 cumulative IPC: 1.60585 (Simulation time: 0 hr 0 min 38 sec) 
Heartbeat CPU 0 instructions: 40000000 cycles: 24893028 heartbeat IPC: 1.60997 cumulative IPC: 1.60688 (Simulation time: 0 hr 0 min 51 sec) 
Heartbeat CPU 0 instructions: 50000003 cycles: 31106072 heartbeat IPC: 1.60952 cumulative IPC: 1.6074 (Simulation time: 0 hr 1 min 3 sec) 
Heartbeat CPU 0 instructions: 60000000 cycles: 37302715 heartbeat IPC: 1.61378 cumulative IPC: 1.60846 (Simulation time: 0 hr 1 min 16 sec) 
Heartbeat CPU 0 instructions: 70000003 cycles: 43521692 heartbeat IPC: 1.60798 cumulative IPC: 1.60839 (Simulation time: 0 hr 1 min 29 sec) 
Heartbeat CPU 0 instructions: 80000000 cycles: 49752597 heartbeat IPC: 1.6049 cumulative IPC: 1.60796 (Simulation time: 0 hr 1 min 41 sec) 
Heartbeat CPU 0 instructions: 90000000 cycles: 55982013 heartbeat IPC: 1.60529 cumulative IPC: 1.60766 (Simulation time: 0 hr 1 min 54 sec) 
Heartbeat CPU 0 instructions: 100000000 cycles: 62201400 heartbeat IPC: 1.60788 cumulative IPC: 1.60768 (Simulation time: 0 hr 2 min 6 sec) 

Warmup complete CPU 0 instructions: 100000001 cycles: 62201401 (Simulation time: 0 hr 2 min 6 sec) 

Heartbeat CPU 0 instructions: 110000000 cycles: 87000050 heartbeat IPC: 0.403248 cumulative IPC: 0.403248 (Simulation time: 0 hr 2 min 30 sec) 
Heartbeat CPU 0 instructions: 120000000 cycles: 111904950 heartbeat IPC: 0.401527 cumulative IPC: 0.402386 (Simulation time: 0 hr 2 min 54 sec) 
Heartbeat CPU 0 instructions: 130000000 cycles: 136866566 heartbeat IPC: 0.400615 cumulative IPC: 0.401794 (Simulation time: 0 hr 3 min 18 sec) 
Heartbeat CPU 0 instructions: 140000000 cycles: 161779164 heartbeat IPC: 0.401403 cumulative IPC: 0.401696 (Simulation time: 0 hr 3 min 42 sec) 
Heartbeat CPU 0 instructions: 150000003 cycles: 186583132 heartbeat IPC: 0.403161 cumulative IPC: 0.401988 (Simulation time: 0 hr 4 min 6 sec) 
Heartbeat CPU 0 instructions: 160000000 cycles: 211645932 heartbeat IPC: 0.398998 cumulative IPC: 0.401487 (Simulation time: 0 hr 4 min 30 sec) 
Heartbeat CPU 0 instructions: 170000001 cycles: 236551332 heartbeat IPC: 0.401519 cumulative IPC: 0.401491 (Simulation time: 0 hr 4 min 54 sec) 
Heartbeat CPU 0 instructions: 180000000 cycles: 261465419 heartbeat IPC: 0.401379 cumulative IPC: 0.401477 (Simulation time: 0 hr 5 min 18 sec) 
Heartbeat CPU 0 instructions: 190000003 cycles: 286340399 heartbeat IPC: 0.402011 cumulative IPC: 0.401537 (Simulation time: 0 hr 5 min 42 sec) 
Heartbeat CPU 0 instructions: 200000000 cycles: 311247246 heartbeat IPC: 0.401496 cumulative IPC: 0.401533 (Simulation time: 0 hr 6 min 6 sec) 
Heartbeat CPU 0 instructions: 210000003 cycles: 336214925 heartbeat IPC: 0.400518 cumulative IPC: 0.40144 (Simulation time: 0 hr 6 min 30 sec) 
Heartbeat CPU 0 instructions: 220000000 cycles: 361377879 heartbeat IPC: 0.397409 cumulative IPC: 0.401101 (Simulation time: 0 hr 6 min 54 sec) 
Heartbeat CPU 0 instructions: 230000002 cycles: 386195220 heartbeat IPC: 0.402944 cumulative IPC: 0.401242 (Simulation time: 0 hr 7 min 18 sec) 
Heartbeat CPU 0 instructions: 240000000 cycles: 411336116 heartbeat IPC: 0.397758 cumulative IPC: 0.400991 (Simulation time: 0 hr 7 min 42 sec) 
Heartbeat CPU 0 instructions: 250000000 cycles: 436257331 heartbeat IPC: 0.401265 cumulative IPC: 0.40101 (Simulation time: 0 hr 8 min 6 sec) 
Heartbeat CPU 0 instructions: 260000000 cycles: 461165218 heartbeat IPC: 0.401479 cumulative IPC: 0.401039 (Simulation time: 0 hr 8 min 30 sec) 
Heartbeat CPU 0 instructions: 270000001 cycles: 486169318 heartbeat IPC: 0.399934 cumulative IPC: 0.400974 (Simulation time: 0 hr 8 min 54 sec) 
Heartbeat CPU 0 instructions: 280000000 cycles: 511087753 heartbeat IPC: 0.401309 cumulative IPC: 0.400992 (Simulation time: 0 hr 9 min 18 sec) 
Heartbeat CPU 0 instructions: 290000001 cycles: 536102466 heartbeat IPC: 0.399765 cumulative IPC: 0.400928 (Simulation time: 0 hr 9 min 42 sec) 
Heartbeat CPU 0 instructions: 300000000 cycles: 561267040 heartbeat IPC: 0.397384 cumulative IPC: 0.400749 (Simulation time: 0 hr 10 min 6 sec) 
Heartbeat CPU 0 instructions: 310000003 cycles: 586072412 heartbeat IPC: 0.403139 cumulative IPC: 0.400862 (Simulation time: 0 hr 10 min 30 sec) 
Heartbeat CPU 0 instructions: 320000000 cycles: 611239337 heartbeat IPC: 0.397347 cumulative IPC: 0.400701 (Simulation time: 0 hr 10 min 55 sec) 
Heartbeat CPU 0 instructions: 330000003 cycles: 636149239 heartbeat IPC: 0.401447 cumulative IPC: 0.400733 (Simulation time: 0 hr 11 min 19 sec) 
Heartbeat CPU 0 instructions: 340000000 cycles: 661342449 heartbeat IPC: 0.396932 cumulative IPC: 0.400573 (Simulation time: 0 hr 11 min 43 sec) 
Heartbeat CPU 0 instructions: 350000002 cycles: 686522766 heartbeat IPC: 0.397136 cumulative IPC: 0.400435 (Simulation time: 0 hr 12 min 7 sec) 
Heartbeat CPU 0 instructions: 360000000 cycles: 711826617 heartbeat IPC: 0.395197 cumulative IPC: 0.400231 (Simulation time: 0 hr 12 min 31 sec) 
Heartbeat CPU 0 instructions: 370000000 cycles: 736906731 heartbeat IPC: 0.398722 cumulative IPC: 0.400175 (Simulation time: 0 hr 12 min 55 sec) 
Heartbeat CPU 0 instructions: 380000000 cycles: 761819934 heartbeat IPC: 0.401394 cumulative IPC: 0.400218 (Simulation time: 0 hr 13 min 20 sec) 
Heartbeat CPU 0 instructions: 390000002 cycles: 786734220 heartbeat IPC: 0.401376 cumulative IPC: 0.400258 (Simulation time: 0 hr 13 min 44 sec) 
Heartbeat CPU 0 instructions: 400000000 cycles: 811822333 heartbeat IPC: 0.398595 cumulative IPC: 0.400202 (Simulation time: 0 hr 14 min 8 sec) 
Heartbeat CPU 0 instructions: 410000002 cycles: 836800726 heartbeat IPC: 0.400346 cumulative IPC: 0.400207 (Simulation time: 0 hr 14 min 32 sec) 
Heartbeat CPU 0 instructions: 420000000 cycles: 861563547 heartbeat IPC: 0.403831 cumulative IPC: 0.400319 (Simulation time: 0 hr 14 min 56 sec) 
Heartbeat CPU 0 instructions: 430000000 cycles: 886560500 heartbeat IPC: 0.400049 cumulative IPC: 0.400311 (Simulation time: 0 hr 15 min 21 sec) 
Heartbeat CPU 0 instructions: 440000000 cycles: 911277404 heartbeat IPC: 0.404581 cumulative IPC: 0.400435 (Simulation time: 0 hr 15 min 45 sec) 
Heartbeat CPU 0 instructions: 450000000 cycles: 936416106 heartbeat IPC: 0.397793 cumulative IPC: 0.400359 (Simulation time: 0 hr 16 min 10 sec) 
Heartbeat CPU 0 instructions: 460000000 cycles: 961417592 heartbeat IPC: 0.399976 cumulative IPC: 0.400349 (Simulation time: 0 hr 16 min 36 sec) 
Heartbeat CPU 0 instructions: 470000001 cycles: 986234076 heartbeat IPC: 0.402958 cumulative IPC: 0.400419 (Simulation time: 0 hr 17 min 1 sec) 
Heartbeat CPU 0 instructions: 480000000 cycles: 1011215775 heartbeat IPC: 0.400293 cumulative IPC: 0.400415 (Simulation time: 0 hr 17 min 26 sec) 
Heartbeat CPU 0 instructions: 490000000 cycles: 1036295621 heartbeat IPC: 0.398727 cumulative IPC: 0.400372 (Simulation time: 0 hr 17 min 52 sec) 
Heartbeat CPU 0 instructions: 500000000 cycles: 1061696959 heartbeat IPC: 0.39368 cumulative IPC: 0.400202 (Simulation time: 0 hr 18 min 17 sec) 
Heartbeat CPU 0 instructions: 510000003 cycles: 1086969946 heartbeat IPC: 0.39568 cumulative IPC: 0.40009 (Simulation time: 0 hr 18 min 42 sec) 
Heartbeat CPU 0 instructions: 520000000 cycles: 1112405160 heartbeat IPC: 0.393156 cumulative IPC: 0.399922 (Simulation time: 0 hr 19 min 8 sec) 
Heartbeat CPU 0 instructions: 530000003 cycles: 1137847636 heartbeat IPC: 0.393044 cumulative IPC: 0.39976 (Simulation time: 0 hr 19 min 33 sec) 
Heartbeat CPU 0 instructions: 540000000 cycles: 1163202512 heartbeat IPC: 0.394401 cumulative IPC: 0.399636 (Simulation time: 0 hr 19 min 58 sec) 
Heartbeat CPU 0 instructions: 550000000 cycles: 1188563390 heartbeat IPC: 0.394308 cumulative IPC: 0.399516 (Simulation time: 0 hr 20 min 24 sec) 
Heartbeat CPU 0 instructions: 560000000 cycles: 1214250132 heartbeat IPC: 0.389306 cumulative IPC: 0.399289 (Simulation time: 0 hr 20 min 49 sec) 
Heartbeat CPU 0 instructions: 570000001 cycles: 1239865578 heartbeat IPC: 0.39039 cumulative IPC: 0.399095 (Simulation time: 0 hr 21 min 14 sec) 
Heartbeat CPU 0 instructions: 580000000 cycles: 1265502500 heartbeat IPC: 0.390062 cumulative IPC: 0.398903 (Simulation time: 0 hr 21 min 40 sec) 
Heartbeat CPU 0 instructions: 590000000 cycles: 1291270485 heartbeat IPC: 0.388078 cumulative IPC: 0.398676 (Simulation time: 0 hr 22 min 5 sec) 
Heartbeat CPU 0 instructions: 600000000 cycles: 1317121869 heartbeat IPC: 0.386826 cumulative IPC: 0.398432 (Simulation time: 0 hr 22 min 31 sec) 
Finished CPU 0 instructions: 500000003 cycles: 1254920481 cumulative IPC: 0.398432 (Simulation time: 0 hr 22 min 31 sec) 

CPU 0 Branch Prediction Accuracy: 91.1342% MPKI: 18.7968
Number of Branches: 106006945 Number of Mispredictions: 9398408
Number of LOAD Instructions: 207894007
Number of LOAD Instructions (ROI): 207894007
Number of STORE Instructions: 54285997
Number of STORE Instructions (ROI): 54285997
Total Destination Memory Operands: 57463404
Total Destination Memory Operands (ROI): 57463404
Total Source Memory Operands: 207894007
Total Source Memory Operands (ROI): 207894007
Number of DEPENDED LOADS: 18099315
Number of DEPENDED LOADS (ROI): 18099315
Number of SQ_ADDED: 57463404
Number of SQ_ADDED (ROI): 57463404
Number of LQ_ADDED: 209270955
Number of LQ_ADDED (ROI): 209270955
Number of Instructions read from trace: 600000039

ChampSim completed all CPUs

Region of Interest Statistics

CPU 0 cumulative IPC: 0.398432 instructions: 500000003 cycles: 1254920481
ITLB TOTAL     ACCESS:   96421252  HIT:   96421252  MISS:          0
ITLB LOAD      ACCESS:   96421252  HIT:   96421252  MISS:          0
ITLB RFO       ACCESS:          0  HIT:          0  MISS:          0
ITLB PREFETCH  ACCESS:          0  HIT:          0  MISS:          0
ITLB WRITEBACK ACCESS:          0  HIT:          0  MISS:          0
ITLB PREFETCH  REQUESTED:          0  ISSUED:          0  USEFUL:          0  USELESS:          0
ITLB TOTAL MSHR MERGED:          0
ITLB LOAD MSHR MERGED:          0
ITLB RFO MSHR MERGED:          0
ITLB PREFETCH MSHR MERGED:          0
ITLB WRITEBACK MSHR MERGED:          0
ITLB TOTAL ACCESSES:   96421252 HITS:   96421252 MISSES:          0
ITLB LOAD ACCESSES:   96421252 HITS:   96421252 MISSES:          0
ITLB RFO ACCESSES:          0 HITS:          0 MISSES:          0
ITLB PREFETCH ACCESSES:          0 HITS:          0 MISSES:          0
ITLB WRITEBACK ACCESSES:          0 HITS:          0 MISSES:          0
ITLB RQ ACCESS:  499999980
ITLB RQ TO_CACHE:   96421252
ITLB RQ MERGED:  403578728
ITLB RQ FORWARD:          0
ITLB WQ ACCESS:          0
ITLB WQ TO_CACHE:          0
ITLB WQ MERGED:          0
ITLB WQ FORWARD:          0
DTLB TOTAL     ACCESS:  155173723  HIT:  150261543  MISS:    4912180
DTLB LOAD      ACCESS:  117726505  HIT:  113335939  MISS:    4390566
DTLB RFO       ACCESS:   37447218  HIT:   36925604  MISS:     521614
DTLB PREFETCH  ACCESS:          0  HIT:          0  MISS:          0
DTLB WRITEBACK ACCESS:          0  HIT:          0  MISS:          0
DTLB PREFETCH  REQUESTED:          0  ISSUED:          0  USEFUL:          0  USELESS:          0
DTLB TOTAL MSHR MERGED:     453100
DTLB LOAD MSHR MERGED:     161620
DTLB RFO MSHR MERGED:     291480
DTLB PREFETCH MSHR MERGED:          0
DTLB WRITEBACK MSHR MERGED:          0
DTLB TOTAL ACCESSES:  155626823 HITS:  150261543 MISSES:    5365280
DTLB LOAD ACCESSES:  117888125 HITS:  113335939 MISSES:    4552186
DTLB RFO ACCESSES:   37738698 HITS:   36925604 MISSES:     813094
DTLB PREFETCH ACCESSES:          0 HITS:          0 MISSES:          0
DTLB WRITEBACK ACCESSES:          0 HITS:          0 MISSES:          0
DTLB RQ ACCESS:  205983496
DTLB RQ TO_CACHE:  155626823
DTLB RQ MERGED:   50356673
DTLB RQ FORWARD:          0
DTLB WQ ACCESS:          0
DTLB WQ TO_CACHE:          0
DTLB WQ MERGED:          0
DTLB WQ FORWARD:          0
L1D TOTAL     ACCESS:  277222547  HIT:  242399770  MISS:   34822777
L1D LOAD      ACCESS:  125430460  HIT:  107814010  MISS:   17616450
L1D RFO       ACCESS:   41140381  HIT:   38828534  MISS:    2311847
L1D PREFETCH  ACCESS:  110651706  HIT:   95757226  MISS:   14894480
L1D WRITEBACK ACCESS:          0  HIT:          0  MISS:          0
L1D PREFETCH  REQUESTED:  126281586  ISSUED:  124762326  USEFUL:    2728192  USELESS:   12166313
L1D TOTAL MSHR MERGED:    8483961
L1D LOAD MSHR MERGED:    1539464
L1D RFO MSHR MERGED:    3765294
L1D PREFETCH MSHR MERGED:    3179203
L1D WRITEBACK MSHR MERGED:          0
L1D TOTAL ACCESSES:  285793779 HITS:  242487040 MISSES:   43306739
L1D LOAD ACCESSES:  126281612 HITS:  107814036 MISSES:   18467576
L1D RFO ACCESSES:   44905176 HITS:   38828534 MISSES:    6076642
L1D PREFETCH ACCESSES:  114606991 HITS:   95844470 MISSES:   18762521
L1D WRITEBACK ACCESSES:          0 HITS:          0 MISSES:          0
L1D RQ ACCESS:  158436615
L1D RQ TO_CACHE:  126281586
L1D RQ MERGED:   32155003
L1D RQ FORWARD:          0
L1D WQ ACCESS:   47546882
L1D WQ TO_CACHE:   44905176
L1D WQ MERGED:    2641706
L1D WQ FORWARD:      87270
L1I TOTAL     ACCESS:  132831598  HIT:  132831598  MISS:          0
L1I LOAD      ACCESS:  132831598  HIT:  132831598  MISS:          0
L1I RFO       ACCESS:          0  HIT:          0  MISS:          0
L1I PREFETCH  ACCESS:          0  HIT:          0  MISS:          0
L1I WRITEBACK ACCESS:          0  HIT:          0  MISS:          0
L1I PREFETCH  REQUESTED:          0  ISSUED:          0  USEFUL:          0  USELESS:          0
L1I TOTAL MSHR MERGED:          0
L1I LOAD MSHR MERGED:          0
L1I RFO MSHR MERGED:          0
L1I PREFETCH MSHR MERGED:          0
L1I WRITEBACK MSHR MERGED:          0
L1I TOTAL ACCESSES:  132831598 HITS:  132831598 MISSES:          0
L1I LOAD ACCESSES:  132831598 HITS:  132831598 MISSES:          0
L1I RFO ACCESSES:          0 HITS:          0 MISSES:          0
L1I PREFETCH ACCESSES:          0 HITS:          0 MISSES:          0
L1I WRITEBACK ACCESSES:          0 HITS:          0 MISSES:          0
L1I RQ ACCESS:  499999980
L1I RQ TO_CACHE:  132831598
L1I RQ MERGED:  367168382
L1I RQ FORWARD:          0
L1I WQ ACCESS:          0
L1I WQ TO_CACHE:          0
L1I WQ MERGED:          0
L1I WQ FORWARD:          0
L2C TOTAL     ACCESS:   39592961  HIT:   20623348  MISS:   18969613
L2C LOAD      ACCESS:   16928051  HIT:    8567770  MISS:    8360281
L2C RFO       ACCESS:    2311300  HIT:     630813  MISS:    1680487
L2C PREFETCH  ACCESS:   17131160  HIT:    8206065  MISS:    8925095
L2C WRITEBACK ACCESS:    3222450  HIT:    3218700  MISS:       3750
L2C PREFETCH  REQUESTED:    2825703  ISSUED:    2825703  USEFUL:    1307236  USELESS:    7617588
L2C TOTAL MSHR MERGED:     505354
L2C LOAD MSHR MERGED:      74675
L2C RFO MSHR MERGED:          0
L2C PREFETCH MSHR MERGED:     430679
L2C WRITEBACK MSHR MERGED:          0
L2C TOTAL ACCESSES:   40179763 HITS:   20623508 MISSES:   19556255
L2C LOAD ACCESSES:   16928112 HITS:    8567831 MISSES:    8360281
L2C RFO ACCESSES:    2311348 HITS:     630861 MISSES:    1680487
L2C PREFETCH ACCESSES:   17717853 HITS:    8206116 MISSES:    9511737
L2C WRITEBACK ACCESSES:    3222450 HITS:    3218700 MISSES:       3750
L2C RQ ACCESS:   19239460
L2C RQ TO_CACHE:   19239351
L2C RQ MERGED:          0
L2C RQ FORWARD:          0
L2C WQ ACCESS:    3222450
L2C WQ TO_CACHE:    3222450
L2C WQ MERGED:          0
L2C WQ FORWARD:        160
LLC TOTAL     ACCESS:   21184493  HIT:   14687440  MISS:    6497053
LLC LOAD      ACCESS:    8285580  HIT:    5673135  MISS:    2612445
LLC RFO       ACCESS:    1680419  HIT:    1678800  MISS:       1619
LLC PREFETCH  ACCESS:    9042817  HIT:    5165297  MISS:    3877520
LLC WRITEBACK ACCESS:    2175677  HIT:    2170208  MISS:       5469
LLC PREFETCH  REQUESTED:          0  ISSUED:          0  USEFUL:     212131  USELESS:    3668937
LLC TOTAL MSHR MERGED:      32182
LLC LOAD MSHR MERGED:       9345
LLC RFO MSHR MERGED:          0
LLC PREFETCH MSHR MERGED:      22837
LLC WRITEBACK MSHR MERGED:          0
LLC TOTAL ACCESSES:   21216797 HITS:   14687561 MISSES:    6529236
LLC LOAD ACCESSES:    8285606 HITS:    5673161 MISSES:    2612445
LLC RFO ACCESSES:    1680487 HITS:    1678868 MISSES:       1619
LLC PREFETCH ACCESSES:    9075027 HITS:    5165324 MISSES:    3909703
LLC WRITEBACK ACCESSES:    2175677 HITS:    2170208 MISSES:       5469
LLC 0 RQ ACCESS:    9966093
LLC 0 RQ TO_CACHE:    9965999
LLC 0 RQ MERGED:          0
LLC 0 RQ FORWARD:          0
LLC WQ ACCESS:    2175678
LLC WQ TO_CACHE:    2175678
LLC WQ MERGED:          0
LLC WQ FORWARD:        121
Major fault: 0 Minor fault: 56391
CPU 0 L1D next line prefetcher final stats
CPU 0 L2C PC-based stride prefetcher final stats
All Misses: 7723135
All Hits: 16838201
SD Algo Stats - Switches: 0 SRR-Repls: 2749379 BRR-Repls: 0

DRAM Statistics
 CHANNEL 0
 RQ ROW_BUFFER_HIT:    4572366  ROW_BUFFER_MISS:    1918414
 DBUS_CONGESTED:    3056041
 WQ ROW_BUFFER_HIT:        338  ROW_BUFFER_MISS:      12969  FULL:          0

 AVG_CONGESTED_CYCLE: 13
LOADS RETIRED: 173631671
INSTR RETIRED: 500000000
