
*** ChampSim Multicore Out-of-Order Simulator ***

Warmup Instructions: 100000000
Simulation Instructions: 500000000
Number of CPUs: 1
LLC sets: 2048
LLC ways: 16
Clean RRIP Policies: 2200120222001202 Dirty RRIP Policies: 2200020222000202 PSEL Width: 10 Track Set: 4294967295 PSEL Mask: 1 Demote Mask: 441042104410421DS Algo: 0Window size: 0
Off-chip DRAM Size: 4096 MB Channels: 1 Width: 64-bit Data Rate: 1600 MT/s

CPU 0 runs /mnt/beegfs/iconst01/spec2017/Fotonik3d.trace.gz
NOT SORTED
TRACE STRING: /mnt/beegfs/iconst01/spec2017/Fotonik3d.trace.gz
SORTED
TRACE STRING: /mnt/beegfs/iconst01/spec2017/Fotonik3d.trace.gz
INITIAL
TRACE STRING: /mnt/beegfs/iconst01/spec2017/Fotonik3d.trace.gz

champsim_seed used: 881

CPU 0 L1D next line prefetcher
CPU 0 L2C IP-based stride prefetcher
Initialize DRRIP state
Assign rand_sets[0]: 454  LLC: 2048
rand_sets[0]: 454
Assign rand_sets[1]: 1662  LLC: 2048
rand_sets[1]: 1662
Assign rand_sets[2]: 1921  LLC: 2048
rand_sets[2]: 1921
Assign rand_sets[3]: 1131  LLC: 2048
rand_sets[3]: 1131
Assign rand_sets[4]: 331  LLC: 2048
rand_sets[4]: 331
Assign rand_sets[5]: 1531  LLC: 2048
rand_sets[5]: 1531
Assign rand_sets[6]: 482  LLC: 2048
rand_sets[6]: 482
Assign rand_sets[7]: 1275  LLC: 2048
rand_sets[7]: 1275
Assign rand_sets[8]: 1876  LLC: 2048
rand_sets[8]: 1876
Assign rand_sets[9]: 2038  LLC: 2048
rand_sets[9]: 2038
Assign rand_sets[10]: 701  LLC: 2048
rand_sets[10]: 701
Assign rand_sets[11]: 479  LLC: 2048
rand_sets[11]: 479
Assign rand_sets[12]: 892  LLC: 2048
rand_sets[12]: 892
Assign rand_sets[13]: 1820  LLC: 2048
rand_sets[13]: 1820
Assign rand_sets[14]: 1505  LLC: 2048
rand_sets[14]: 1505
Assign rand_sets[15]: 1159  LLC: 2048
rand_sets[15]: 1159
Assign rand_sets[16]: 513  LLC: 2048
rand_sets[16]: 513
Assign rand_sets[17]: 703  LLC: 2048
rand_sets[17]: 703
Assign rand_sets[18]: 561  LLC: 2048
rand_sets[18]: 561
Assign rand_sets[19]: 990  LLC: 2048
rand_sets[19]: 990
Assign rand_sets[20]: 342  LLC: 2048
rand_sets[20]: 342
Assign rand_sets[21]: 882  LLC: 2048
rand_sets[21]: 882
Assign rand_sets[22]: 15  LLC: 2048
rand_sets[22]: 15
Assign rand_sets[23]: 71  LLC: 2048
rand_sets[23]: 71
Assign rand_sets[24]: 1127  LLC: 2048
rand_sets[24]: 1127
Assign rand_sets[25]: 1382  LLC: 2048
rand_sets[25]: 1382
Assign rand_sets[26]: 647  LLC: 2048
rand_sets[26]: 647
Assign rand_sets[27]: 857  LLC: 2048
rand_sets[27]: 857
Assign rand_sets[28]: 1450  LLC: 2048
rand_sets[28]: 1450
Assign rand_sets[29]: 1160  LLC: 2048
rand_sets[29]: 1160
Assign rand_sets[30]: 1852  LLC: 2048
rand_sets[30]: 1852
Assign rand_sets[31]: 1881  LLC: 2048
rand_sets[31]: 1881
Assign rand_sets[32]: 1770  LLC: 2048
rand_sets[32]: 1770
Assign rand_sets[33]: 1622  LLC: 2048
rand_sets[33]: 1622
Assign rand_sets[34]: 275  LLC: 2048
rand_sets[34]: 275
Assign rand_sets[35]: 635  LLC: 2048
rand_sets[35]: 635
Assign rand_sets[36]: 466  LLC: 2048
rand_sets[36]: 466
Assign rand_sets[37]: 1413  LLC: 2048
rand_sets[37]: 1413
Assign rand_sets[38]: 417  LLC: 2048
rand_sets[38]: 417
Assign rand_sets[39]: 472  LLC: 2048
rand_sets[39]: 472
Assign rand_sets[40]: 1340  LLC: 2048
rand_sets[40]: 1340
Assign rand_sets[41]: 852  LLC: 2048
rand_sets[41]: 852
Assign rand_sets[42]: 1365  LLC: 2048
rand_sets[42]: 1365
Assign rand_sets[43]: 47  LLC: 2048
rand_sets[43]: 47
Assign rand_sets[44]: 823  LLC: 2048
rand_sets[44]: 823
Assign rand_sets[45]: 686  LLC: 2048
rand_sets[45]: 686
Assign rand_sets[46]: 1637  LLC: 2048
rand_sets[46]: 1637
Assign rand_sets[47]: 1115  LLC: 2048
rand_sets[47]: 1115
Assign rand_sets[48]: 986  LLC: 2048
rand_sets[48]: 986
Assign rand_sets[49]: 258  LLC: 2048
rand_sets[49]: 258
Assign rand_sets[50]: 633  LLC: 2048
rand_sets[50]: 633
Assign rand_sets[51]: 920  LLC: 2048
rand_sets[51]: 920
Assign rand_sets[52]: 204  LLC: 2048
rand_sets[52]: 204
Assign rand_sets[53]: 227  LLC: 2048
rand_sets[53]: 227
Assign rand_sets[54]: 1818  LLC: 2048
rand_sets[54]: 1818
Assign rand_sets[55]: 886  LLC: 2048
rand_sets[55]: 886
Assign rand_sets[56]: 1422  LLC: 2048
rand_sets[56]: 1422
Assign rand_sets[57]: 607  LLC: 2048
rand_sets[57]: 607
Assign rand_sets[58]: 217  LLC: 2048
rand_sets[58]: 217
Assign rand_sets[59]: 1945  LLC: 2048
rand_sets[59]: 1945
Assign rand_sets[60]: 143  LLC: 2048
rand_sets[60]: 143
Assign rand_sets[61]: 1311  LLC: 2048
rand_sets[61]: 1311
Assign rand_sets[62]: 319  LLC: 2048
rand_sets[62]: 319
Assign rand_sets[63]: 1846  LLC: 2048
rand_sets[63]: 1846
 CLEAN-RRIP-POLICY-1: 2-2-0-0-1-2-0-2- CLEAN-RRIP-POLICY-2: 2-2-0-0-1-2-0-2-
 DIRTY-RRIP-POLICY-1: 2-2-0-0-0-2-0-2- DIRTY-RRIP-POLICY-2: 2-2-0-0-0-2-0-2-
 PSEL width: 10
Heartbeat CPU 0 instructions: 10000002 cycles: 7306876 heartbeat IPC: 1.36857 cumulative IPC: 1.36857 (Simulation time: 0 hr 0 min 24 sec) 
Heartbeat CPU 0 instructions: 20000000 cycles: 14613981 heartbeat IPC: 1.36853 cumulative IPC: 1.36855 (Simulation time: 0 hr 0 min 48 sec) 
Heartbeat CPU 0 instructions: 30000001 cycles: 21920950 heartbeat IPC: 1.36856 cumulative IPC: 1.36855 (Simulation time: 0 hr 1 min 12 sec) 
Heartbeat CPU 0 instructions: 40000000 cycles: 29227794 heartbeat IPC: 1.36858 cumulative IPC: 1.36856 (Simulation time: 0 hr 1 min 36 sec) 
Heartbeat CPU 0 instructions: 50000001 cycles: 36534578 heartbeat IPC: 1.36859 cumulative IPC: 1.36857 (Simulation time: 0 hr 2 min 0 sec) 
Heartbeat CPU 0 instructions: 60000000 cycles: 43841650 heartbeat IPC: 1.36854 cumulative IPC: 1.36856 (Simulation time: 0 hr 2 min 25 sec) 
Heartbeat CPU 0 instructions: 70000002 cycles: 51148511 heartbeat IPC: 1.36858 cumulative IPC: 1.36856 (Simulation time: 0 hr 2 min 49 sec) 
Heartbeat CPU 0 instructions: 80000000 cycles: 58455324 heartbeat IPC: 1.36859 cumulative IPC: 1.36857 (Simulation time: 0 hr 3 min 13 sec) 
Heartbeat CPU 0 instructions: 90000003 cycles: 65765981 heartbeat IPC: 1.36787 cumulative IPC: 1.36849 (Simulation time: 0 hr 3 min 37 sec) 
Heartbeat CPU 0 instructions: 100000000 cycles: 73076674 heartbeat IPC: 1.36786 cumulative IPC: 1.36843 (Simulation time: 0 hr 4 min 2 sec) 

Warmup complete CPU 0 instructions: 100000002 cycles: 73076686 (Simulation time: 0 hr 4 min 2 sec) 

Heartbeat CPU 0 instructions: 110000001 cycles: 85605638 heartbeat IPC: 0.798151 cumulative IPC: 0.798151 (Simulation time: 0 hr 4 min 31 sec) 
Heartbeat CPU 0 instructions: 120000000 cycles: 98096385 heartbeat IPC: 0.800593 cumulative IPC: 0.79937 (Simulation time: 0 hr 5 min 0 sec) 
Heartbeat CPU 0 instructions: 130000000 cycles: 110640075 heartbeat IPC: 0.797214 cumulative IPC: 0.79865 (Simulation time: 0 hr 5 min 29 sec) 
Heartbeat CPU 0 instructions: 140000000 cycles: 123158070 heartbeat IPC: 0.79885 cumulative IPC: 0.7987 (Simulation time: 0 hr 5 min 57 sec) 
Heartbeat CPU 0 instructions: 150000000 cycles: 135626531 heartbeat IPC: 0.802024 cumulative IPC: 0.799362 (Simulation time: 0 hr 6 min 26 sec) 
Heartbeat CPU 0 instructions: 160000000 cycles: 148137968 heartbeat IPC: 0.799269 cumulative IPC: 0.799347 (Simulation time: 0 hr 6 min 55 sec) 
Heartbeat CPU 0 instructions: 170000001 cycles: 160654419 heartbeat IPC: 0.798949 cumulative IPC: 0.79929 (Simulation time: 0 hr 7 min 23 sec) 
Heartbeat CPU 0 instructions: 180000000 cycles: 173177590 heartbeat IPC: 0.79852 cumulative IPC: 0.799194 (Simulation time: 0 hr 7 min 52 sec) 
Heartbeat CPU 0 instructions: 190000000 cycles: 185723001 heartbeat IPC: 0.797104 cumulative IPC: 0.798961 (Simulation time: 0 hr 8 min 21 sec) 
Heartbeat CPU 0 instructions: 200000000 cycles: 198232975 heartbeat IPC: 0.799362 cumulative IPC: 0.799001 (Simulation time: 0 hr 8 min 50 sec) 
Heartbeat CPU 0 instructions: 210000002 cycles: 210790363 heartbeat IPC: 0.796344 cumulative IPC: 0.798759 (Simulation time: 0 hr 9 min 19 sec) 
Heartbeat CPU 0 instructions: 220000000 cycles: 223333268 heartbeat IPC: 0.797263 cumulative IPC: 0.798634 (Simulation time: 0 hr 9 min 48 sec) 
Heartbeat CPU 0 instructions: 230000002 cycles: 235840679 heartbeat IPC: 0.799526 cumulative IPC: 0.798702 (Simulation time: 0 hr 10 min 16 sec) 
Heartbeat CPU 0 instructions: 240000000 cycles: 248952409 heartbeat IPC: 0.762676 cumulative IPC: 0.796017 (Simulation time: 0 hr 10 min 45 sec) 
Heartbeat CPU 0 instructions: 250000001 cycles: 266803293 heartbeat IPC: 0.560196 cumulative IPC: 0.774287 (Simulation time: 0 hr 11 min 17 sec) 
Heartbeat CPU 0 instructions: 260000000 cycles: 284647745 heartbeat IPC: 0.560398 cumulative IPC: 0.756247 (Simulation time: 0 hr 11 min 48 sec) 
Heartbeat CPU 0 instructions: 270000000 cycles: 302589269 heartbeat IPC: 0.557366 cumulative IPC: 0.7407 (Simulation time: 0 hr 12 min 19 sec) 
Heartbeat CPU 0 instructions: 280000000 cycles: 320494770 heartbeat IPC: 0.558488 cumulative IPC: 0.727513 (Simulation time: 0 hr 12 min 51 sec) 
Heartbeat CPU 0 instructions: 290000000 cycles: 349829211 heartbeat IPC: 0.340896 cumulative IPC: 0.686534 (Simulation time: 0 hr 13 min 30 sec) 
Heartbeat CPU 0 instructions: 300000000 cycles: 388521726 heartbeat IPC: 0.258448 cumulative IPC: 0.634025 (Simulation time: 0 hr 14 min 14 sec) 
Heartbeat CPU 0 instructions: 310000000 cycles: 405798225 heartbeat IPC: 0.578821 cumulative IPC: 0.631158 (Simulation time: 0 hr 14 min 45 sec) 
Heartbeat CPU 0 instructions: 320000000 cycles: 423025463 heartbeat IPC: 0.580476 cumulative IPC: 0.628663 (Simulation time: 0 hr 15 min 15 sec) 
Heartbeat CPU 0 instructions: 330000003 cycles: 440322414 heartbeat IPC: 0.578137 cumulative IPC: 0.626284 (Simulation time: 0 hr 15 min 45 sec) 
Heartbeat CPU 0 instructions: 340000000 cycles: 457591181 heartbeat IPC: 0.57908 cumulative IPC: 0.624164 (Simulation time: 0 hr 16 min 16 sec) 
Heartbeat CPU 0 instructions: 350000001 cycles: 473074905 heartbeat IPC: 0.64584 cumulative IPC: 0.625003 (Simulation time: 0 hr 16 min 45 sec) 
Heartbeat CPU 0 instructions: 360000000 cycles: 485070046 heartbeat IPC: 0.833671 cumulative IPC: 0.631078 (Simulation time: 0 hr 17 min 11 sec) 
Heartbeat CPU 0 instructions: 370000002 cycles: 496900582 heartbeat IPC: 0.84527 cumulative IPC: 0.637057 (Simulation time: 0 hr 17 min 37 sec) 
Heartbeat CPU 0 instructions: 380000000 cycles: 508888403 heartbeat IPC: 0.83418 cumulative IPC: 0.642479 (Simulation time: 0 hr 18 min 4 sec) 
Heartbeat CPU 0 instructions: 390000003 cycles: 522285813 heartbeat IPC: 0.746413 cumulative IPC: 0.645579 (Simulation time: 0 hr 18 min 31 sec) 
Heartbeat CPU 0 instructions: 400000000 cycles: 534648933 heartbeat IPC: 0.808857 cumulative IPC: 0.649952 (Simulation time: 0 hr 18 min 58 sec) 
Heartbeat CPU 0 instructions: 410000003 cycles: 546746363 heartbeat IPC: 0.826622 cumulative IPC: 0.654465 (Simulation time: 0 hr 19 min 25 sec) 
Heartbeat CPU 0 instructions: 420000000 cycles: 559542903 heartbeat IPC: 0.781461 cumulative IPC: 0.657805 (Simulation time: 0 hr 19 min 51 sec) 
Heartbeat CPU 0 instructions: 430000003 cycles: 577523419 heartbeat IPC: 0.556158 cumulative IPC: 0.654182 (Simulation time: 0 hr 20 min 15 sec) 
Heartbeat CPU 0 instructions: 440000000 cycles: 596320461 heartbeat IPC: 0.531998 cumulative IPC: 0.649793 (Simulation time: 0 hr 20 min 39 sec) 
Heartbeat CPU 0 instructions: 450000003 cycles: 615092160 heartbeat IPC: 0.532717 cumulative IPC: 0.645738 (Simulation time: 0 hr 21 min 4 sec) 
Heartbeat CPU 0 instructions: 460000000 cycles: 633873615 heartbeat IPC: 0.53244 cumulative IPC: 0.641944 (Simulation time: 0 hr 21 min 28 sec) 
Heartbeat CPU 0 instructions: 470000003 cycles: 652651430 heartbeat IPC: 0.532543 cumulative IPC: 0.638399 (Simulation time: 0 hr 21 min 53 sec) 
Heartbeat CPU 0 instructions: 480000000 cycles: 671416498 heartbeat IPC: 0.532905 cumulative IPC: 0.635091 (Simulation time: 0 hr 22 min 17 sec) 
Heartbeat CPU 0 instructions: 490000003 cycles: 690204939 heartbeat IPC: 0.532242 cumulative IPC: 0.631959 (Simulation time: 0 hr 22 min 41 sec) 
Heartbeat CPU 0 instructions: 500000000 cycles: 708988086 heartbeat IPC: 0.532392 cumulative IPC: 0.629018 (Simulation time: 0 hr 23 min 6 sec) 
Heartbeat CPU 0 instructions: 510000003 cycles: 727752578 heartbeat IPC: 0.532922 cumulative IPC: 0.626264 (Simulation time: 0 hr 23 min 30 sec) 
Heartbeat CPU 0 instructions: 520000000 cycles: 746530745 heartbeat IPC: 0.532533 cumulative IPC: 0.623651 (Simulation time: 0 hr 23 min 55 sec) 
Heartbeat CPU 0 instructions: 530000001 cycles: 765340270 heartbeat IPC: 0.531646 cumulative IPC: 0.621151 (Simulation time: 0 hr 24 min 19 sec) 
Heartbeat CPU 0 instructions: 540000000 cycles: 784078465 heartbeat IPC: 0.533669 cumulative IPC: 0.618845 (Simulation time: 0 hr 24 min 43 sec) 
Heartbeat CPU 0 instructions: 550000001 cycles: 802797966 heartbeat IPC: 0.534202 cumulative IPC: 0.616674 (Simulation time: 0 hr 25 min 8 sec) 
Heartbeat CPU 0 instructions: 560000000 cycles: 821549628 heartbeat IPC: 0.533286 cumulative IPC: 0.614585 (Simulation time: 0 hr 25 min 32 sec) 
Heartbeat CPU 0 instructions: 570000001 cycles: 840276409 heartbeat IPC: 0.533995 cumulative IPC: 0.612618 (Simulation time: 0 hr 25 min 57 sec) 
Heartbeat CPU 0 instructions: 580000000 cycles: 859027436 heartbeat IPC: 0.533304 cumulative IPC: 0.610725 (Simulation time: 0 hr 26 min 21 sec) 
Heartbeat CPU 0 instructions: 590000001 cycles: 877774162 heartbeat IPC: 0.533427 cumulative IPC: 0.608925 (Simulation time: 0 hr 26 min 45 sec) 
Heartbeat CPU 0 instructions: 600000000 cycles: 896495884 heartbeat IPC: 0.534139 cumulative IPC: 0.607224 (Simulation time: 0 hr 27 min 10 sec) 
Finished CPU 0 instructions: 500000002 cycles: 823419212 cumulative IPC: 0.607224 (Simulation time: 0 hr 27 min 10 sec) 

CPU 0 Branch Prediction Accuracy: 99.5931% MPKI: 0.08288
Number of Branches: 10184133 Number of Mispredictions: 41440
Number of LOAD Instructions: 261155957
Number of LOAD Instructions (ROI): 261155957
Number of STORE Instructions: 57884062
Number of STORE Instructions (ROI): 57884062
Total Destination Memory Operands: 83293336
Total Destination Memory Operands (ROI): 83293336
Total Source Memory Operands: 261155957
Total Source Memory Operands (ROI): 261155957
Number of DEPENDED LOADS: 22257067
Number of DEPENDED LOADS (ROI): 22257067
Number of SQ_ADDED: 83293300
Number of SQ_ADDED (ROI): 83293300
Number of LQ_ADDED: 1779517536
Number of LQ_ADDED (ROI): 1779517536
Number of Instructions read from trace: 600000257

ChampSim completed all CPUs

Region of Interest Statistics

CPU 0 cumulative IPC: 0.607224 instructions: 500000002 cycles: 823419212
ITLB TOTAL     ACCESS:   94849091  HIT:   94849053  MISS:         38
ITLB LOAD      ACCESS:   94849091  HIT:   94849053  MISS:         38
ITLB RFO       ACCESS:          0  HIT:          0  MISS:          0
ITLB PREFETCH  ACCESS:          0  HIT:          0  MISS:          0
ITLB WRITEBACK ACCESS:          0  HIT:          0  MISS:          0
ITLB PREFETCH  REQUESTED:          0  ISSUED:          0  USEFUL:          0  USELESS:          0
ITLB TOTAL MSHR MERGED:         93
ITLB LOAD MSHR MERGED:         93
ITLB RFO MSHR MERGED:          0
ITLB PREFETCH MSHR MERGED:          0
ITLB WRITEBACK MSHR MERGED:          0
ITLB TOTAL ACCESSES:   94849184 HITS:   94849053 MISSES:        131
ITLB LOAD ACCESSES:   94849184 HITS:   94849053 MISSES:        131
ITLB RFO ACCESSES:          0 HITS:          0 MISSES:          0
ITLB PREFETCH ACCESSES:          0 HITS:          0 MISSES:          0
ITLB WRITEBACK ACCESSES:          0 HITS:          0 MISSES:          0
ITLB RQ ACCESS:  500000001
ITLB RQ TO_CACHE:   94849185
ITLB RQ MERGED:  405150816
ITLB RQ FORWARD:          0
ITLB WQ ACCESS:          0
ITLB WQ TO_CACHE:          0
ITLB WQ MERGED:          0
ITLB WQ FORWARD:          0
DTLB TOTAL     ACCESS:  149232812  HIT:  148635853  MISS:     596959
DTLB LOAD      ACCESS:  107358837  HIT:  106761889  MISS:     596948
DTLB RFO       ACCESS:   41873975  HIT:   41873964  MISS:         11
DTLB PREFETCH  ACCESS:          0  HIT:          0  MISS:          0
DTLB WRITEBACK ACCESS:          0  HIT:          0  MISS:          0
DTLB PREFETCH  REQUESTED:          0  ISSUED:          0  USEFUL:          0  USELESS:          0
DTLB TOTAL MSHR MERGED:     134052
DTLB LOAD MSHR MERGED:     134052
DTLB RFO MSHR MERGED:          0
DTLB PREFETCH MSHR MERGED:          0
DTLB WRITEBACK MSHR MERGED:          0
DTLB TOTAL ACCESSES:  149366864 HITS:  148635853 MISSES:     731011
DTLB LOAD ACCESSES:  107492889 HITS:  106761889 MISSES:     731000
DTLB RFO ACCESSES:   41873975 HITS:   41873964 MISSES:         11
DTLB PREFETCH ACCESSES:          0 HITS:          0 MISSES:          0
DTLB WRITEBACK ACCESSES:          0 HITS:          0 MISSES:          0
DTLB RQ ACCESS:  259758828
DTLB RQ TO_CACHE:  149366864
DTLB RQ MERGED:  110391964
DTLB RQ FORWARD:          0
DTLB WQ ACCESS:          0
DTLB WQ TO_CACHE:          0
DTLB WQ MERGED:          0
DTLB WQ FORWARD:          0
L1D TOTAL     ACCESS:  261916114  HIT:  246417049  MISS:   15499065
L1D LOAD      ACCESS:  118091642  HIT:  112666193  MISS:    5425449
L1D RFO       ACCESS:   68946702  HIT:   68932293  MISS:      14409
L1D PREFETCH  ACCESS:   74877770  HIT:   64818563  MISS:   10059207
L1D WRITEBACK ACCESS:          0  HIT:          0  MISS:          0
L1D PREFETCH  REQUESTED:  120665329  ISSUED:  119454105  USEFUL:    8087213  USELESS:    1972016
L1D TOTAL MSHR MERGED:   16237235
L1D LOAD MSHR MERGED:    4954242
L1D RFO MSHR MERGED:      21878
L1D PREFETCH MSHR MERGED:   11261115
L1D WRITEBACK MSHR MERGED:          0
L1D TOTAL ACCESSES:  278263422 HITS:  246527122 MISSES:   31736300
L1D LOAD ACCESSES:  120672861 HITS:  112673725 MISSES:    7999136
L1D RFO ACCESSES:   68968579 HITS:   68932293 MISSES:      36286
L1D PREFETCH ACCESSES:   88621982 HITS:   64921104 MISSES:   23700878
L1D WRITEBACK ACCESSES:          0 HITS:          0 MISSES:          0
L1D RQ ACCESS:  190684512
L1D RQ TO_CACHE:  120665329
L1D RQ MERGED:   70011651
L1D RQ FORWARD:          0
L1D WQ ACCESS:   69074336
L1D WQ TO_CACHE:   68968581
L1D WQ MERGED:     105755
L1D WQ FORWARD:     110073
L1I TOTAL     ACCESS:  121725592  HIT:  121724519  MISS:       1073
L1I LOAD      ACCESS:  121725592  HIT:  121724519  MISS:       1073
L1I RFO       ACCESS:          0  HIT:          0  MISS:          0
L1I PREFETCH  ACCESS:          0  HIT:          0  MISS:          0
L1I WRITEBACK ACCESS:          0  HIT:          0  MISS:          0
L1I PREFETCH  REQUESTED:          0  ISSUED:          0  USEFUL:          0  USELESS:          0
L1I TOTAL MSHR MERGED:       1087
L1I LOAD MSHR MERGED:       1087
L1I RFO MSHR MERGED:          0
L1I PREFETCH MSHR MERGED:          0
L1I WRITEBACK MSHR MERGED:          0
L1I TOTAL ACCESSES:  121726679 HITS:  121724519 MISSES:       2160
L1I LOAD ACCESSES:  121726679 HITS:  121724519 MISSES:       2160
L1I RFO ACCESSES:          0 HITS:          0 MISSES:          0
L1I PREFETCH ACCESSES:          0 HITS:          0 MISSES:          0
L1I WRITEBACK ACCESSES:          0 HITS:          0 MISSES:          0
L1I RQ ACCESS:  500000000
L1I RQ TO_CACHE:  121726679
L1I RQ MERGED:  378273321
L1I RQ FORWARD:          0
L1I WQ ACCESS:          0
L1I WQ TO_CACHE:          0
L1I WQ MERGED:          0
L1I WQ FORWARD:          0
L2C TOTAL     ACCESS:   22482737  HIT:    9062602  MISS:   13420135
L2C LOAD      ACCESS:    3045941  HIT:     365000  MISS:    2680941
L2C RFO       ACCESS:      14408  HIT:      13991  MISS:        417
L2C PREFETCH  ACCESS:   12792435  HIT:    2055460  MISS:   10736975
L2C WRITEBACK ACCESS:    6629953  HIT:    6628151  MISS:       1802
L2C PREFETCH  REQUESTED:     547977  ISSUED:     547977  USEFUL:     147065  USELESS:   10590713
L2C TOTAL MSHR MERGED:      51703
L2C LOAD MSHR MERGED:      18445
L2C RFO MSHR MERGED:          0
L2C PREFETCH MSHR MERGED:      33258
L2C WRITEBACK MSHR MERGED:          0
L2C TOTAL ACCESSES:   22646476 HITS:    9062638 MISSES:   13583838
L2C LOAD ACCESSES:    3045967 HITS:     365026 MISSES:    2680941
L2C RFO ACCESSES:      14408 HITS:      13991 MISSES:        417
L2C PREFETCH ACCESSES:   12956148 HITS:    2055470 MISSES:   10900678
L2C WRITEBACK ACCESSES:    6629953 HITS:    6628151 MISSES:       1802
L2C RQ ACCESS:    3060375
L2C RQ TO_CACHE:    3060349
L2C RQ MERGED:          0
L2C RQ FORWARD:          0
L2C WQ ACCESS:    6629953
L2C WQ TO_CACHE:    6629953
L2C WQ MERGED:          0
L2C WQ FORWARD:         36
LLC TOTAL     ACCESS:   20106004  HIT:    6902081  MISS:   13203923
LLC LOAD      ACCESS:    2662496  HIT:     197350  MISS:    2465146
LLC RFO       ACCESS:        417  HIT:         12  MISS:        405
LLC PREFETCH  ACCESS:   10851805  HIT:     701885  MISS:   10149920
LLC WRITEBACK ACCESS:    6591286  HIT:    6002834  MISS:     588452
LLC PREFETCH  REQUESTED:          0  ISSUED:          0  USEFUL:      68695  USELESS:   10086648
LLC TOTAL MSHR MERGED:      14506
LLC LOAD MSHR MERGED:       7519
LLC RFO MSHR MERGED:          0
LLC PREFETCH MSHR MERGED:       6987
LLC WRITEBACK MSHR MERGED:          0
LLC TOTAL ACCESSES:   20120511 HITS:    6902081 MISSES:   13218430
LLC LOAD ACCESSES:    2662496 HITS:     197350 MISSES:    2465146
LLC RFO ACCESSES:        417 HITS:         12 MISSES:        405
LLC PREFETCH ACCESSES:   10866312 HITS:     701885 MISSES:   10164427
LLC WRITEBACK ACCESSES:    6591286 HITS:    6002834 MISSES:     588452
LLC 0 RQ ACCESS:    2662913
LLC 0 RQ TO_CACHE:    2662913
LLC 0 RQ MERGED:          0
LLC 0 RQ FORWARD:          0
LLC WQ ACCESS:    6591287
LLC WQ TO_CACHE:    6591287
LLC WQ MERGED:          0
LLC WQ FORWARD:          0
Major fault: 0 Minor fault: 183991
CPU 0 L1D next line prefetcher final stats
CPU 0 L2C PC-based stride prefetcher final stats
All Misses: 15484062
All Hits: 7552988
SD Algo Stats - Switches: 210 SRR-Repls: 2253097 BRR-Repls: 273091

DRAM Statistics
 CHANNEL 0
 RQ ROW_BUFFER_HIT:    7115552  ROW_BUFFER_MISS:    5499917
 DBUS_CONGESTED:   10899007
 WQ ROW_BUFFER_HIT:    1131348  ROW_BUFFER_MISS:    5431497  FULL:          0

 AVG_CONGESTED_CYCLE: 13
LOADS RETIRED: 204440772
INSTR RETIRED: 500000000
