
*** ChampSim Multicore Out-of-Order Simulator ***

Warmup Instructions: 100000000
Simulation Instructions: 500000000
Number of CPUs: 1
LLC sets: 2048
LLC ways: 16
Clean RRIP Policies: 2200120222001202 Dirty RRIP Policies: 2200020222000202 PSEL Width: 10 Track Set: 4294967295 PSEL Mask: 1 Demote Mask: 441042104410421DS Algo: 0Window size: 0
Off-chip DRAM Size: 4096 MB Channels: 1 Width: 64-bit Data Rate: 1600 MT/s

CPU 0 runs /mnt/beegfs/iconst01/spec2017/Xalancbmk.trace.gz
NOT SORTED
TRACE STRING: /mnt/beegfs/iconst01/spec2017/Xalancbmk.trace.gz
SORTED
TRACE STRING: /mnt/beegfs/iconst01/spec2017/Xalancbmk.trace.gz
INITIAL
TRACE STRING: /mnt/beegfs/iconst01/spec2017/Xalancbmk.trace.gz

champsim_seed used: 913

CPU 0 L1D next line prefetcher
CPU 0 L2C IP-based stride prefetcher
Initialize DRRIP state
Assign rand_sets[0]: 454  LLC: 2048
rand_sets[0]: 454
Assign rand_sets[1]: 1662  LLC: 2048
rand_sets[1]: 1662
Assign rand_sets[2]: 1921  LLC: 2048
rand_sets[2]: 1921
Assign rand_sets[3]: 1131  LLC: 2048
rand_sets[3]: 1131
Assign rand_sets[4]: 331  LLC: 2048
rand_sets[4]: 331
Assign rand_sets[5]: 1531  LLC: 2048
rand_sets[5]: 1531
Assign rand_sets[6]: 482  LLC: 2048
rand_sets[6]: 482
Assign rand_sets[7]: 1275  LLC: 2048
rand_sets[7]: 1275
Assign rand_sets[8]: 1876  LLC: 2048
rand_sets[8]: 1876
Assign rand_sets[9]: 2038  LLC: 2048
rand_sets[9]: 2038
Assign rand_sets[10]: 701  LLC: 2048
rand_sets[10]: 701
Assign rand_sets[11]: 479  LLC: 2048
rand_sets[11]: 479
Assign rand_sets[12]: 892  LLC: 2048
rand_sets[12]: 892
Assign rand_sets[13]: 1820  LLC: 2048
rand_sets[13]: 1820
Assign rand_sets[14]: 1505  LLC: 2048
rand_sets[14]: 1505
Assign rand_sets[15]: 1159  LLC: 2048
rand_sets[15]: 1159
Assign rand_sets[16]: 513  LLC: 2048
rand_sets[16]: 513
Assign rand_sets[17]: 703  LLC: 2048
rand_sets[17]: 703
Assign rand_sets[18]: 561  LLC: 2048
rand_sets[18]: 561
Assign rand_sets[19]: 990  LLC: 2048
rand_sets[19]: 990
Assign rand_sets[20]: 342  LLC: 2048
rand_sets[20]: 342
Assign rand_sets[21]: 882  LLC: 2048
rand_sets[21]: 882
Assign rand_sets[22]: 15  LLC: 2048
rand_sets[22]: 15
Assign rand_sets[23]: 71  LLC: 2048
rand_sets[23]: 71
Assign rand_sets[24]: 1127  LLC: 2048
rand_sets[24]: 1127
Assign rand_sets[25]: 1382  LLC: 2048
rand_sets[25]: 1382
Assign rand_sets[26]: 647  LLC: 2048
rand_sets[26]: 647
Assign rand_sets[27]: 857  LLC: 2048
rand_sets[27]: 857
Assign rand_sets[28]: 1450  LLC: 2048
rand_sets[28]: 1450
Assign rand_sets[29]: 1160  LLC: 2048
rand_sets[29]: 1160
Assign rand_sets[30]: 1852  LLC: 2048
rand_sets[30]: 1852
Assign rand_sets[31]: 1881  LLC: 2048
rand_sets[31]: 1881
Assign rand_sets[32]: 1770  LLC: 2048
rand_sets[32]: 1770
Assign rand_sets[33]: 1622  LLC: 2048
rand_sets[33]: 1622
Assign rand_sets[34]: 275  LLC: 2048
rand_sets[34]: 275
Assign rand_sets[35]: 635  LLC: 2048
rand_sets[35]: 635
Assign rand_sets[36]: 466  LLC: 2048
rand_sets[36]: 466
Assign rand_sets[37]: 1413  LLC: 2048
rand_sets[37]: 1413
Assign rand_sets[38]: 417  LLC: 2048
rand_sets[38]: 417
Assign rand_sets[39]: 472  LLC: 2048
rand_sets[39]: 472
Assign rand_sets[40]: 1340  LLC: 2048
rand_sets[40]: 1340
Assign rand_sets[41]: 852  LLC: 2048
rand_sets[41]: 852
Assign rand_sets[42]: 1365  LLC: 2048
rand_sets[42]: 1365
Assign rand_sets[43]: 47  LLC: 2048
rand_sets[43]: 47
Assign rand_sets[44]: 823  LLC: 2048
rand_sets[44]: 823
Assign rand_sets[45]: 686  LLC: 2048
rand_sets[45]: 686
Assign rand_sets[46]: 1637  LLC: 2048
rand_sets[46]: 1637
Assign rand_sets[47]: 1115  LLC: 2048
rand_sets[47]: 1115
Assign rand_sets[48]: 986  LLC: 2048
rand_sets[48]: 986
Assign rand_sets[49]: 258  LLC: 2048
rand_sets[49]: 258
Assign rand_sets[50]: 633  LLC: 2048
rand_sets[50]: 633
Assign rand_sets[51]: 920  LLC: 2048
rand_sets[51]: 920
Assign rand_sets[52]: 204  LLC: 2048
rand_sets[52]: 204
Assign rand_sets[53]: 227  LLC: 2048
rand_sets[53]: 227
Assign rand_sets[54]: 1818  LLC: 2048
rand_sets[54]: 1818
Assign rand_sets[55]: 886  LLC: 2048
rand_sets[55]: 886
Assign rand_sets[56]: 1422  LLC: 2048
rand_sets[56]: 1422
Assign rand_sets[57]: 607  LLC: 2048
rand_sets[57]: 607
Assign rand_sets[58]: 217  LLC: 2048
rand_sets[58]: 217
Assign rand_sets[59]: 1945  LLC: 2048
rand_sets[59]: 1945
Assign rand_sets[60]: 143  LLC: 2048
rand_sets[60]: 143
Assign rand_sets[61]: 1311  LLC: 2048
rand_sets[61]: 1311
Assign rand_sets[62]: 319  LLC: 2048
rand_sets[62]: 319
Assign rand_sets[63]: 1846  LLC: 2048
rand_sets[63]: 1846
 CLEAN-RRIP-POLICY-1: 2-2-0-0-1-2-0-2- CLEAN-RRIP-POLICY-2: 2-2-0-0-1-2-0-2-
 DIRTY-RRIP-POLICY-1: 2-2-0-0-0-2-0-2- DIRTY-RRIP-POLICY-2: 2-2-0-0-0-2-0-2-
 PSEL width: 10
Heartbeat CPU 0 instructions: 10000003 cycles: 4612463 heartbeat IPC: 2.16804 cumulative IPC: 2.16804 (Simulation time: 0 hr 0 min 15 sec) 
Heartbeat CPU 0 instructions: 20000000 cycles: 9063936 heartbeat IPC: 2.24645 cumulative IPC: 2.20655 (Simulation time: 0 hr 0 min 28 sec) 
Heartbeat CPU 0 instructions: 30000000 cycles: 13525428 heartbeat IPC: 2.2414 cumulative IPC: 2.21804 (Simulation time: 0 hr 0 min 42 sec) 
Heartbeat CPU 0 instructions: 40000000 cycles: 18181706 heartbeat IPC: 2.14764 cumulative IPC: 2.20001 (Simulation time: 0 hr 0 min 58 sec) 
Heartbeat CPU 0 instructions: 50000002 cycles: 22647823 heartbeat IPC: 2.23908 cumulative IPC: 2.20772 (Simulation time: 0 hr 1 min 11 sec) 
Heartbeat CPU 0 instructions: 60000000 cycles: 27339031 heartbeat IPC: 2.13165 cumulative IPC: 2.19466 (Simulation time: 0 hr 1 min 27 sec) 
Heartbeat CPU 0 instructions: 70000003 cycles: 31790800 heartbeat IPC: 2.2463 cumulative IPC: 2.20189 (Simulation time: 0 hr 1 min 41 sec) 
Heartbeat CPU 0 instructions: 80000000 cycles: 36264750 heartbeat IPC: 2.23516 cumulative IPC: 2.206 (Simulation time: 0 hr 1 min 55 sec) 
Heartbeat CPU 0 instructions: 90000002 cycles: 40770342 heartbeat IPC: 2.21946 cumulative IPC: 2.20749 (Simulation time: 0 hr 2 min 9 sec) 
Heartbeat CPU 0 instructions: 100000000 cycles: 45290183 heartbeat IPC: 2.21247 cumulative IPC: 2.20798 (Simulation time: 0 hr 2 min 23 sec) 

Warmup complete CPU 0 instructions: 100000003 cycles: 45290184 (Simulation time: 0 hr 2 min 23 sec) 

Heartbeat CPU 0 instructions: 110000000 cycles: 74534747 heartbeat IPC: 0.341944 cumulative IPC: 0.341944 (Simulation time: 0 hr 2 min 54 sec) 
Heartbeat CPU 0 instructions: 120000000 cycles: 108219299 heartbeat IPC: 0.296872 cumulative IPC: 0.317818 (Simulation time: 0 hr 3 min 28 sec) 
Heartbeat CPU 0 instructions: 130000000 cycles: 133743487 heartbeat IPC: 0.391785 cumulative IPC: 0.339162 (Simulation time: 0 hr 3 min 57 sec) 
Heartbeat CPU 0 instructions: 140000000 cycles: 157989409 heartbeat IPC: 0.41244 cumulative IPC: 0.354927 (Simulation time: 0 hr 4 min 25 sec) 
Heartbeat CPU 0 instructions: 150000000 cycles: 184109532 heartbeat IPC: 0.382847 cumulative IPC: 0.36018 (Simulation time: 0 hr 4 min 54 sec) 
Heartbeat CPU 0 instructions: 160000000 cycles: 211033612 heartbeat IPC: 0.371415 cumulative IPC: 0.362005 (Simulation time: 0 hr 5 min 24 sec) 
Heartbeat CPU 0 instructions: 170000002 cycles: 234403624 heartbeat IPC: 0.427899 cumulative IPC: 0.370148 (Simulation time: 0 hr 5 min 51 sec) 
Heartbeat CPU 0 instructions: 180000000 cycles: 258390620 heartbeat IPC: 0.416892 cumulative IPC: 0.37541 (Simulation time: 0 hr 6 min 18 sec) 
Heartbeat CPU 0 instructions: 190000000 cycles: 279439397 heartbeat IPC: 0.475087 cumulative IPC: 0.38437 (Simulation time: 0 hr 6 min 44 sec) 
Heartbeat CPU 0 instructions: 200000000 cycles: 302044770 heartbeat IPC: 0.442373 cumulative IPC: 0.389477 (Simulation time: 0 hr 7 min 10 sec) 
Heartbeat CPU 0 instructions: 210000001 cycles: 330381135 heartbeat IPC: 0.352903 cumulative IPC: 0.385842 (Simulation time: 0 hr 7 min 41 sec) 
Heartbeat CPU 0 instructions: 220000000 cycles: 358418043 heartbeat IPC: 0.356673 cumulative IPC: 0.38323 (Simulation time: 0 hr 8 min 11 sec) 
Heartbeat CPU 0 instructions: 230000000 cycles: 382890236 heartbeat IPC: 0.408627 cumulative IPC: 0.385071 (Simulation time: 0 hr 8 min 39 sec) 
Heartbeat CPU 0 instructions: 240000000 cycles: 410671870 heartbeat IPC: 0.35995 cumulative IPC: 0.383161 (Simulation time: 0 hr 9 min 9 sec) 
Heartbeat CPU 0 instructions: 250000001 cycles: 438211290 heartbeat IPC: 0.363116 cumulative IPC: 0.381756 (Simulation time: 0 hr 9 min 39 sec) 
Heartbeat CPU 0 instructions: 260000000 cycles: 460613485 heartbeat IPC: 0.446385 cumulative IPC: 0.385242 (Simulation time: 0 hr 10 min 5 sec) 
Heartbeat CPU 0 instructions: 270000000 cycles: 483824061 heartbeat IPC: 0.430838 cumulative IPC: 0.387655 (Simulation time: 0 hr 10 min 32 sec) 
Heartbeat CPU 0 instructions: 280000000 cycles: 514925055 heartbeat IPC: 0.321533 cumulative IPC: 0.383276 (Simulation time: 0 hr 11 min 4 sec) 
Heartbeat CPU 0 instructions: 290000000 cycles: 537505692 heartbeat IPC: 0.442857 cumulative IPC: 0.38601 (Simulation time: 0 hr 11 min 31 sec) 
Heartbeat CPU 0 instructions: 300000000 cycles: 559618762 heartbeat IPC: 0.452221 cumulative IPC: 0.388856 (Simulation time: 0 hr 11 min 57 sec) 
Heartbeat CPU 0 instructions: 310000000 cycles: 580811120 heartbeat IPC: 0.471868 cumulative IPC: 0.392142 (Simulation time: 0 hr 12 min 22 sec) 
Heartbeat CPU 0 instructions: 320000000 cycles: 613712230 heartbeat IPC: 0.303941 cumulative IPC: 0.387036 (Simulation time: 0 hr 12 min 55 sec) 
Heartbeat CPU 0 instructions: 330000001 cycles: 634767043 heartbeat IPC: 0.474951 cumulative IPC: 0.390176 (Simulation time: 0 hr 13 min 20 sec) 
Heartbeat CPU 0 instructions: 340000000 cycles: 656128011 heartbeat IPC: 0.468144 cumulative IPC: 0.392903 (Simulation time: 0 hr 13 min 46 sec) 
Heartbeat CPU 0 instructions: 350000000 cycles: 683842427 heartbeat IPC: 0.360823 cumulative IPC: 0.391511 (Simulation time: 0 hr 14 min 15 sec) 
Heartbeat CPU 0 instructions: 360000000 cycles: 707567877 heartbeat IPC: 0.421488 cumulative IPC: 0.392585 (Simulation time: 0 hr 14 min 42 sec) 
Heartbeat CPU 0 instructions: 370000001 cycles: 734639539 heartbeat IPC: 0.36939 cumulative IPC: 0.391674 (Simulation time: 0 hr 15 min 11 sec) 
Heartbeat CPU 0 instructions: 380000000 cycles: 759728967 heartbeat IPC: 0.398574 cumulative IPC: 0.391916 (Simulation time: 0 hr 15 min 39 sec) 
Heartbeat CPU 0 instructions: 390000000 cycles: 780078702 heartbeat IPC: 0.491407 cumulative IPC: 0.394671 (Simulation time: 0 hr 16 min 4 sec) 
Heartbeat CPU 0 instructions: 400000000 cycles: 801975123 heartbeat IPC: 0.456696 cumulative IPC: 0.396466 (Simulation time: 0 hr 16 min 29 sec) 
Heartbeat CPU 0 instructions: 410000001 cycles: 830453753 heartbeat IPC: 0.351141 cumulative IPC: 0.394822 (Simulation time: 0 hr 16 min 59 sec) 
Heartbeat CPU 0 instructions: 420000000 cycles: 856673844 heartbeat IPC: 0.381387 cumulative IPC: 0.394388 (Simulation time: 0 hr 17 min 27 sec) 
Heartbeat CPU 0 instructions: 430000002 cycles: 879331711 heartbeat IPC: 0.441348 cumulative IPC: 0.395664 (Simulation time: 0 hr 17 min 53 sec) 
Heartbeat CPU 0 instructions: 440000000 cycles: 901193476 heartbeat IPC: 0.45742 cumulative IPC: 0.397241 (Simulation time: 0 hr 18 min 19 sec) 
Heartbeat CPU 0 instructions: 450000002 cycles: 930380419 heartbeat IPC: 0.342619 cumulative IPC: 0.39544 (Simulation time: 0 hr 18 min 49 sec) 
Heartbeat CPU 0 instructions: 460000000 cycles: 959582759 heartbeat IPC: 0.342438 cumulative IPC: 0.393747 (Simulation time: 0 hr 19 min 19 sec) 
Heartbeat CPU 0 instructions: 470000002 cycles: 987806854 heartbeat IPC: 0.354307 cumulative IPC: 0.392566 (Simulation time: 0 hr 19 min 49 sec) 
Heartbeat CPU 0 instructions: 480000000 cycles: 1013585723 heartbeat IPC: 0.387915 cumulative IPC: 0.392442 (Simulation time: 0 hr 20 min 17 sec) 
Heartbeat CPU 0 instructions: 490000000 cycles: 1036093669 heartbeat IPC: 0.444288 cumulative IPC: 0.39362 (Simulation time: 0 hr 20 min 43 sec) 
Heartbeat CPU 0 instructions: 500000000 cycles: 1063179186 heartbeat IPC: 0.369201 cumulative IPC: 0.39297 (Simulation time: 0 hr 21 min 12 sec) 
Heartbeat CPU 0 instructions: 510000000 cycles: 1090091558 heartbeat IPC: 0.371576 cumulative IPC: 0.392419 (Simulation time: 0 hr 21 min 41 sec) 
Heartbeat CPU 0 instructions: 520000000 cycles: 1112820703 heartbeat IPC: 0.439964 cumulative IPC: 0.393431 (Simulation time: 0 hr 22 min 7 sec) 
Heartbeat CPU 0 instructions: 530000003 cycles: 1140241998 heartbeat IPC: 0.36468 cumulative IPC: 0.392711 (Simulation time: 0 hr 22 min 36 sec) 
Heartbeat CPU 0 instructions: 540000000 cycles: 1164923431 heartbeat IPC: 0.405163 cumulative IPC: 0.392986 (Simulation time: 0 hr 23 min 3 sec) 
Heartbeat CPU 0 instructions: 550000000 cycles: 1192338237 heartbeat IPC: 0.364766 cumulative IPC: 0.392311 (Simulation time: 0 hr 23 min 32 sec) 
Heartbeat CPU 0 instructions: 560000000 cycles: 1216758220 heartbeat IPC: 0.409501 cumulative IPC: 0.39267 (Simulation time: 0 hr 23 min 59 sec) 
Heartbeat CPU 0 instructions: 570000002 cycles: 1242210962 heartbeat IPC: 0.392885 cumulative IPC: 0.392674 (Simulation time: 0 hr 24 min 27 sec) 
Heartbeat CPU 0 instructions: 580000000 cycles: 1264575425 heartbeat IPC: 0.447138 cumulative IPC: 0.393673 (Simulation time: 0 hr 24 min 53 sec) 
Heartbeat CPU 0 instructions: 590000001 cycles: 1290161785 heartbeat IPC: 0.390833 cumulative IPC: 0.393615 (Simulation time: 0 hr 25 min 21 sec) 
Heartbeat CPU 0 instructions: 600000000 cycles: 1310874271 heartbeat IPC: 0.482801 cumulative IPC: 0.395074 (Simulation time: 0 hr 25 min 46 sec) 
Finished CPU 0 instructions: 500000000 cycles: 1265584108 cumulative IPC: 0.395074 (Simulation time: 0 hr 25 min 46 sec) 

CPU 0 Branch Prediction Accuracy: 99.5434% MPKI: 1.33026
Number of Branches: 145676990 Number of Mispredictions: 665128
Number of LOAD Instructions: 188863207
Number of LOAD Instructions (ROI): 188863207
Number of STORE Instructions: 7332002
Number of STORE Instructions (ROI): 7332002
Total Destination Memory Operands: 10029285
Total Destination Memory Operands (ROI): 10029285
Total Source Memory Operands: 188863207
Total Source Memory Operands (ROI): 188863207
Number of DEPENDED LOADS: 298558
Number of DEPENDED LOADS (ROI): 298558
Number of SQ_ADDED: 10029285
Number of SQ_ADDED (ROI): 10029285
Number of LQ_ADDED: 201454491
Number of LQ_ADDED (ROI): 201454491
Number of Instructions read from trace: 600000010

ChampSim completed all CPUs

Region of Interest Statistics

CPU 0 cumulative IPC: 0.395074 instructions: 500000000 cycles: 1265584108
ITLB TOTAL     ACCESS:  146251400  HIT:  146211806  MISS:      39594
ITLB LOAD      ACCESS:  146251400  HIT:  146211806  MISS:      39594
ITLB RFO       ACCESS:          0  HIT:          0  MISS:          0
ITLB PREFETCH  ACCESS:          0  HIT:          0  MISS:          0
ITLB WRITEBACK ACCESS:          0  HIT:          0  MISS:          0
ITLB PREFETCH  REQUESTED:          0  ISSUED:          0  USEFUL:          0  USELESS:          0
ITLB TOTAL MSHR MERGED:      57475
ITLB LOAD MSHR MERGED:      57475
ITLB RFO MSHR MERGED:          0
ITLB PREFETCH MSHR MERGED:          0
ITLB WRITEBACK MSHR MERGED:          0
ITLB TOTAL ACCESSES:  146308875 HITS:  146211806 MISSES:      97069
ITLB LOAD ACCESSES:  146308875 HITS:  146211806 MISSES:      97069
ITLB RFO ACCESSES:          0 HITS:          0 MISSES:          0
ITLB PREFETCH ACCESSES:          0 HITS:          0 MISSES:          0
ITLB WRITEBACK ACCESSES:          0 HITS:          0 MISSES:          0
ITLB RQ ACCESS:  499999754
ITLB RQ TO_CACHE:  146308875
ITLB RQ MERGED:  353690879
ITLB RQ FORWARD:          0
ITLB WQ ACCESS:          0
ITLB WQ TO_CACHE:          0
ITLB WQ MERGED:          0
ITLB WQ FORWARD:          0
DTLB TOTAL     ACCESS:  135382043  HIT:  134213705  MISS:    1168338
DTLB LOAD      ACCESS:  127338918  HIT:  126179660  MISS:    1159258
DTLB RFO       ACCESS:    8043125  HIT:    8034045  MISS:       9080
DTLB PREFETCH  ACCESS:          0  HIT:          0  MISS:          0
DTLB WRITEBACK ACCESS:          0  HIT:          0  MISS:          0
DTLB PREFETCH  REQUESTED:          0  ISSUED:          0  USEFUL:          0  USELESS:          0
DTLB TOTAL MSHR MERGED:     561111
DTLB LOAD MSHR MERGED:     556891
DTLB RFO MSHR MERGED:       4220
DTLB PREFETCH MSHR MERGED:          0
DTLB WRITEBACK MSHR MERGED:          0
DTLB TOTAL ACCESSES:  135943154 HITS:  134213705 MISSES:    1729449
DTLB LOAD ACCESSES:  127895809 HITS:  126179660 MISSES:    1716149
DTLB RFO ACCESSES:    8047345 HITS:    8034045 MISSES:      13300
DTLB PREFETCH ACCESSES:          0 HITS:          0 MISSES:          0
DTLB WRITEBACK ACCESSES:          0 HITS:          0 MISSES:          0
DTLB RQ ACCESS:  165755856
DTLB RQ TO_CACHE:  135943154
DTLB RQ MERGED:   29812702
DTLB RQ FORWARD:          0
DTLB WQ ACCESS:          0
DTLB WQ TO_CACHE:          0
DTLB WQ MERGED:          0
DTLB WQ FORWARD:          0
L1D TOTAL     ACCESS:  159569673  HIT:  142253920  MISS:   17315753
L1D LOAD      ACCESS:   90527543  HIT:   80014651  MISS:   10512892
L1D RFO       ACCESS:    8498678  HIT:    8411452  MISS:      87226
L1D PREFETCH  ACCESS:   60543452  HIT:   53827817  MISS:    6715635
L1D WRITEBACK ACCESS:          0  HIT:          0  MISS:          0
L1D PREFETCH  REQUESTED:   93955940  ISSUED:   93086900  USEFUL:    2634166  USELESS:    4081543
L1D TOTAL MSHR MERGED:   12969115
L1D LOAD MSHR MERGED:    6241031
L1D RFO MSHR MERGED:     126182
L1D PREFETCH MSHR MERGED:    6601902
L1D WRITEBACK MSHR MERGED:          0
L1D TOTAL ACCESSES:  172538979 HITS:  142254110 MISSES:   30284869
L1D LOAD ACCESSES:   93955945 HITS:   80014656 MISSES:   13941289
L1D RFO ACCESSES:    8622956 HITS:    8411452 MISSES:     211504
L1D PREFETCH ACCESSES:   69960078 HITS:   53828002 MISSES:   16132076
L1D WRITEBACK ACCESSES:          0 HITS:          0 MISSES:          0
L1D RQ ACCESS:  157116650
L1D RQ TO_CACHE:   93955940
L1D RQ MERGED:   63160705
L1D RQ FORWARD:          0
L1D WQ ACCESS:    8639208
L1D WQ TO_CACHE:    8622956
L1D WQ MERGED:      16252
L1D WQ FORWARD:        190
L1I TOTAL     ACCESS:  179121417  HIT:  178458007  MISS:     663410
L1I LOAD      ACCESS:  179121417  HIT:  178458007  MISS:     663410
L1I RFO       ACCESS:          0  HIT:          0  MISS:          0
L1I PREFETCH  ACCESS:          0  HIT:          0  MISS:          0
L1I WRITEBACK ACCESS:          0  HIT:          0  MISS:          0
L1I PREFETCH  REQUESTED:          0  ISSUED:          0  USEFUL:          0  USELESS:          0
L1I TOTAL MSHR MERGED:     631512
L1I LOAD MSHR MERGED:     631512
L1I RFO MSHR MERGED:          0
L1I PREFETCH MSHR MERGED:          0
L1I WRITEBACK MSHR MERGED:          0
L1I TOTAL ACCESSES:  179752929 HITS:  178458007 MISSES:    1294922
L1I LOAD ACCESSES:  179752929 HITS:  178458007 MISSES:    1294922
L1I RFO ACCESSES:          0 HITS:          0 MISSES:          0
L1I PREFETCH ACCESSES:          0 HITS:          0 MISSES:          0
L1I WRITEBACK ACCESSES:          0 HITS:          0 MISSES:          0
L1I RQ ACCESS:  499999757
L1I RQ TO_CACHE:  179752929
L1I RQ MERGED:  320246828
L1I RQ FORWARD:          0
L1I WQ ACCESS:          0
L1I WQ TO_CACHE:          0
L1I WQ MERGED:          0
L1I WQ FORWARD:          0
L2C TOTAL     ACCESS:   19265168  HIT:    2049313  MISS:   17215855
L2C LOAD      ACCESS:    8363571  HIT:     948169  MISS:    7415402
L2C RFO       ACCESS:      85299  HIT:      53750  MISS:      31549
L2C PREFETCH  ACCESS:   10531300  HIT:     765207  MISS:    9766093
L2C WRITEBACK ACCESS:     284998  HIT:     282187  MISS:       2811
L2C PREFETCH  REQUESTED:    1003173  ISSUED:    1003173  USEFUL:     272148  USELESS:    9493033
L2C TOTAL MSHR MERGED:        471
L2C LOAD MSHR MERGED:         79
L2C RFO MSHR MERGED:          1
L2C PREFETCH MSHR MERGED:        391
L2C WRITEBACK MSHR MERGED:          0
L2C TOTAL ACCESSES:   19266062 HITS:    2049496 MISSES:   17216566
L2C LOAD ACCESSES:    8363668 HITS:     948266 MISSES:    7415402
L2C RFO ACCESSES:      85322 HITS:      53773 MISSES:      31549
L2C PREFETCH ACCESSES:   10532074 HITS:     765270 MISSES:    9766804
L2C WRITEBACK ACCESSES:     284998 HITS:     282187 MISSES:       2811
L2C RQ ACCESS:    8448990
L2C RQ TO_CACHE:    8448870
L2C RQ MERGED:          0
L2C RQ FORWARD:          0
L2C WQ ACCESS:     284998
L2C WQ TO_CACHE:     284998
L2C WQ MERGED:          0
L2C WQ FORWARD:        183
LLC TOTAL     ACCESS:   17319334  HIT:    4385924  MISS:   12933410
LLC LOAD      ACCESS:    7415323  HIT:     702643  MISS:    6712680
LLC RFO       ACCESS:      31548  HIT:       8042  MISS:      23506
LLC PREFETCH  ACCESS:    9766401  HIT:    3607988  MISS:    6158413
LLC WRITEBACK ACCESS:     106062  HIT:      67251  MISS:      38811
LLC PREFETCH  REQUESTED:          0  ISSUED:          0  USEFUL:     206149  USELESS:    5950656
LLC TOTAL MSHR MERGED:          7
LLC LOAD MSHR MERGED:          0
LLC RFO MSHR MERGED:          0
LLC PREFETCH MSHR MERGED:          7
LLC WRITEBACK MSHR MERGED:          0
LLC TOTAL ACCESSES:   17319342 HITS:    4385924 MISSES:   12933418
LLC LOAD ACCESSES:    7415323 HITS:     702643 MISSES:    6712680
LLC RFO ACCESSES:      31548 HITS:       8042 MISSES:      23506
LLC PREFETCH ACCESSES:    9766409 HITS:    3607988 MISSES:    6158421
LLC WRITEBACK ACCESSES:     106062 HITS:      67251 MISSES:      38811
LLC 0 RQ ACCESS:    7446871
LLC 0 RQ TO_CACHE:    7446871
LLC 0 RQ MERGED:          0
LLC 0 RQ FORWARD:          0
LLC WQ ACCESS:     106062
LLC WQ TO_CACHE:     106062
LLC WQ MERGED:          0
LLC WQ FORWARD:          0
Major fault: 0 Minor fault: 6432
CPU 0 L1D next line prefetcher final stats
CPU 0 L2C PC-based stride prefetcher final stats
All Misses: 15381333
All Hits: 5156081
SD Algo Stats - Switches: 0 SRR-Repls: 7478764 BRR-Repls: 0

DRAM Statistics
 CHANNEL 0
 RQ ROW_BUFFER_HIT:    9717938  ROW_BUFFER_MISS:    3169071
 DBUS_CONGESTED:    6475265
 WQ ROW_BUFFER_HIT:       2655  ROW_BUFFER_MISS:      82439  FULL:          0

 AVG_CONGESTED_CYCLE: 13
LOADS RETIRED: 157382665
INSTR RETIRED: 500000000
