
*** ChampSim Multicore Out-of-Order Simulator ***

Warmup Instructions: 100000000
Simulation Instructions: 500000000
Number of CPUs: 1
LLC sets: 2048
LLC ways: 16
Clean RRIP Policies: 311222303112223 Dirty RRIP Policies: 2301022323010223 PSEL Width: 10 Track Set: 4294967295 PSEL Mask: 1 Demote Mask: 3012303030123030DS Algo: 0Window size: 0
Off-chip DRAM Size: 4096 MB Channels: 1 Width: 64-bit Data Rate: 1600 MT/s

CPU 0 runs /mnt/beegfs/iconst01/spec2017/Xz.trace.gz
NOT SORTED
TRACE STRING: /mnt/beegfs/iconst01/spec2017/Xz.trace.gz
SORTED
TRACE STRING: /mnt/beegfs/iconst01/spec2017/Xz.trace.gz
INITIAL
TRACE STRING: /mnt/beegfs/iconst01/spec2017/Xz.trace.gz

champsim_seed used: 210

CPU 0 L1D next line prefetcher
CPU 0 L2C IP-based stride prefetcher
Initialize DRRIP state
Assign rand_sets[0]: 454  LLC: 2048
rand_sets[0]: 454
Assign rand_sets[1]: 1662  LLC: 2048
rand_sets[1]: 1662
Assign rand_sets[2]: 1921  LLC: 2048
rand_sets[2]: 1921
Assign rand_sets[3]: 1131  LLC: 2048
rand_sets[3]: 1131
Assign rand_sets[4]: 331  LLC: 2048
rand_sets[4]: 331
Assign rand_sets[5]: 1531  LLC: 2048
rand_sets[5]: 1531
Assign rand_sets[6]: 482  LLC: 2048
rand_sets[6]: 482
Assign rand_sets[7]: 1275  LLC: 2048
rand_sets[7]: 1275
Assign rand_sets[8]: 1876  LLC: 2048
rand_sets[8]: 1876
Assign rand_sets[9]: 2038  LLC: 2048
rand_sets[9]: 2038
Assign rand_sets[10]: 701  LLC: 2048
rand_sets[10]: 701
Assign rand_sets[11]: 479  LLC: 2048
rand_sets[11]: 479
Assign rand_sets[12]: 892  LLC: 2048
rand_sets[12]: 892
Assign rand_sets[13]: 1820  LLC: 2048
rand_sets[13]: 1820
Assign rand_sets[14]: 1505  LLC: 2048
rand_sets[14]: 1505
Assign rand_sets[15]: 1159  LLC: 2048
rand_sets[15]: 1159
Assign rand_sets[16]: 513  LLC: 2048
rand_sets[16]: 513
Assign rand_sets[17]: 703  LLC: 2048
rand_sets[17]: 703
Assign rand_sets[18]: 561  LLC: 2048
rand_sets[18]: 561
Assign rand_sets[19]: 990  LLC: 2048
rand_sets[19]: 990
Assign rand_sets[20]: 342  LLC: 2048
rand_sets[20]: 342
Assign rand_sets[21]: 882  LLC: 2048
rand_sets[21]: 882
Assign rand_sets[22]: 15  LLC: 2048
rand_sets[22]: 15
Assign rand_sets[23]: 71  LLC: 2048
rand_sets[23]: 71
Assign rand_sets[24]: 1127  LLC: 2048
rand_sets[24]: 1127
Assign rand_sets[25]: 1382  LLC: 2048
rand_sets[25]: 1382
Assign rand_sets[26]: 647  LLC: 2048
rand_sets[26]: 647
Assign rand_sets[27]: 857  LLC: 2048
rand_sets[27]: 857
Assign rand_sets[28]: 1450  LLC: 2048
rand_sets[28]: 1450
Assign rand_sets[29]: 1160  LLC: 2048
rand_sets[29]: 1160
Assign rand_sets[30]: 1852  LLC: 2048
rand_sets[30]: 1852
Assign rand_sets[31]: 1881  LLC: 2048
rand_sets[31]: 1881
Assign rand_sets[32]: 1770  LLC: 2048
rand_sets[32]: 1770
Assign rand_sets[33]: 1622  LLC: 2048
rand_sets[33]: 1622
Assign rand_sets[34]: 275  LLC: 2048
rand_sets[34]: 275
Assign rand_sets[35]: 635  LLC: 2048
rand_sets[35]: 635
Assign rand_sets[36]: 466  LLC: 2048
rand_sets[36]: 466
Assign rand_sets[37]: 1413  LLC: 2048
rand_sets[37]: 1413
Assign rand_sets[38]: 417  LLC: 2048
rand_sets[38]: 417
Assign rand_sets[39]: 472  LLC: 2048
rand_sets[39]: 472
Assign rand_sets[40]: 1340  LLC: 2048
rand_sets[40]: 1340
Assign rand_sets[41]: 852  LLC: 2048
rand_sets[41]: 852
Assign rand_sets[42]: 1365  LLC: 2048
rand_sets[42]: 1365
Assign rand_sets[43]: 47  LLC: 2048
rand_sets[43]: 47
Assign rand_sets[44]: 823  LLC: 2048
rand_sets[44]: 823
Assign rand_sets[45]: 686  LLC: 2048
rand_sets[45]: 686
Assign rand_sets[46]: 1637  LLC: 2048
rand_sets[46]: 1637
Assign rand_sets[47]: 1115  LLC: 2048
rand_sets[47]: 1115
Assign rand_sets[48]: 986  LLC: 2048
rand_sets[48]: 986
Assign rand_sets[49]: 258  LLC: 2048
rand_sets[49]: 258
Assign rand_sets[50]: 633  LLC: 2048
rand_sets[50]: 633
Assign rand_sets[51]: 920  LLC: 2048
rand_sets[51]: 920
Assign rand_sets[52]: 204  LLC: 2048
rand_sets[52]: 204
Assign rand_sets[53]: 227  LLC: 2048
rand_sets[53]: 227
Assign rand_sets[54]: 1818  LLC: 2048
rand_sets[54]: 1818
Assign rand_sets[55]: 886  LLC: 2048
rand_sets[55]: 886
Assign rand_sets[56]: 1422  LLC: 2048
rand_sets[56]: 1422
Assign rand_sets[57]: 607  LLC: 2048
rand_sets[57]: 607
Assign rand_sets[58]: 217  LLC: 2048
rand_sets[58]: 217
Assign rand_sets[59]: 1945  LLC: 2048
rand_sets[59]: 1945
Assign rand_sets[60]: 143  LLC: 2048
rand_sets[60]: 143
Assign rand_sets[61]: 1311  LLC: 2048
rand_sets[61]: 1311
Assign rand_sets[62]: 319  LLC: 2048
rand_sets[62]: 319
Assign rand_sets[63]: 1846  LLC: 2048
rand_sets[63]: 1846
 CLEAN-RRIP-POLICY-1: 0-3-1-1-2-2-2-3- CLEAN-RRIP-POLICY-2: 0-3-1-1-2-2-2-3-
 DIRTY-RRIP-POLICY-1: 2-3-0-1-0-2-2-3- DIRTY-RRIP-POLICY-2: 2-3-0-1-0-2-2-3-
 PSEL width: 10
Heartbeat CPU 0 instructions: 10000000 cycles: 4305226 heartbeat IPC: 2.32276 cumulative IPC: 2.32276 (Simulation time: 0 hr 0 min 12 sec) 
Heartbeat CPU 0 instructions: 20000000 cycles: 8617060 heartbeat IPC: 2.3192 cumulative IPC: 2.32098 (Simulation time: 0 hr 0 min 24 sec) 
Heartbeat CPU 0 instructions: 30000003 cycles: 13160928 heartbeat IPC: 2.20077 cumulative IPC: 2.27947 (Simulation time: 0 hr 0 min 36 sec) 
Heartbeat CPU 0 instructions: 40000000 cycles: 17515525 heartbeat IPC: 2.29642 cumulative IPC: 2.28369 (Simulation time: 0 hr 0 min 48 sec) 
Heartbeat CPU 0 instructions: 50000001 cycles: 21878515 heartbeat IPC: 2.29201 cumulative IPC: 2.28535 (Simulation time: 0 hr 1 min 0 sec) 
Heartbeat CPU 0 instructions: 60000000 cycles: 26178808 heartbeat IPC: 2.32542 cumulative IPC: 2.29193 (Simulation time: 0 hr 1 min 12 sec) 
Heartbeat CPU 0 instructions: 70000001 cycles: 30244792 heartbeat IPC: 2.45943 cumulative IPC: 2.31445 (Simulation time: 0 hr 1 min 23 sec) 
Heartbeat CPU 0 instructions: 80000000 cycles: 34523682 heartbeat IPC: 2.33705 cumulative IPC: 2.31725 (Simulation time: 0 hr 1 min 34 sec) 
Heartbeat CPU 0 instructions: 90000001 cycles: 38740427 heartbeat IPC: 2.3715 cumulative IPC: 2.32315 (Simulation time: 0 hr 1 min 46 sec) 
Heartbeat CPU 0 instructions: 100000000 cycles: 42980942 heartbeat IPC: 2.3582 cumulative IPC: 2.32661 (Simulation time: 0 hr 1 min 57 sec) 

Warmup complete CPU 0 instructions: 100000001 cycles: 42980943 (Simulation time: 0 hr 1 min 57 sec) 

Heartbeat CPU 0 instructions: 110000000 cycles: 53200257 heartbeat IPC: 0.978539 cumulative IPC: 0.978539 (Simulation time: 0 hr 2 min 14 sec) 
Heartbeat CPU 0 instructions: 120000000 cycles: 63969427 heartbeat IPC: 0.928577 cumulative IPC: 0.952903 (Simulation time: 0 hr 2 min 32 sec) 
Heartbeat CPU 0 instructions: 130000001 cycles: 74688012 heartbeat IPC: 0.932959 cumulative IPC: 0.946161 (Simulation time: 0 hr 2 min 50 sec) 
Heartbeat CPU 0 instructions: 140000000 cycles: 84454123 heartbeat IPC: 1.02395 cumulative IPC: 0.964479 (Simulation time: 0 hr 3 min 7 sec) 
Heartbeat CPU 0 instructions: 150000001 cycles: 94865273 heartbeat IPC: 0.960509 cumulative IPC: 0.963682 (Simulation time: 0 hr 3 min 24 sec) 
Heartbeat CPU 0 instructions: 160000000 cycles: 105020551 heartbeat IPC: 0.98471 cumulative IPC: 0.967124 (Simulation time: 0 hr 3 min 42 sec) 
Heartbeat CPU 0 instructions: 170000000 cycles: 114782489 heartbeat IPC: 1.02439 cumulative IPC: 0.974909 (Simulation time: 0 hr 3 min 59 sec) 
Heartbeat CPU 0 instructions: 180000000 cycles: 125443094 heartbeat IPC: 0.938033 cumulative IPC: 0.970142 (Simulation time: 0 hr 4 min 17 sec) 
Heartbeat CPU 0 instructions: 190000001 cycles: 135802699 heartbeat IPC: 0.965288 cumulative IPC: 0.9696 (Simulation time: 0 hr 4 min 34 sec) 
Heartbeat CPU 0 instructions: 200000000 cycles: 146528772 heartbeat IPC: 0.932308 cumulative IPC: 0.965737 (Simulation time: 0 hr 4 min 52 sec) 
Heartbeat CPU 0 instructions: 210000002 cycles: 159244586 heartbeat IPC: 0.786422 cumulative IPC: 0.946126 (Simulation time: 0 hr 5 min 11 sec) 
Heartbeat CPU 0 instructions: 220000000 cycles: 172010162 heartbeat IPC: 0.783357 cumulative IPC: 0.930022 (Simulation time: 0 hr 5 min 30 sec) 
Heartbeat CPU 0 instructions: 230000000 cycles: 184386657 heartbeat IPC: 0.807983 cumulative IPC: 0.91934 (Simulation time: 0 hr 5 min 49 sec) 
Heartbeat CPU 0 instructions: 240000000 cycles: 196724654 heartbeat IPC: 0.810504 cumulative IPC: 0.910606 (Simulation time: 0 hr 6 min 8 sec) 
Heartbeat CPU 0 instructions: 250000000 cycles: 208889924 heartbeat IPC: 0.822012 cumulative IPC: 0.90411 (Simulation time: 0 hr 6 min 26 sec) 
Heartbeat CPU 0 instructions: 260000000 cycles: 220613831 heartbeat IPC: 0.852958 cumulative IPC: 0.900734 (Simulation time: 0 hr 6 min 45 sec) 
Heartbeat CPU 0 instructions: 270000003 cycles: 232680055 heartbeat IPC: 0.82876 cumulative IPC: 0.896156 (Simulation time: 0 hr 7 min 4 sec) 
Heartbeat CPU 0 instructions: 280000000 cycles: 244396705 heartbeat IPC: 0.853486 cumulative IPC: 0.893674 (Simulation time: 0 hr 7 min 22 sec) 
Heartbeat CPU 0 instructions: 290000002 cycles: 256136045 heartbeat IPC: 0.851837 cumulative IPC: 0.89137 (Simulation time: 0 hr 7 min 40 sec) 
Heartbeat CPU 0 instructions: 300000000 cycles: 268830141 heartbeat IPC: 0.787768 cumulative IPC: 0.885547 (Simulation time: 0 hr 7 min 59 sec) 
Heartbeat CPU 0 instructions: 310000000 cycles: 281196227 heartbeat IPC: 0.808663 cumulative IPC: 0.881555 (Simulation time: 0 hr 8 min 18 sec) 
Heartbeat CPU 0 instructions: 320000000 cycles: 294104414 heartbeat IPC: 0.774702 cumulative IPC: 0.876063 (Simulation time: 0 hr 8 min 37 sec) 
Heartbeat CPU 0 instructions: 330000003 cycles: 306283944 heartbeat IPC: 0.82105 cumulative IPC: 0.873518 (Simulation time: 0 hr 8 min 56 sec) 
Heartbeat CPU 0 instructions: 340000000 cycles: 318630497 heartbeat IPC: 0.809942 cumulative IPC: 0.870671 (Simulation time: 0 hr 9 min 15 sec) 
Heartbeat CPU 0 instructions: 350000001 cycles: 329778856 heartbeat IPC: 0.896993 cumulative IPC: 0.871694 (Simulation time: 0 hr 9 min 33 sec) 
Heartbeat CPU 0 instructions: 360000000 cycles: 341799220 heartbeat IPC: 0.831921 cumulative IPC: 0.870094 (Simulation time: 0 hr 9 min 51 sec) 
Heartbeat CPU 0 instructions: 370000001 cycles: 353375715 heartbeat IPC: 0.863819 cumulative IPC: 0.86986 (Simulation time: 0 hr 10 min 10 sec) 
Heartbeat CPU 0 instructions: 380000000 cycles: 364520393 heartbeat IPC: 0.897289 cumulative IPC: 0.870811 (Simulation time: 0 hr 10 min 28 sec) 
Heartbeat CPU 0 instructions: 390000003 cycles: 375302112 heartbeat IPC: 0.927496 cumulative IPC: 0.87265 (Simulation time: 0 hr 10 min 46 sec) 
Heartbeat CPU 0 instructions: 400000000 cycles: 385633440 heartbeat IPC: 0.967929 cumulative IPC: 0.875523 (Simulation time: 0 hr 11 min 4 sec) 
Heartbeat CPU 0 instructions: 410000000 cycles: 396278021 heartbeat IPC: 0.939445 cumulative IPC: 0.877448 (Simulation time: 0 hr 11 min 22 sec) 
Heartbeat CPU 0 instructions: 420000000 cycles: 405713306 heartbeat IPC: 1.05985 cumulative IPC: 0.882193 (Simulation time: 0 hr 11 min 39 sec) 
Heartbeat CPU 0 instructions: 430000002 cycles: 414828406 heartbeat IPC: 1.09708 cumulative IPC: 0.887461 (Simulation time: 0 hr 11 min 56 sec) 
Heartbeat CPU 0 instructions: 440000000 cycles: 425214008 heartbeat IPC: 0.962871 cumulative IPC: 0.88951 (Simulation time: 0 hr 12 min 14 sec) 
Heartbeat CPU 0 instructions: 450000002 cycles: 436475046 heartbeat IPC: 0.888018 cumulative IPC: 0.889467 (Simulation time: 0 hr 12 min 32 sec) 
Heartbeat CPU 0 instructions: 460000000 cycles: 448210772 heartbeat IPC: 0.852099 cumulative IPC: 0.888385 (Simulation time: 0 hr 12 min 50 sec) 
Heartbeat CPU 0 instructions: 470000003 cycles: 458510884 heartbeat IPC: 0.970864 cumulative IPC: 0.890429 (Simulation time: 0 hr 13 min 8 sec) 
Heartbeat CPU 0 instructions: 480000000 cycles: 469166760 heartbeat IPC: 0.938449 cumulative IPC: 0.89163 (Simulation time: 0 hr 13 min 26 sec) 
Heartbeat CPU 0 instructions: 490000000 cycles: 479192027 heartbeat IPC: 0.99748 cumulative IPC: 0.894063 (Simulation time: 0 hr 13 min 43 sec) 
Heartbeat CPU 0 instructions: 500000000 cycles: 491172498 heartbeat IPC: 0.834692 cumulative IPC: 0.892476 (Simulation time: 0 hr 14 min 1 sec) 
Heartbeat CPU 0 instructions: 510000002 cycles: 503868167 heartbeat IPC: 0.78767 cumulative IPC: 0.889589 (Simulation time: 0 hr 14 min 20 sec) 
Heartbeat CPU 0 instructions: 520000000 cycles: 515963106 heartbeat IPC: 0.826792 cumulative IPC: 0.887983 (Simulation time: 0 hr 14 min 38 sec) 
Heartbeat CPU 0 instructions: 530000001 cycles: 528025843 heartbeat IPC: 0.828999 cumulative IPC: 0.886516 (Simulation time: 0 hr 14 min 57 sec) 
Heartbeat CPU 0 instructions: 540000000 cycles: 539833529 heartbeat IPC: 0.846906 cumulative IPC: 0.885575 (Simulation time: 0 hr 15 min 15 sec) 
Heartbeat CPU 0 instructions: 550000001 cycles: 551430070 heartbeat IPC: 0.862326 cumulative IPC: 0.885044 (Simulation time: 0 hr 15 min 33 sec) 
Heartbeat CPU 0 instructions: 560000000 cycles: 563178260 heartbeat IPC: 0.851195 cumulative IPC: 0.88428 (Simulation time: 0 hr 15 min 51 sec) 
Heartbeat CPU 0 instructions: 570000000 cycles: 574767179 heartbeat IPC: 0.862893 cumulative IPC: 0.883814 (Simulation time: 0 hr 16 min 9 sec) 
Heartbeat CPU 0 instructions: 580000000 cycles: 585677413 heartbeat IPC: 0.916571 cumulative IPC: 0.884472 (Simulation time: 0 hr 16 min 27 sec) 
Heartbeat CPU 0 instructions: 590000003 cycles: 597287683 heartbeat IPC: 0.861307 cumulative IPC: 0.883987 (Simulation time: 0 hr 16 min 45 sec) 
Heartbeat CPU 0 instructions: 600000000 cycles: 608005653 heartbeat IPC: 0.933012 cumulative IPC: 0.884917 (Simulation time: 0 hr 17 min 2 sec) 
Finished CPU 0 instructions: 500000001 cycles: 565024718 cumulative IPC: 0.884917 (Simulation time: 0 hr 17 min 2 sec) 

CPU 0 Branch Prediction Accuracy: 93.0095% MPKI: 10.0046
Number of Branches: 71558147 Number of Mispredictions: 5002285
Number of LOAD Instructions: 145708893
Number of LOAD Instructions (ROI): 145708893
Number of STORE Instructions: 40463820
Number of STORE Instructions (ROI): 40463820
Total Destination Memory Operands: 45240498
Total Destination Memory Operands (ROI): 45240498
Total Source Memory Operands: 145708893
Total Source Memory Operands (ROI): 145708893
Number of DEPENDED LOADS: 10678588
Number of DEPENDED LOADS (ROI): 10678588
Number of SQ_ADDED: 45240498
Number of SQ_ADDED (ROI): 45240498
Number of LQ_ADDED: 193350805
Number of LQ_ADDED (ROI): 193350805
Number of Instructions read from trace: 600000002

ChampSim completed all CPUs

Region of Interest Statistics

CPU 0 cumulative IPC: 0.884917 instructions: 500000001 cycles: 565024718
ITLB TOTAL     ACCESS:   77984739  HIT:   77984738  MISS:          1
ITLB LOAD      ACCESS:   77984739  HIT:   77984738  MISS:          1
ITLB RFO       ACCESS:          0  HIT:          0  MISS:          0
ITLB PREFETCH  ACCESS:          0  HIT:          0  MISS:          0
ITLB WRITEBACK ACCESS:          0  HIT:          0  MISS:          0
ITLB PREFETCH  REQUESTED:          0  ISSUED:          0  USEFUL:          0  USELESS:          0
ITLB TOTAL MSHR MERGED:          0
ITLB LOAD MSHR MERGED:          0
ITLB RFO MSHR MERGED:          0
ITLB PREFETCH MSHR MERGED:          0
ITLB WRITEBACK MSHR MERGED:          0
ITLB TOTAL ACCESSES:   77984739 HITS:   77984738 MISSES:          1
ITLB LOAD ACCESSES:   77984739 HITS:   77984738 MISSES:          1
ITLB RFO ACCESSES:          0 HITS:          0 MISSES:          0
ITLB PREFETCH ACCESSES:          0 HITS:          0 MISSES:          0
ITLB WRITEBACK ACCESSES:          0 HITS:          0 MISSES:          0
ITLB RQ ACCESS:  499999995
ITLB RQ TO_CACHE:   77984739
ITLB RQ MERGED:  422015256
ITLB RQ FORWARD:          0
ITLB WQ ACCESS:          0
ITLB WQ TO_CACHE:          0
ITLB WQ MERGED:          0
ITLB WQ FORWARD:          0
DTLB TOTAL     ACCESS:   98677261  HIT:   97795925  MISS:     881336
DTLB LOAD      ACCESS:   70898025  HIT:   70036492  MISS:     861533
DTLB RFO       ACCESS:   27779236  HIT:   27759433  MISS:      19803
DTLB PREFETCH  ACCESS:          0  HIT:          0  MISS:          0
DTLB WRITEBACK ACCESS:          0  HIT:          0  MISS:          0
DTLB PREFETCH  REQUESTED:          0  ISSUED:          0  USEFUL:          0  USELESS:          0
DTLB TOTAL MSHR MERGED:      87337
DTLB LOAD MSHR MERGED:      65588
DTLB RFO MSHR MERGED:      21749
DTLB PREFETCH MSHR MERGED:          0
DTLB WRITEBACK MSHR MERGED:          0
DTLB TOTAL ACCESSES:   98764598 HITS:   97795925 MISSES:     968673
DTLB LOAD ACCESSES:   70963613 HITS:   70036492 MISSES:     927121
DTLB RFO ACCESSES:   27800985 HITS:   27759433 MISSES:      41552
DTLB PREFETCH ACCESSES:          0 HITS:          0 MISSES:          0
DTLB WRITEBACK ACCESSES:          0 HITS:          0 MISSES:          0
DTLB RQ ACCESS:  150266454
DTLB RQ TO_CACHE:   98764598
DTLB RQ MERGED:   51501856
DTLB RQ FORWARD:          0
DTLB WQ ACCESS:          0
DTLB WQ TO_CACHE:          0
DTLB WQ MERGED:          0
DTLB WQ FORWARD:          0
L1D TOTAL     ACCESS:  173315966  HIT:  169147338  MISS:    4168628
L1D LOAD      ACCESS:   75275408  HIT:   73393979  MISS:    1881429
L1D RFO       ACCESS:   36778254  HIT:   36571635  MISS:     206619
L1D PREFETCH  ACCESS:   61262304  HIT:   59181724  MISS:    2080580
L1D WRITEBACK ACCESS:          0  HIT:          0  MISS:          0
L1D PREFETCH  REQUESTED:   75382620  ISSUED:   74818389  USEFUL:     415018  USELESS:    1665551
L1D TOTAL MSHR MERGED:     382206
L1D LOAD MSHR MERGED:     116092
L1D RFO MSHR MERGED:     133006
L1D PREFETCH MSHR MERGED:     133108
L1D WRITEBACK MSHR MERGED:          0
L1D TOTAL ACCESSES:  173849593 HITS:  169298759 MISSES:    4550834
L1D LOAD ACCESSES:   75385368 HITS:   73396727 MISSES:    1988641
L1D RFO ACCESSES:   36909845 HITS:   36571635 MISSES:     338210
L1D PREFETCH ACCESSES:   61554380 HITS:   59330397 MISSES:    2223983
L1D WRITEBACK ACCESSES:          0 HITS:          0 MISSES:          0
L1D RQ ACCESS:  112604051
L1D RQ TO_CACHE:   75382620
L1D RQ MERGED:   37218683
L1D RQ FORWARD:          0
L1D WQ ACCESS:   37662403
L1D WQ TO_CACHE:   36909845
L1D WQ MERGED:     752558
L1D WQ FORWARD:     151421
L1I TOTAL     ACCESS:  100693429  HIT:  100693404  MISS:         25
L1I LOAD      ACCESS:  100693429  HIT:  100693404  MISS:         25
L1I RFO       ACCESS:          0  HIT:          0  MISS:          0
L1I PREFETCH  ACCESS:          0  HIT:          0  MISS:          0
L1I WRITEBACK ACCESS:          0  HIT:          0  MISS:          0
L1I PREFETCH  REQUESTED:          0  ISSUED:          0  USEFUL:          0  USELESS:          0
L1I TOTAL MSHR MERGED:         10
L1I LOAD MSHR MERGED:         10
L1I RFO MSHR MERGED:          0
L1I PREFETCH MSHR MERGED:          0
L1I WRITEBACK MSHR MERGED:          0
L1I TOTAL ACCESSES:  100693439 HITS:  100693404 MISSES:         35
L1I LOAD ACCESSES:  100693439 HITS:  100693404 MISSES:         35
L1I RFO ACCESSES:          0 HITS:          0 MISSES:          0
L1I PREFETCH ACCESSES:          0 HITS:          0 MISSES:          0
L1I WRITEBACK ACCESSES:          0 HITS:          0 MISSES:          0
L1I RQ ACCESS:  499999995
L1I RQ TO_CACHE:  100693439
L1I RQ MERGED:  399306556
L1I RQ FORWARD:          0
L1I WQ ACCESS:          0
L1I WQ TO_CACHE:          0
L1I WQ MERGED:          0
L1I WQ FORWARD:          0
L2C TOTAL     ACCESS:    5852527  HIT:    4009351  MISS:    1843176
L2C LOAD      ACCESS:    1872448  HIT:    1061506  MISS:     810942
L2C RFO       ACCESS:     205197  HIT:     100557  MISS:     104640
L2C PREFETCH  ACCESS:    2169253  HIT:    1246080  MISS:     923173
L2C WRITEBACK ACCESS:    1605629  HIT:    1601208  MISS:       4421
L2C PREFETCH  REQUESTED:      91679  ISSUED:      91679  USEFUL:      86457  USELESS:     836739
L2C TOTAL MSHR MERGED:       1043
L2C LOAD MSHR MERGED:        258
L2C RFO MSHR MERGED:          0
L2C PREFETCH MSHR MERGED:        785
L2C WRITEBACK MSHR MERGED:          0
L2C TOTAL ACCESSES:    5853893 HITS:    4009521 MISSES:    1844372
L2C LOAD ACCESSES:    1872574 HITS:    1061632 MISSES:     810942
L2C RFO ACCESSES:     205204 HITS:     100564 MISSES:     104640
L2C PREFETCH ACCESSES:    2170486 HITS:    1246117 MISSES:     924369
L2C WRITEBACK ACCESSES:    1605629 HITS:    1601208 MISSES:       4421
L2C RQ ACCESS:    2077778
L2C RQ TO_CACHE:    2077645
L2C RQ MERGED:          0
L2C RQ FORWARD:          0
L2C WQ ACCESS:    1605629
L2C WQ TO_CACHE:    1605629
L2C WQ MERGED:          0
L2C WQ FORWARD:        170
LLC TOTAL     ACCESS:    2673564  HIT:    2046896  MISS:     626668
LLC LOAD      ACCESS:     810676  HIT:     567020  MISS:     243656
LLC RFO       ACCESS:     104640  HIT:      59025  MISS:      45615
LLC PREFETCH  ACCESS:     923573  HIT:     692530  MISS:     231043
LLC WRITEBACK ACCESS:     834675  HIT:     728321  MISS:     106354
LLC PREFETCH  REQUESTED:          0  ISSUED:          0  USEFUL:      53535  USELESS:     176994
LLC TOTAL MSHR MERGED:          3
LLC LOAD MSHR MERGED:          0
LLC RFO MSHR MERGED:          0
LLC PREFETCH MSHR MERGED:          3
LLC WRITEBACK MSHR MERGED:          0
LLC TOTAL ACCESSES:    2673577 HITS:    2046906 MISSES:     626671
LLC LOAD ACCESSES:     810684 HITS:     567028 MISSES:     243656
LLC RFO ACCESSES:     104640 HITS:      59025 MISSES:      45615
LLC PREFETCH ACCESSES:     923578 HITS:     692532 MISSES:     231046
LLC WRITEBACK ACCESSES:     834675 HITS:     728321 MISSES:     106354
LLC 0 RQ ACCESS:     915324
LLC 0 RQ TO_CACHE:     915316
LLC 0 RQ MERGED:          0
LLC 0 RQ FORWARD:          0
LLC WQ ACCESS:     834675
LLC WQ TO_CACHE:     834675
LLC WQ MERGED:          0
LLC WQ FORWARD:         10
Major fault: 0 Minor fault: 11278
CPU 0 L1D next line prefetcher final stats
CPU 0 L2C PC-based stride prefetcher final stats
All Misses: 756921
All Hits: 2297659
SD Algo Stats - Switches: 0 SRR-Repls: 284003 BRR-Repls: 0

DRAM Statistics
 CHANNEL 0
 RQ ROW_BUFFER_HIT:      32480  ROW_BUFFER_MISS:     487043
 DBUS_CONGESTED:     442499
 WQ ROW_BUFFER_HIT:      23079  ROW_BUFFER_MISS:     262457  FULL:          0

 AVG_CONGESTED_CYCLE: 13
LOADS RETIRED: 121769268
INSTR RETIRED: 500000000
