
*** ChampSim Multicore Out-of-Order Simulator ***

Warmup Instructions: 100000000
Simulation Instructions: 500000000
Number of CPUs: 1
LLC sets: 2048
LLC ways: 16
Clean RRIP Policies: 2323230023232300 Dirty RRIP Policies: 323032003230320 PSEL Width: 10 Track Set: 4294967295 PSEL Mask: 1 Demote Mask: 3423414334234143DS Algo: 0Window size: 0
Off-chip DRAM Size: 4096 MB Channels: 1 Width: 64-bit Data Rate: 1600 MT/s

CPU 0 runs /mnt/beegfs/iconst01/spec2017/Gcc.trace.gz
NOT SORTED
TRACE STRING: /mnt/beegfs/iconst01/spec2017/Gcc.trace.gz
SORTED
TRACE STRING: /mnt/beegfs/iconst01/spec2017/Gcc.trace.gz
INITIAL
TRACE STRING: /mnt/beegfs/iconst01/spec2017/Gcc.trace.gz

champsim_seed used: 269

CPU 0 L1D next line prefetcher
CPU 0 L2C IP-based stride prefetcher
Initialize DRRIP state
Assign rand_sets[0]: 454  LLC: 2048
rand_sets[0]: 454
Assign rand_sets[1]: 1662  LLC: 2048
rand_sets[1]: 1662
Assign rand_sets[2]: 1921  LLC: 2048
rand_sets[2]: 1921
Assign rand_sets[3]: 1131  LLC: 2048
rand_sets[3]: 1131
Assign rand_sets[4]: 331  LLC: 2048
rand_sets[4]: 331
Assign rand_sets[5]: 1531  LLC: 2048
rand_sets[5]: 1531
Assign rand_sets[6]: 482  LLC: 2048
rand_sets[6]: 482
Assign rand_sets[7]: 1275  LLC: 2048
rand_sets[7]: 1275
Assign rand_sets[8]: 1876  LLC: 2048
rand_sets[8]: 1876
Assign rand_sets[9]: 2038  LLC: 2048
rand_sets[9]: 2038
Assign rand_sets[10]: 701  LLC: 2048
rand_sets[10]: 701
Assign rand_sets[11]: 479  LLC: 2048
rand_sets[11]: 479
Assign rand_sets[12]: 892  LLC: 2048
rand_sets[12]: 892
Assign rand_sets[13]: 1820  LLC: 2048
rand_sets[13]: 1820
Assign rand_sets[14]: 1505  LLC: 2048
rand_sets[14]: 1505
Assign rand_sets[15]: 1159  LLC: 2048
rand_sets[15]: 1159
Assign rand_sets[16]: 513  LLC: 2048
rand_sets[16]: 513
Assign rand_sets[17]: 703  LLC: 2048
rand_sets[17]: 703
Assign rand_sets[18]: 561  LLC: 2048
rand_sets[18]: 561
Assign rand_sets[19]: 990  LLC: 2048
rand_sets[19]: 990
Assign rand_sets[20]: 342  LLC: 2048
rand_sets[20]: 342
Assign rand_sets[21]: 882  LLC: 2048
rand_sets[21]: 882
Assign rand_sets[22]: 15  LLC: 2048
rand_sets[22]: 15
Assign rand_sets[23]: 71  LLC: 2048
rand_sets[23]: 71
Assign rand_sets[24]: 1127  LLC: 2048
rand_sets[24]: 1127
Assign rand_sets[25]: 1382  LLC: 2048
rand_sets[25]: 1382
Assign rand_sets[26]: 647  LLC: 2048
rand_sets[26]: 647
Assign rand_sets[27]: 857  LLC: 2048
rand_sets[27]: 857
Assign rand_sets[28]: 1450  LLC: 2048
rand_sets[28]: 1450
Assign rand_sets[29]: 1160  LLC: 2048
rand_sets[29]: 1160
Assign rand_sets[30]: 1852  LLC: 2048
rand_sets[30]: 1852
Assign rand_sets[31]: 1881  LLC: 2048
rand_sets[31]: 1881
Assign rand_sets[32]: 1770  LLC: 2048
rand_sets[32]: 1770
Assign rand_sets[33]: 1622  LLC: 2048
rand_sets[33]: 1622
Assign rand_sets[34]: 275  LLC: 2048
rand_sets[34]: 275
Assign rand_sets[35]: 635  LLC: 2048
rand_sets[35]: 635
Assign rand_sets[36]: 466  LLC: 2048
rand_sets[36]: 466
Assign rand_sets[37]: 1413  LLC: 2048
rand_sets[37]: 1413
Assign rand_sets[38]: 417  LLC: 2048
rand_sets[38]: 417
Assign rand_sets[39]: 472  LLC: 2048
rand_sets[39]: 472
Assign rand_sets[40]: 1340  LLC: 2048
rand_sets[40]: 1340
Assign rand_sets[41]: 852  LLC: 2048
rand_sets[41]: 852
Assign rand_sets[42]: 1365  LLC: 2048
rand_sets[42]: 1365
Assign rand_sets[43]: 47  LLC: 2048
rand_sets[43]: 47
Assign rand_sets[44]: 823  LLC: 2048
rand_sets[44]: 823
Assign rand_sets[45]: 686  LLC: 2048
rand_sets[45]: 686
Assign rand_sets[46]: 1637  LLC: 2048
rand_sets[46]: 1637
Assign rand_sets[47]: 1115  LLC: 2048
rand_sets[47]: 1115
Assign rand_sets[48]: 986  LLC: 2048
rand_sets[48]: 986
Assign rand_sets[49]: 258  LLC: 2048
rand_sets[49]: 258
Assign rand_sets[50]: 633  LLC: 2048
rand_sets[50]: 633
Assign rand_sets[51]: 920  LLC: 2048
rand_sets[51]: 920
Assign rand_sets[52]: 204  LLC: 2048
rand_sets[52]: 204
Assign rand_sets[53]: 227  LLC: 2048
rand_sets[53]: 227
Assign rand_sets[54]: 1818  LLC: 2048
rand_sets[54]: 1818
Assign rand_sets[55]: 886  LLC: 2048
rand_sets[55]: 886
Assign rand_sets[56]: 1422  LLC: 2048
rand_sets[56]: 1422
Assign rand_sets[57]: 607  LLC: 2048
rand_sets[57]: 607
Assign rand_sets[58]: 217  LLC: 2048
rand_sets[58]: 217
Assign rand_sets[59]: 1945  LLC: 2048
rand_sets[59]: 1945
Assign rand_sets[60]: 143  LLC: 2048
rand_sets[60]: 143
Assign rand_sets[61]: 1311  LLC: 2048
rand_sets[61]: 1311
Assign rand_sets[62]: 319  LLC: 2048
rand_sets[62]: 319
Assign rand_sets[63]: 1846  LLC: 2048
rand_sets[63]: 1846
 CLEAN-RRIP-POLICY-1: 2-3-2-3-2-3-0-0- CLEAN-RRIP-POLICY-2: 2-3-2-3-2-3-0-0-
 DIRTY-RRIP-POLICY-1: 0-3-2-3-0-3-2-0- DIRTY-RRIP-POLICY-2: 0-3-2-3-0-3-2-0-
 PSEL width: 10
Heartbeat CPU 0 instructions: 10000001 cycles: 7316035 heartbeat IPC: 1.36686 cumulative IPC: 1.36686 (Simulation time: 0 hr 0 min 15 sec) 
Heartbeat CPU 0 instructions: 20000000 cycles: 14307582 heartbeat IPC: 1.4303 cumulative IPC: 1.39786 (Simulation time: 0 hr 0 min 29 sec) 
Heartbeat CPU 0 instructions: 30000001 cycles: 21020646 heartbeat IPC: 1.48963 cumulative IPC: 1.42717 (Simulation time: 0 hr 0 min 46 sec) 
Heartbeat CPU 0 instructions: 40000000 cycles: 27481857 heartbeat IPC: 1.5477 cumulative IPC: 1.45551 (Simulation time: 0 hr 1 min 2 sec) 
Heartbeat CPU 0 instructions: 50000001 cycles: 33583481 heartbeat IPC: 1.63891 cumulative IPC: 1.48883 (Simulation time: 0 hr 1 min 18 sec) 
Heartbeat CPU 0 instructions: 60000000 cycles: 40064735 heartbeat IPC: 1.54291 cumulative IPC: 1.49758 (Simulation time: 0 hr 1 min 34 sec) 
Heartbeat CPU 0 instructions: 70000000 cycles: 47102164 heartbeat IPC: 1.42097 cumulative IPC: 1.48613 (Simulation time: 0 hr 1 min 49 sec) 
Heartbeat CPU 0 instructions: 80000000 cycles: 54192002 heartbeat IPC: 1.41047 cumulative IPC: 1.47623 (Simulation time: 0 hr 2 min 4 sec) 
Heartbeat CPU 0 instructions: 90000003 cycles: 61196495 heartbeat IPC: 1.42766 cumulative IPC: 1.47067 (Simulation time: 0 hr 2 min 19 sec) 
Heartbeat CPU 0 instructions: 100000000 cycles: 68364010 heartbeat IPC: 1.39518 cumulative IPC: 1.46276 (Simulation time: 0 hr 2 min 34 sec) 

Warmup complete CPU 0 instructions: 100000004 cycles: 68364011 (Simulation time: 0 hr 2 min 34 sec) 

Heartbeat CPU 0 instructions: 110000003 cycles: 96131491 heartbeat IPC: 0.360134 cumulative IPC: 0.360133 (Simulation time: 0 hr 3 min 2 sec) 
Heartbeat CPU 0 instructions: 120000000 cycles: 123769276 heartbeat IPC: 0.361823 cumulative IPC: 0.360976 (Simulation time: 0 hr 3 min 32 sec) 
Heartbeat CPU 0 instructions: 130000000 cycles: 148853552 heartbeat IPC: 0.398656 cumulative IPC: 0.372719 (Simulation time: 0 hr 4 min 1 sec) 
Heartbeat CPU 0 instructions: 140000000 cycles: 178412750 heartbeat IPC: 0.338304 cumulative IPC: 0.363475 (Simulation time: 0 hr 4 min 29 sec) 
Heartbeat CPU 0 instructions: 150000000 cycles: 208369116 heartbeat IPC: 0.333819 cumulative IPC: 0.35713 (Simulation time: 0 hr 4 min 58 sec) 
Heartbeat CPU 0 instructions: 160000000 cycles: 235837872 heartbeat IPC: 0.36405 cumulative IPC: 0.358265 (Simulation time: 0 hr 5 min 26 sec) 
Heartbeat CPU 0 instructions: 170000001 cycles: 263936740 heartbeat IPC: 0.355886 cumulative IPC: 0.357923 (Simulation time: 0 hr 5 min 56 sec) 
Heartbeat CPU 0 instructions: 180000000 cycles: 292468191 heartbeat IPC: 0.35049 cumulative IPC: 0.356977 (Simulation time: 0 hr 6 min 26 sec) 
Heartbeat CPU 0 instructions: 190000002 cycles: 320533630 heartbeat IPC: 0.35631 cumulative IPC: 0.356903 (Simulation time: 0 hr 6 min 55 sec) 
Heartbeat CPU 0 instructions: 200000000 cycles: 348954642 heartbeat IPC: 0.351852 cumulative IPC: 0.356391 (Simulation time: 0 hr 7 min 24 sec) 
Heartbeat CPU 0 instructions: 210000002 cycles: 376833543 heartbeat IPC: 0.358694 cumulative IPC: 0.356599 (Simulation time: 0 hr 7 min 53 sec) 
Heartbeat CPU 0 instructions: 220000000 cycles: 406018087 heartbeat IPC: 0.342647 cumulative IPC: 0.355393 (Simulation time: 0 hr 8 min 21 sec) 
Heartbeat CPU 0 instructions: 230000000 cycles: 433680997 heartbeat IPC: 0.361495 cumulative IPC: 0.355855 (Simulation time: 0 hr 8 min 49 sec) 
Heartbeat CPU 0 instructions: 240000000 cycles: 459886422 heartbeat IPC: 0.3816 cumulative IPC: 0.357578 (Simulation time: 0 hr 9 min 17 sec) 
Heartbeat CPU 0 instructions: 250000000 cycles: 490205232 heartbeat IPC: 0.329828 cumulative IPC: 0.355584 (Simulation time: 0 hr 9 min 47 sec) 
Heartbeat CPU 0 instructions: 260000000 cycles: 517411861 heartbeat IPC: 0.367557 cumulative IPC: 0.356309 (Simulation time: 0 hr 10 min 16 sec) 
Heartbeat CPU 0 instructions: 270000003 cycles: 545896345 heartbeat IPC: 0.351068 cumulative IPC: 0.355997 (Simulation time: 0 hr 10 min 46 sec) 
Heartbeat CPU 0 instructions: 280000000 cycles: 574203595 heartbeat IPC: 0.353266 cumulative IPC: 0.355844 (Simulation time: 0 hr 11 min 15 sec) 
Heartbeat CPU 0 instructions: 290000000 cycles: 603135663 heartbeat IPC: 0.345637 cumulative IPC: 0.355292 (Simulation time: 0 hr 11 min 46 sec) 
Heartbeat CPU 0 instructions: 300000000 cycles: 633109209 heartbeat IPC: 0.333628 cumulative IPC: 0.354142 (Simulation time: 0 hr 12 min 14 sec) 
Heartbeat CPU 0 instructions: 310000001 cycles: 662597917 heartbeat IPC: 0.339113 cumulative IPC: 0.353396 (Simulation time: 0 hr 12 min 43 sec) 
Heartbeat CPU 0 instructions: 320000000 cycles: 690871165 heartbeat IPC: 0.353691 cumulative IPC: 0.35341 (Simulation time: 0 hr 13 min 11 sec) 
Heartbeat CPU 0 instructions: 330000000 cycles: 719560609 heartbeat IPC: 0.34856 cumulative IPC: 0.353196 (Simulation time: 0 hr 13 min 40 sec) 
Heartbeat CPU 0 instructions: 340000000 cycles: 748960268 heartbeat IPC: 0.34014 cumulative IPC: 0.352632 (Simulation time: 0 hr 14 min 9 sec) 
Heartbeat CPU 0 instructions: 350000003 cycles: 776018603 heartbeat IPC: 0.369572 cumulative IPC: 0.35328 (Simulation time: 0 hr 14 min 37 sec) 
Heartbeat CPU 0 instructions: 360000000 cycles: 804237884 heartbeat IPC: 0.354368 cumulative IPC: 0.353321 (Simulation time: 0 hr 15 min 5 sec) 
Heartbeat CPU 0 instructions: 370000000 cycles: 832517300 heartbeat IPC: 0.353614 cumulative IPC: 0.353332 (Simulation time: 0 hr 15 min 32 sec) 
Heartbeat CPU 0 instructions: 380000000 cycles: 861107792 heartbeat IPC: 0.349767 cumulative IPC: 0.353204 (Simulation time: 0 hr 16 min 0 sec) 
Heartbeat CPU 0 instructions: 390000001 cycles: 888768661 heartbeat IPC: 0.361522 cumulative IPC: 0.353484 (Simulation time: 0 hr 16 min 28 sec) 
Heartbeat CPU 0 instructions: 400000000 cycles: 917459630 heartbeat IPC: 0.348542 cumulative IPC: 0.353317 (Simulation time: 0 hr 16 min 55 sec) 
Heartbeat CPU 0 instructions: 410000001 cycles: 944826142 heartbeat IPC: 0.36541 cumulative IPC: 0.353695 (Simulation time: 0 hr 17 min 23 sec) 
Heartbeat CPU 0 instructions: 420000000 cycles: 972193289 heartbeat IPC: 0.365402 cumulative IPC: 0.354049 (Simulation time: 0 hr 17 min 50 sec) 
Heartbeat CPU 0 instructions: 430000002 cycles: 999933511 heartbeat IPC: 0.360487 cumulative IPC: 0.354241 (Simulation time: 0 hr 18 min 18 sec) 
Heartbeat CPU 0 instructions: 440000000 cycles: 1029502335 heartbeat IPC: 0.338194 cumulative IPC: 0.353747 (Simulation time: 0 hr 18 min 46 sec) 
Heartbeat CPU 0 instructions: 450000002 cycles: 1058792122 heartbeat IPC: 0.341416 cumulative IPC: 0.353383 (Simulation time: 0 hr 19 min 14 sec) 
Heartbeat CPU 0 instructions: 460000000 cycles: 1086539023 heartbeat IPC: 0.360401 cumulative IPC: 0.353574 (Simulation time: 0 hr 19 min 41 sec) 
Heartbeat CPU 0 instructions: 470000000 cycles: 1114217263 heartbeat IPC: 0.361295 cumulative IPC: 0.353778 (Simulation time: 0 hr 20 min 9 sec) 
Heartbeat CPU 0 instructions: 480000000 cycles: 1142146200 heartbeat IPC: 0.358052 cumulative IPC: 0.353889 (Simulation time: 0 hr 20 min 36 sec) 
Heartbeat CPU 0 instructions: 490000000 cycles: 1169788890 heartbeat IPC: 0.361759 cumulative IPC: 0.354087 (Simulation time: 0 hr 21 min 4 sec) 
Heartbeat CPU 0 instructions: 500000000 cycles: 1198101108 heartbeat IPC: 0.353204 cumulative IPC: 0.354065 (Simulation time: 0 hr 21 min 32 sec) 
Heartbeat CPU 0 instructions: 510000000 cycles: 1233433656 heartbeat IPC: 0.283025 cumulative IPC: 0.35191 (Simulation time: 0 hr 22 min 3 sec) 
Heartbeat CPU 0 instructions: 520000000 cycles: 1261351069 heartbeat IPC: 0.358199 cumulative IPC: 0.352057 (Simulation time: 0 hr 22 min 32 sec) 
Heartbeat CPU 0 instructions: 530000001 cycles: 1290987862 heartbeat IPC: 0.337418 cumulative IPC: 0.351703 (Simulation time: 0 hr 23 min 0 sec) 
Heartbeat CPU 0 instructions: 540000000 cycles: 1319250614 heartbeat IPC: 0.353823 cumulative IPC: 0.35175 (Simulation time: 0 hr 23 min 29 sec) 
Heartbeat CPU 0 instructions: 550000001 cycles: 1348691110 heartbeat IPC: 0.339668 cumulative IPC: 0.351473 (Simulation time: 0 hr 23 min 59 sec) 
Heartbeat CPU 0 instructions: 560000000 cycles: 1374273800 heartbeat IPC: 0.390889 cumulative IPC: 0.352245 (Simulation time: 0 hr 24 min 27 sec) 
Heartbeat CPU 0 instructions: 570000000 cycles: 1403972476 heartbeat IPC: 0.336715 cumulative IPC: 0.3519 (Simulation time: 0 hr 24 min 57 sec) 
Heartbeat CPU 0 instructions: 580000000 cycles: 1432193802 heartbeat IPC: 0.354342 cumulative IPC: 0.35195 (Simulation time: 0 hr 25 min 26 sec) 
Heartbeat CPU 0 instructions: 590000001 cycles: 1457304606 heartbeat IPC: 0.398235 cumulative IPC: 0.352787 (Simulation time: 0 hr 25 min 53 sec) 
Heartbeat CPU 0 instructions: 600000000 cycles: 1483947518 heartbeat IPC: 0.375334 cumulative IPC: 0.353211 (Simulation time: 0 hr 26 min 21 sec) 
Finished CPU 0 instructions: 500000000 cycles: 1415583529 cumulative IPC: 0.353211 (Simulation time: 0 hr 26 min 21 sec) 

CPU 0 Branch Prediction Accuracy: 86.4311% MPKI: 26.2662
Number of Branches: 96788573 Number of Mispredictions: 13133102
Number of LOAD Instructions: 164682285
Number of LOAD Instructions (ROI): 164682285
Number of STORE Instructions: 78194750
Number of STORE Instructions (ROI): 78194750
Total Destination Memory Operands: 83268534
Total Destination Memory Operands (ROI): 83268534
Total Source Memory Operands: 164712438
Total Source Memory Operands (ROI): 164712438
Number of DEPENDED LOADS: 7071930
Number of DEPENDED LOADS (ROI): 7071930
Number of SQ_ADDED: 83268522
Number of SQ_ADDED (ROI): 83268522
Number of LQ_ADDED: 236949359
Number of LQ_ADDED (ROI): 236949359
Number of Instructions read from trace: 600000066

ChampSim completed all CPUs

Region of Interest Statistics

CPU 0 cumulative IPC: 0.353211 instructions: 500000000 cycles: 1415583529
ITLB TOTAL     ACCESS:  100506677  HIT:  100302231  MISS:     204446
ITLB LOAD      ACCESS:  100506677  HIT:  100302231  MISS:     204446
ITLB RFO       ACCESS:          0  HIT:          0  MISS:          0
ITLB PREFETCH  ACCESS:          0  HIT:          0  MISS:          0
ITLB WRITEBACK ACCESS:          0  HIT:          0  MISS:          0
ITLB PREFETCH  REQUESTED:          0  ISSUED:          0  USEFUL:          0  USELESS:          0
ITLB TOTAL MSHR MERGED:     172423
ITLB LOAD MSHR MERGED:     172423
ITLB RFO MSHR MERGED:          0
ITLB PREFETCH MSHR MERGED:          0
ITLB WRITEBACK MSHR MERGED:          0
ITLB TOTAL ACCESSES:  100679100 HITS:  100302231 MISSES:     376869
ITLB LOAD ACCESSES:  100679100 HITS:  100302231 MISSES:     376869
ITLB RFO ACCESSES:          0 HITS:          0 MISSES:          0
ITLB PREFETCH ACCESSES:          0 HITS:          0 MISSES:          0
ITLB WRITEBACK ACCESSES:          0 HITS:          0 MISSES:          0
ITLB RQ ACCESS:  500000057
ITLB RQ TO_CACHE:  100679100
ITLB RQ MERGED:  399320957
ITLB RQ FORWARD:          0
ITLB WQ ACCESS:          0
ITLB WQ TO_CACHE:          0
ITLB WQ MERGED:          0
ITLB WQ FORWARD:          0
DTLB TOTAL     ACCESS:  165326170  HIT:  164691821  MISS:     634349
DTLB LOAD      ACCESS:  106282082  HIT:  105712060  MISS:     570022
DTLB RFO       ACCESS:   59044088  HIT:   58979761  MISS:      64327
DTLB PREFETCH  ACCESS:          0  HIT:          0  MISS:          0
DTLB WRITEBACK ACCESS:          0  HIT:          0  MISS:          0
DTLB PREFETCH  REQUESTED:          0  ISSUED:          0  USEFUL:          0  USELESS:          0
DTLB TOTAL MSHR MERGED:     100014
DTLB LOAD MSHR MERGED:      59474
DTLB RFO MSHR MERGED:      40540
DTLB PREFETCH MSHR MERGED:          0
DTLB WRITEBACK MSHR MERGED:          0
DTLB TOTAL ACCESSES:  165426184 HITS:  164691821 MISSES:     734363
DTLB LOAD ACCESSES:  106341556 HITS:  105712060 MISSES:     629496
DTLB RFO ACCESSES:   59084628 HITS:   58979761 MISSES:     104867
DTLB PREFETCH ACCESSES:          0 HITS:          0 MISSES:          0
DTLB WRITEBACK ACCESSES:          0 HITS:          0 MISSES:          0
DTLB RQ ACCESS:  200299096
DTLB RQ TO_CACHE:  165426184
DTLB RQ MERGED:   34872912
DTLB RQ FORWARD:          0
DTLB WQ ACCESS:          0
DTLB WQ TO_CACHE:          0
DTLB WQ MERGED:          0
DTLB WQ FORWARD:          0
L1D TOTAL     ACCESS:  281711458  HIT:  273802356  MISS:    7909102
L1D LOAD      ACCESS:  110393978  HIT:  107106222  MISS:    3287756
L1D RFO       ACCESS:   67095361  HIT:   66203563  MISS:     891798
L1D PREFETCH  ACCESS:  104222119  HIT:  100492571  MISS:    3729548
L1D WRITEBACK ACCESS:          0  HIT:          0  MISS:          0
L1D PREFETCH  REQUESTED:  110808356  ISSUED:  109109170  USEFUL:    1650521  USELESS:    2078991
L1D TOTAL MSHR MERGED:    2977012
L1D LOAD MSHR MERGED:     521861
L1D RFO MSHR MERGED:    1891273
L1D PREFETCH MSHR MERGED:     563878
L1D WRITEBACK MSHR MERGED:          0
L1D TOTAL ACCESSES:  284716067 HITS:  273829953 MISSES:   10886114
L1D LOAD ACCESSES:  110809941 HITS:  107107807 MISSES:    3702134
L1D RFO ACCESSES:   68973600 HITS:   66203563 MISSES:    2770037
L1D PREFETCH ACCESSES:  104932526 HITS:  100518583 MISSES:    4413943
L1D WRITEBACK ACCESSES:          0 HITS:          0 MISSES:          0
L1D RQ ACCESS:  130746493
L1D RQ TO_CACHE:  110808359
L1D RQ MERGED:   19936549
L1D RQ FORWARD:          0
L1D WQ ACCESS:   69552603
L1D WQ TO_CACHE:   68973601
L1D WQ MERGED:     579002
L1D WQ FORWARD:      27597
L1I TOTAL     ACCESS:  126552872  HIT:  122314320  MISS:    4238552
L1I LOAD      ACCESS:  126552872  HIT:  122314320  MISS:    4238552
L1I RFO       ACCESS:          0  HIT:          0  MISS:          0
L1I PREFETCH  ACCESS:          0  HIT:          0  MISS:          0
L1I WRITEBACK ACCESS:          0  HIT:          0  MISS:          0
L1I PREFETCH  REQUESTED:          0  ISSUED:          0  USEFUL:          0  USELESS:          0
L1I TOTAL MSHR MERGED:    1834536
L1I LOAD MSHR MERGED:    1834536
L1I RFO MSHR MERGED:          0
L1I PREFETCH MSHR MERGED:          0
L1I WRITEBACK MSHR MERGED:          0
L1I TOTAL ACCESSES:  128387411 HITS:  122314320 MISSES:    6073091
L1I LOAD ACCESSES:  128387411 HITS:  122314320 MISSES:    6073091
L1I RFO ACCESSES:          0 HITS:          0 MISSES:          0
L1I PREFETCH ACCESSES:          0 HITS:          0 MISSES:          0
L1I WRITEBACK ACCESSES:          0 HITS:          0 MISSES:          0
L1I RQ ACCESS:  500000057
L1I RQ TO_CACHE:  128387411
L1I RQ MERGED:  371612646
L1I RQ FORWARD:          0
L1I WQ ACCESS:          0
L1I WQ TO_CACHE:          0
L1I WQ MERGED:          0
L1I WQ FORWARD:          0
L2C TOTAL     ACCESS:   14901822  HIT:   11155427  MISS:    3746395
L2C LOAD      ACCESS:    7418618  HIT:    5097892  MISS:    2320726
L2C RFO       ACCESS:     878667  HIT:     409885  MISS:     468782
L2C PREFETCH  ACCESS:    4565341  HIT:    3625708  MISS:     939633
L2C WRITEBACK ACCESS:    2039196  HIT:    2021942  MISS:      17254
L2C PREFETCH  REQUESTED:     842079  ISSUED:     842079  USEFUL:     202550  USELESS:     736788
L2C TOTAL MSHR MERGED:       9716
L2C LOAD MSHR MERGED:       1539
L2C RFO MSHR MERGED:          0
L2C PREFETCH MSHR MERGED:       8177
L2C WRITEBACK MSHR MERGED:          0
L2C TOTAL ACCESSES:   14912542 HITS:   11155874 MISSES:    3756668
L2C LOAD ACCESSES:    7418825 HITS:    5098099 MISSES:    2320726
L2C RFO ACCESSES:     878764 HITS:     409982 MISSES:     468782
L2C PREFETCH ACCESSES:    4575757 HITS:    3625851 MISSES:     949906
L2C WRITEBACK ACCESSES:    2039196 HITS:    2021942 MISSES:      17254
L2C RQ ACCESS:    8297592
L2C RQ TO_CACHE:    8297288
L2C RQ MERGED:          0
L2C RQ FORWARD:          0
L2C WQ ACCESS:    2039196
L2C WQ TO_CACHE:    2039196
L2C WQ MERGED:          0
L2C WQ FORWARD:        447
LLC TOTAL     ACCESS:    4609802  HIT:    3637971  MISS:     971831
LLC LOAD      ACCESS:    2319175  HIT:    2053402  MISS:     265773
LLC RFO       ACCESS:     468774  HIT:     371460  MISS:      97314
LLC PREFETCH  ACCESS:     941580  HIT:     473930  MISS:     467650
LLC WRITEBACK ACCESS:     880273  HIT:     739179  MISS:     141094
LLC PREFETCH  REQUESTED:          0  ISSUED:          0  USEFUL:      12109  USELESS:     456067
LLC TOTAL MSHR MERGED:        134
LLC LOAD MSHR MERGED:         42
LLC RFO MSHR MERGED:          0
LLC PREFETCH MSHR MERGED:         92
LLC WRITEBACK MSHR MERGED:          0
LLC TOTAL ACCESSES:    4609965 HITS:    3638000 MISSES:     971965
LLC LOAD ACCESSES:    2319187 HITS:    2053414 MISSES:     265773
LLC RFO ACCESSES:     468782 HITS:     371468 MISSES:      97314
LLC PREFETCH ACCESSES:     941723 HITS:     473939 MISSES:     467784
LLC WRITEBACK ACCESSES:     880273 HITS:     739179 MISSES:     141094
LLC 0 RQ ACCESS:    2787969
LLC 0 RQ TO_CACHE:    2787949
LLC 0 RQ MERGED:          0
LLC 0 RQ FORWARD:          0
LLC WQ ACCESS:     880273
LLC WQ TO_CACHE:     880273
LLC WQ MERGED:          0
LLC WQ FORWARD:         29
Major fault: 0 Minor fault: 12862
CPU 0 L1D next line prefetcher final stats
CPU 0 L2C PC-based stride prefetcher final stats
All Misses: 1172871
All Hits: 4253937
SD Algo Stats - Switches: 0 SRR-Repls: 306645 BRR-Repls: 0

DRAM Statistics
 CHANNEL 0
 RQ ROW_BUFFER_HIT:     155325  ROW_BUFFER_MISS:     670584
 DBUS_CONGESTED:     482620
 WQ ROW_BUFFER_HIT:      33133  ROW_BUFFER_MISS:     266056  FULL:          0

 AVG_CONGESTED_CYCLE: 13
LOADS RETIRED: 136549171
INSTR RETIRED: 500000000
