
*** ChampSim Multicore Out-of-Order Simulator ***

Warmup Instructions: 100000000
Simulation Instructions: 500000000
Number of CPUs: 1
LLC sets: 2048
LLC ways: 16
Clean RRIP Policies: 2213030122130301 Dirty RRIP Policies: 2213130122131301 PSEL Width: 10 Track Set: 4294967295 PSEL Mask: 1 Demote Mask: 3340201033402010DS Algo: 0Window size: 0
Off-chip DRAM Size: 4096 MB Channels: 1 Width: 64-bit Data Rate: 1600 MT/s

CPU 0 runs /mnt/beegfs/iconst01/spec2017/Wrf.trace.gz
NOT SORTED
TRACE STRING: /mnt/beegfs/iconst01/spec2017/Wrf.trace.gz
SORTED
TRACE STRING: /mnt/beegfs/iconst01/spec2017/Wrf.trace.gz
INITIAL
TRACE STRING: /mnt/beegfs/iconst01/spec2017/Wrf.trace.gz

champsim_seed used: 303

CPU 0 L1D next line prefetcher
CPU 0 L2C IP-based stride prefetcher
Initialize DRRIP state
Assign rand_sets[0]: 454  LLC: 2048
rand_sets[0]: 454
Assign rand_sets[1]: 1662  LLC: 2048
rand_sets[1]: 1662
Assign rand_sets[2]: 1921  LLC: 2048
rand_sets[2]: 1921
Assign rand_sets[3]: 1131  LLC: 2048
rand_sets[3]: 1131
Assign rand_sets[4]: 331  LLC: 2048
rand_sets[4]: 331
Assign rand_sets[5]: 1531  LLC: 2048
rand_sets[5]: 1531
Assign rand_sets[6]: 482  LLC: 2048
rand_sets[6]: 482
Assign rand_sets[7]: 1275  LLC: 2048
rand_sets[7]: 1275
Assign rand_sets[8]: 1876  LLC: 2048
rand_sets[8]: 1876
Assign rand_sets[9]: 2038  LLC: 2048
rand_sets[9]: 2038
Assign rand_sets[10]: 701  LLC: 2048
rand_sets[10]: 701
Assign rand_sets[11]: 479  LLC: 2048
rand_sets[11]: 479
Assign rand_sets[12]: 892  LLC: 2048
rand_sets[12]: 892
Assign rand_sets[13]: 1820  LLC: 2048
rand_sets[13]: 1820
Assign rand_sets[14]: 1505  LLC: 2048
rand_sets[14]: 1505
Assign rand_sets[15]: 1159  LLC: 2048
rand_sets[15]: 1159
Assign rand_sets[16]: 513  LLC: 2048
rand_sets[16]: 513
Assign rand_sets[17]: 703  LLC: 2048
rand_sets[17]: 703
Assign rand_sets[18]: 561  LLC: 2048
rand_sets[18]: 561
Assign rand_sets[19]: 990  LLC: 2048
rand_sets[19]: 990
Assign rand_sets[20]: 342  LLC: 2048
rand_sets[20]: 342
Assign rand_sets[21]: 882  LLC: 2048
rand_sets[21]: 882
Assign rand_sets[22]: 15  LLC: 2048
rand_sets[22]: 15
Assign rand_sets[23]: 71  LLC: 2048
rand_sets[23]: 71
Assign rand_sets[24]: 1127  LLC: 2048
rand_sets[24]: 1127
Assign rand_sets[25]: 1382  LLC: 2048
rand_sets[25]: 1382
Assign rand_sets[26]: 647  LLC: 2048
rand_sets[26]: 647
Assign rand_sets[27]: 857  LLC: 2048
rand_sets[27]: 857
Assign rand_sets[28]: 1450  LLC: 2048
rand_sets[28]: 1450
Assign rand_sets[29]: 1160  LLC: 2048
rand_sets[29]: 1160
Assign rand_sets[30]: 1852  LLC: 2048
rand_sets[30]: 1852
Assign rand_sets[31]: 1881  LLC: 2048
rand_sets[31]: 1881
Assign rand_sets[32]: 1770  LLC: 2048
rand_sets[32]: 1770
Assign rand_sets[33]: 1622  LLC: 2048
rand_sets[33]: 1622
Assign rand_sets[34]: 275  LLC: 2048
rand_sets[34]: 275
Assign rand_sets[35]: 635  LLC: 2048
rand_sets[35]: 635
Assign rand_sets[36]: 466  LLC: 2048
rand_sets[36]: 466
Assign rand_sets[37]: 1413  LLC: 2048
rand_sets[37]: 1413
Assign rand_sets[38]: 417  LLC: 2048
rand_sets[38]: 417
Assign rand_sets[39]: 472  LLC: 2048
rand_sets[39]: 472
Assign rand_sets[40]: 1340  LLC: 2048
rand_sets[40]: 1340
Assign rand_sets[41]: 852  LLC: 2048
rand_sets[41]: 852
Assign rand_sets[42]: 1365  LLC: 2048
rand_sets[42]: 1365
Assign rand_sets[43]: 47  LLC: 2048
rand_sets[43]: 47
Assign rand_sets[44]: 823  LLC: 2048
rand_sets[44]: 823
Assign rand_sets[45]: 686  LLC: 2048
rand_sets[45]: 686
Assign rand_sets[46]: 1637  LLC: 2048
rand_sets[46]: 1637
Assign rand_sets[47]: 1115  LLC: 2048
rand_sets[47]: 1115
Assign rand_sets[48]: 986  LLC: 2048
rand_sets[48]: 986
Assign rand_sets[49]: 258  LLC: 2048
rand_sets[49]: 258
Assign rand_sets[50]: 633  LLC: 2048
rand_sets[50]: 633
Assign rand_sets[51]: 920  LLC: 2048
rand_sets[51]: 920
Assign rand_sets[52]: 204  LLC: 2048
rand_sets[52]: 204
Assign rand_sets[53]: 227  LLC: 2048
rand_sets[53]: 227
Assign rand_sets[54]: 1818  LLC: 2048
rand_sets[54]: 1818
Assign rand_sets[55]: 886  LLC: 2048
rand_sets[55]: 886
Assign rand_sets[56]: 1422  LLC: 2048
rand_sets[56]: 1422
Assign rand_sets[57]: 607  LLC: 2048
rand_sets[57]: 607
Assign rand_sets[58]: 217  LLC: 2048
rand_sets[58]: 217
Assign rand_sets[59]: 1945  LLC: 2048
rand_sets[59]: 1945
Assign rand_sets[60]: 143  LLC: 2048
rand_sets[60]: 143
Assign rand_sets[61]: 1311  LLC: 2048
rand_sets[61]: 1311
Assign rand_sets[62]: 319  LLC: 2048
rand_sets[62]: 319
Assign rand_sets[63]: 1846  LLC: 2048
rand_sets[63]: 1846
 CLEAN-RRIP-POLICY-1: 2-2-1-3-0-3-0-1- CLEAN-RRIP-POLICY-2: 2-2-1-3-0-3-0-1-
 DIRTY-RRIP-POLICY-1: 2-2-1-3-1-3-0-1- DIRTY-RRIP-POLICY-2: 2-2-1-3-1-3-0-1-
 PSEL width: 10
Heartbeat CPU 0 instructions: 10000002 cycles: 6559549 heartbeat IPC: 1.5245 cumulative IPC: 1.5245 (Simulation time: 0 hr 0 min 21 sec) 
Heartbeat CPU 0 instructions: 20000000 cycles: 12222168 heartbeat IPC: 1.76597 cumulative IPC: 1.63637 (Simulation time: 0 hr 0 min 41 sec) 
Heartbeat CPU 0 instructions: 30000003 cycles: 18203968 heartbeat IPC: 1.67174 cumulative IPC: 1.64799 (Simulation time: 0 hr 1 min 1 sec) 
Heartbeat CPU 0 instructions: 40000000 cycles: 24059303 heartbeat IPC: 1.70784 cumulative IPC: 1.66256 (Simulation time: 0 hr 1 min 21 sec) 
Heartbeat CPU 0 instructions: 50000000 cycles: 29527694 heartbeat IPC: 1.82869 cumulative IPC: 1.69333 (Simulation time: 0 hr 1 min 41 sec) 
Heartbeat CPU 0 instructions: 60000000 cycles: 35640506 heartbeat IPC: 1.63591 cumulative IPC: 1.68348 (Simulation time: 0 hr 2 min 2 sec) 
Heartbeat CPU 0 instructions: 70000000 cycles: 41360184 heartbeat IPC: 1.74835 cumulative IPC: 1.69245 (Simulation time: 0 hr 2 min 21 sec) 
Heartbeat CPU 0 instructions: 80000000 cycles: 47231120 heartbeat IPC: 1.70331 cumulative IPC: 1.6938 (Simulation time: 0 hr 2 min 41 sec) 
Heartbeat CPU 0 instructions: 90000000 cycles: 52984602 heartbeat IPC: 1.73808 cumulative IPC: 1.69861 (Simulation time: 0 hr 3 min 2 sec) 
Heartbeat CPU 0 instructions: 100000000 cycles: 58537420 heartbeat IPC: 1.80089 cumulative IPC: 1.70831 (Simulation time: 0 hr 3 min 21 sec) 

Warmup complete CPU 0 instructions: 100000004 cycles: 58537422 (Simulation time: 0 hr 3 min 21 sec) 

Heartbeat CPU 0 instructions: 110000001 cycles: 72751624 heartbeat IPC: 0.703522 cumulative IPC: 0.703522 (Simulation time: 0 hr 3 min 46 sec) 
Heartbeat CPU 0 instructions: 120000000 cycles: 84323605 heartbeat IPC: 0.864156 cumulative IPC: 0.775609 (Simulation time: 0 hr 4 min 10 sec) 
Heartbeat CPU 0 instructions: 130000000 cycles: 94648113 heartbeat IPC: 0.968569 cumulative IPC: 0.830779 (Simulation time: 0 hr 4 min 32 sec) 
Heartbeat CPU 0 instructions: 140000000 cycles: 105718136 heartbeat IPC: 0.903341 cumulative IPC: 0.847804 (Simulation time: 0 hr 4 min 55 sec) 
Heartbeat CPU 0 instructions: 150000002 cycles: 117152614 heartbeat IPC: 0.874548 cumulative IPC: 0.853021 (Simulation time: 0 hr 5 min 18 sec) 
Heartbeat CPU 0 instructions: 160000000 cycles: 126156160 heartbeat IPC: 1.11067 cumulative IPC: 0.887328 (Simulation time: 0 hr 5 min 40 sec) 
Heartbeat CPU 0 instructions: 170000003 cycles: 137040272 heartbeat IPC: 0.918771 cumulative IPC: 0.891687 (Simulation time: 0 hr 6 min 2 sec) 
Heartbeat CPU 0 instructions: 180000000 cycles: 150023280 heartbeat IPC: 0.770237 cumulative IPC: 0.874452 (Simulation time: 0 hr 6 min 27 sec) 
Heartbeat CPU 0 instructions: 190000000 cycles: 165100905 heartbeat IPC: 0.663234 cumulative IPC: 0.844567 (Simulation time: 0 hr 6 min 50 sec) 
Heartbeat CPU 0 instructions: 200000000 cycles: 180156946 heartbeat IPC: 0.664185 cumulative IPC: 0.822236 (Simulation time: 0 hr 7 min 14 sec) 
Heartbeat CPU 0 instructions: 210000000 cycles: 195201333 heartbeat IPC: 0.6647 cumulative IPC: 0.804894 (Simulation time: 0 hr 7 min 37 sec) 
Heartbeat CPU 0 instructions: 220000000 cycles: 210980649 heartbeat IPC: 0.633741 cumulative IPC: 0.787178 (Simulation time: 0 hr 8 min 3 sec) 
Heartbeat CPU 0 instructions: 230000003 cycles: 229621073 heartbeat IPC: 0.536469 cumulative IPC: 0.759862 (Simulation time: 0 hr 8 min 31 sec) 
Heartbeat CPU 0 instructions: 240000000 cycles: 239133469 heartbeat IPC: 1.05126 cumulative IPC: 0.775211 (Simulation time: 0 hr 8 min 52 sec) 
Heartbeat CPU 0 instructions: 250000000 cycles: 248289338 heartbeat IPC: 1.0922 cumulative IPC: 0.790506 (Simulation time: 0 hr 9 min 13 sec) 
Heartbeat CPU 0 instructions: 260000000 cycles: 257994015 heartbeat IPC: 1.03043 cumulative IPC: 0.80218 (Simulation time: 0 hr 9 min 35 sec) 
Heartbeat CPU 0 instructions: 270000000 cycles: 267855142 heartbeat IPC: 1.01408 cumulative IPC: 0.812162 (Simulation time: 0 hr 9 min 57 sec) 
Heartbeat CPU 0 instructions: 280000000 cycles: 277595590 heartbeat IPC: 1.02665 cumulative IPC: 0.8217 (Simulation time: 0 hr 10 min 20 sec) 
Heartbeat CPU 0 instructions: 290000000 cycles: 287578418 heartbeat IPC: 1.00172 cumulative IPC: 0.829546 (Simulation time: 0 hr 10 min 44 sec) 
Heartbeat CPU 0 instructions: 300000000 cycles: 296246316 heartbeat IPC: 1.15368 cumulative IPC: 0.841365 (Simulation time: 0 hr 11 min 6 sec) 
Heartbeat CPU 0 instructions: 310000002 cycles: 309941356 heartbeat IPC: 0.730192 cumulative IPC: 0.835309 (Simulation time: 0 hr 11 min 31 sec) 
Heartbeat CPU 0 instructions: 320000000 cycles: 326139275 heartbeat IPC: 0.617363 cumulative IPC: 0.822117 (Simulation time: 0 hr 11 min 59 sec) 
Heartbeat CPU 0 instructions: 330000002 cycles: 336760201 heartbeat IPC: 0.941538 cumulative IPC: 0.826676 (Simulation time: 0 hr 12 min 22 sec) 
Heartbeat CPU 0 instructions: 340000000 cycles: 347247111 heartbeat IPC: 0.95357 cumulative IPC: 0.831285 (Simulation time: 0 hr 12 min 45 sec) 
Heartbeat CPU 0 instructions: 350000002 cycles: 360633783 heartbeat IPC: 0.747012 cumulative IPC: 0.827551 (Simulation time: 0 hr 13 min 10 sec) 
Heartbeat CPU 0 instructions: 360000000 cycles: 371630662 heartbeat IPC: 0.909349 cumulative IPC: 0.830424 (Simulation time: 0 hr 13 min 34 sec) 
Heartbeat CPU 0 instructions: 370000002 cycles: 382387708 heartbeat IPC: 0.929623 cumulative IPC: 0.833719 (Simulation time: 0 hr 13 min 57 sec) 
Heartbeat CPU 0 instructions: 380000000 cycles: 392812448 heartbeat IPC: 0.959256 cumulative IPC: 0.837634 (Simulation time: 0 hr 14 min 20 sec) 
Heartbeat CPU 0 instructions: 390000003 cycles: 410277959 heartbeat IPC: 0.572557 cumulative IPC: 0.824471 (Simulation time: 0 hr 14 min 48 sec) 
Heartbeat CPU 0 instructions: 400000000 cycles: 422295585 heartbeat IPC: 0.832111 cumulative IPC: 0.824724 (Simulation time: 0 hr 15 min 11 sec) 
Heartbeat CPU 0 instructions: 410000002 cycles: 432663003 heartbeat IPC: 0.964561 cumulative IPC: 0.828599 (Simulation time: 0 hr 15 min 33 sec) 
Heartbeat CPU 0 instructions: 420000000 cycles: 442649611 heartbeat IPC: 1.00134 cumulative IPC: 0.83309 (Simulation time: 0 hr 15 min 54 sec) 
Heartbeat CPU 0 instructions: 430000001 cycles: 452638858 heartbeat IPC: 1.00108 cumulative IPC: 0.837348 (Simulation time: 0 hr 16 min 16 sec) 
Heartbeat CPU 0 instructions: 440000000 cycles: 464361493 heartbeat IPC: 0.85305 cumulative IPC: 0.837801 (Simulation time: 0 hr 16 min 38 sec) 
Heartbeat CPU 0 instructions: 450000002 cycles: 479445552 heartbeat IPC: 0.662952 cumulative IPC: 0.831535 (Simulation time: 0 hr 17 min 1 sec) 
Heartbeat CPU 0 instructions: 460000000 cycles: 494505891 heartbeat IPC: 0.663996 cumulative IPC: 0.825748 (Simulation time: 0 hr 17 min 25 sec) 
Heartbeat CPU 0 instructions: 470000003 cycles: 509558125 heartbeat IPC: 0.664353 cumulative IPC: 0.820361 (Simulation time: 0 hr 17 min 48 sec) 
Heartbeat CPU 0 instructions: 480000000 cycles: 525370616 heartbeat IPC: 0.632411 cumulative IPC: 0.813995 (Simulation time: 0 hr 18 min 14 sec) 
Heartbeat CPU 0 instructions: 490000002 cycles: 544118885 heartbeat IPC: 0.533383 cumulative IPC: 0.803161 (Simulation time: 0 hr 18 min 41 sec) 
Heartbeat CPU 0 instructions: 500000000 cycles: 553572754 heartbeat IPC: 1.05777 cumulative IPC: 0.808023 (Simulation time: 0 hr 19 min 3 sec) 
Heartbeat CPU 0 instructions: 510000003 cycles: 562750959 heartbeat IPC: 1.08954 cumulative IPC: 0.813148 (Simulation time: 0 hr 19 min 24 sec) 
Heartbeat CPU 0 instructions: 520000000 cycles: 572435243 heartbeat IPC: 1.0326 cumulative IPC: 0.817283 (Simulation time: 0 hr 19 min 45 sec) 
Heartbeat CPU 0 instructions: 530000002 cycles: 582313399 heartbeat IPC: 1.01233 cumulative IPC: 0.820962 (Simulation time: 0 hr 20 min 7 sec) 
Heartbeat CPU 0 instructions: 540000000 cycles: 592008736 heartbeat IPC: 1.03142 cumulative IPC: 0.824787 (Simulation time: 0 hr 20 min 30 sec) 
Heartbeat CPU 0 instructions: 550000002 cycles: 602027592 heartbeat IPC: 0.998118 cumulative IPC: 0.827982 (Simulation time: 0 hr 20 min 54 sec) 
Heartbeat CPU 0 instructions: 560000000 cycles: 610691603 heartbeat IPC: 1.1542 cumulative IPC: 0.833101 (Simulation time: 0 hr 21 min 15 sec) 
Heartbeat CPU 0 instructions: 570000003 cycles: 624205616 heartbeat IPC: 0.739973 cumulative IPC: 0.830876 (Simulation time: 0 hr 21 min 41 sec) 
Heartbeat CPU 0 instructions: 580000000 cycles: 640547859 heartbeat IPC: 0.611911 cumulative IPC: 0.824727 (Simulation time: 0 hr 22 min 8 sec) 
Heartbeat CPU 0 instructions: 590000002 cycles: 650722749 heartbeat IPC: 0.982812 cumulative IPC: 0.827444 (Simulation time: 0 hr 22 min 31 sec) 
Heartbeat CPU 0 instructions: 600000000 cycles: 661660417 heartbeat IPC: 0.914271 cumulative IPC: 0.829018 (Simulation time: 0 hr 22 min 54 sec) 
Finished CPU 0 instructions: 500000000 cycles: 603123014 cumulative IPC: 0.829018 (Simulation time: 0 hr 22 min 54 sec) 

CPU 0 Branch Prediction Accuracy: 99.5219% MPKI: 0.251582
Number of Branches: 26312578 Number of Mispredictions: 125791
Number of LOAD Instructions: 235643083
Number of LOAD Instructions (ROI): 235643083
Number of STORE Instructions: 37593550
Number of STORE Instructions (ROI): 37593550
Total Destination Memory Operands: 40480968
Total Destination Memory Operands (ROI): 40480968
Total Source Memory Operands: 235643083
Total Source Memory Operands (ROI): 235643083
Number of DEPENDED LOADS: 6699797
Number of DEPENDED LOADS (ROI): 6699797
Number of SQ_ADDED: 40480950
Number of SQ_ADDED (ROI): 40480950
Number of LQ_ADDED: 389335705
Number of LQ_ADDED (ROI): 389335705
Number of Instructions read from trace: 600000259

ChampSim completed all CPUs

Region of Interest Statistics

CPU 0 cumulative IPC: 0.829018 instructions: 500000000 cycles: 603123014
ITLB TOTAL     ACCESS:  109359235  HIT:  109358722  MISS:        513
ITLB LOAD      ACCESS:  109359235  HIT:  109358722  MISS:        513
ITLB RFO       ACCESS:          0  HIT:          0  MISS:          0
ITLB PREFETCH  ACCESS:          0  HIT:          0  MISS:          0
ITLB WRITEBACK ACCESS:          0  HIT:          0  MISS:          0
ITLB PREFETCH  REQUESTED:          0  ISSUED:          0  USEFUL:          0  USELESS:          0
ITLB TOTAL MSHR MERGED:        977
ITLB LOAD MSHR MERGED:        977
ITLB RFO MSHR MERGED:          0
ITLB PREFETCH MSHR MERGED:          0
ITLB WRITEBACK MSHR MERGED:          0
ITLB TOTAL ACCESSES:  109360212 HITS:  109358722 MISSES:       1490
ITLB LOAD ACCESSES:  109360212 HITS:  109358722 MISSES:       1490
ITLB RFO ACCESSES:          0 HITS:          0 MISSES:          0
ITLB PREFETCH ACCESSES:          0 HITS:          0 MISSES:          0
ITLB WRITEBACK ACCESSES:          0 HITS:          0 MISSES:          0
ITLB RQ ACCESS:  500000003
ITLB RQ TO_CACHE:  109360212
ITLB RQ MERGED:  390639791
ITLB RQ FORWARD:          0
ITLB WQ ACCESS:          0
ITLB WQ TO_CACHE:          0
ITLB WQ MERGED:          0
ITLB WQ FORWARD:          0
DTLB TOTAL     ACCESS:  130426810  HIT:  130169168  MISS:     257642
DTLB LOAD      ACCESS:  109051885  HIT:  108831096  MISS:     220789
DTLB RFO       ACCESS:   21374925  HIT:   21338072  MISS:      36853
DTLB PREFETCH  ACCESS:          0  HIT:          0  MISS:          0
DTLB WRITEBACK ACCESS:          0  HIT:          0  MISS:          0
DTLB PREFETCH  REQUESTED:          0  ISSUED:          0  USEFUL:          0  USELESS:          0
DTLB TOTAL MSHR MERGED:     121798
DTLB LOAD MSHR MERGED:      83798
DTLB RFO MSHR MERGED:      38000
DTLB PREFETCH MSHR MERGED:          0
DTLB WRITEBACK MSHR MERGED:          0
DTLB TOTAL ACCESSES:  130548608 HITS:  130169168 MISSES:     379440
DTLB LOAD ACCESSES:  109135683 HITS:  108831096 MISSES:     304587
DTLB RFO ACCESSES:   21412925 HITS:   21338072 MISSES:      74853
DTLB PREFETCH ACCESSES:          0 HITS:          0 MISSES:          0
DTLB WRITEBACK ACCESSES:          0 HITS:          0 MISSES:          0
DTLB RQ ACCESS:  218634612
DTLB RQ TO_CACHE:  130548609
DTLB RQ MERGED:   88086003
DTLB RQ FORWARD:          0
DTLB WQ ACCESS:          0
DTLB WQ TO_CACHE:          0
DTLB WQ MERGED:          0
DTLB WQ FORWARD:          0
L1D TOTAL     ACCESS:  204711074  HIT:  193633494  MISS:   11077580
L1D LOAD      ACCESS:  106279792  HIT:  103121841  MISS:    3157951
L1D RFO       ACCESS:   26938369  HIT:   25188361  MISS:    1750008
L1D PREFETCH  ACCESS:   71492913  HIT:   65323292  MISS:    6169621
L1D WRITEBACK ACCESS:          0  HIT:          0  MISS:          0
L1D PREFETCH  REQUESTED:  108941177  ISSUED:  107283084  USEFUL:    5709639  USELESS:     459976
L1D TOTAL MSHR MERGED:   18280215
L1D LOAD MSHR MERGED:    4656404
L1D RFO MSHR MERGED:    6497310
L1D PREFETCH MSHR MERGED:    7126501
L1D WRITEBACK MSHR MERGED:          0
L1D TOTAL ACCESSES:  223053598 HITS:  193695803 MISSES:   29357795
L1D LOAD ACCESSES:  108967533 HITS:  103148197 MISSES:    5819336
L1D RFO ACCESSES:   33433535 HITS:   25188361 MISSES:    8245174
L1D PREFETCH ACCESSES:   80652530 HITS:   65359245 MISSES:   15293285
L1D WRITEBACK ACCESSES:          0 HITS:          0 MISSES:          0
L1D RQ ACCESS:  184991174
L1D RQ TO_CACHE:  108941177
L1D RQ MERGED:   76023641
L1D RQ FORWARD:          0
L1D WQ ACCESS:   33643426
L1D WQ TO_CACHE:   33433534
L1D WQ MERGED:     209892
L1D WQ FORWARD:      62309
L1I TOTAL     ACCESS:  134039348  HIT:  134014771  MISS:      24577
L1I LOAD      ACCESS:  134039348  HIT:  134014771  MISS:      24577
L1I RFO       ACCESS:          0  HIT:          0  MISS:          0
L1I PREFETCH  ACCESS:          0  HIT:          0  MISS:          0
L1I WRITEBACK ACCESS:          0  HIT:          0  MISS:          0
L1I PREFETCH  REQUESTED:          0  ISSUED:          0  USEFUL:          0  USELESS:          0
L1I TOTAL MSHR MERGED:      30376
L1I LOAD MSHR MERGED:      30376
L1I RFO MSHR MERGED:          0
L1I PREFETCH MSHR MERGED:          0
L1I WRITEBACK MSHR MERGED:          0
L1I TOTAL ACCESSES:  134069724 HITS:  134014771 MISSES:      54953
L1I LOAD ACCESSES:  134069724 HITS:  134014771 MISSES:      54953
L1I RFO ACCESSES:          0 HITS:          0 MISSES:          0
L1I PREFETCH ACCESSES:          0 HITS:          0 MISSES:          0
L1I WRITEBACK ACCESSES:          0 HITS:          0 MISSES:          0
L1I RQ ACCESS:  500000005
L1I RQ TO_CACHE:  134069724
L1I RQ MERGED:  365930281
L1I RQ FORWARD:          0
L1I WQ ACCESS:          0
L1I WQ TO_CACHE:          0
L1I WQ MERGED:          0
L1I WQ FORWARD:          0
L2C TOTAL     ACCESS:   14945533  HIT:    6944304  MISS:    8001229
L2C LOAD      ACCESS:    1187313  HIT:     298559  MISS:     888754
L2C RFO       ACCESS:    1747650  HIT:     369556  MISS:    1378094
L2C PREFETCH  ACCESS:    8328522  HIT:    2602833  MISS:    5725689
L2C WRITEBACK ACCESS:    3682048  HIT:    3673356  MISS:       8692
L2C PREFETCH  REQUESTED:     387404  ISSUED:     387404  USEFUL:     114062  USELESS:    5612462
L2C TOTAL MSHR MERGED:      41843
L2C LOAD MSHR MERGED:       2256
L2C RFO MSHR MERGED:       1316
L2C PREFETCH MSHR MERGED:      38271
L2C WRITEBACK MSHR MERGED:          0
L2C TOTAL ACCESSES:   15108240 HITS:    6944990 MISSES:    8163250
L2C LOAD ACCESSES:    1187509 HITS:     298755 MISSES:     888754
L2C RFO ACCESSES:    1747864 HITS:     369770 MISSES:    1378094
L2C PREFETCH ACCESSES:    8490819 HITS:    2603109 MISSES:    5887710
L2C WRITEBACK ACCESSES:    3682048 HITS:    3673356 MISSES:       8692
L2C RQ ACCESS:    2935373
L2C RQ TO_CACHE:    2934963
L2C RQ MERGED:          0
L2C RQ FORWARD:          0
L2C WQ ACCESS:    3682048
L2C WQ TO_CACHE:    3682048
L2C WQ MERGED:          0
L2C WQ FORWARD:        686
LLC TOTAL     ACCESS:   11188182  HIT:    2864073  MISS:    8324109
LLC LOAD      ACCESS:     886492  HIT:     270510  MISS:     615982
LLC RFO       ACCESS:    1376777  HIT:     209273  MISS:    1167504
LLC PREFETCH  ACCESS:    5820202  HIT:    1127887  MISS:    4692315
LLC WRITEBACK ACCESS:    3104711  HIT:    1256403  MISS:    1848308
LLC PREFETCH  REQUESTED:          0  ISSUED:          0  USEFUL:      30748  USELESS:    4661318
LLC TOTAL MSHR MERGED:      22131
LLC LOAD MSHR MERGED:       6720
LLC RFO MSHR MERGED:        593
LLC PREFETCH MSHR MERGED:      14818
LLC WRITEBACK MSHR MERGED:          0
LLC TOTAL ACCESSES:   11210326 HITS:    2864086 MISSES:    8346240
LLC LOAD ACCESSES:     886498 HITS:     270516 MISSES:     615982
LLC RFO ACCESSES:    1376778 HITS:     209274 MISSES:    1167504
LLC PREFETCH ACCESSES:    5842339 HITS:    1127893 MISSES:    4714446
LLC WRITEBACK ACCESSES:    3104711 HITS:    1256403 MISSES:    1848308
LLC 0 RQ ACCESS:    2263276
LLC 0 RQ TO_CACHE:    2263269
LLC 0 RQ MERGED:          0
LLC 0 RQ FORWARD:          0
LLC WQ ACCESS:    3104711
LLC WQ TO_CACHE:    3104711
LLC WQ MERGED:          0
LLC WQ FORWARD:         13
Major fault: 0 Minor fault: 11519
CPU 0 L1D next line prefetcher final stats
CPU 0 L2C PC-based stride prefetcher final stats
All Misses: 10459288
All Hits: 3340147
SD Algo Stats - Switches: 0 SRR-Repls: 691984 BRR-Repls: 0

DRAM Statistics
 CHANNEL 0
 RQ ROW_BUFFER_HIT:    3929395  ROW_BUFFER_MISS:    2545683
 DBUS_CONGESTED:    4472524
 WQ ROW_BUFFER_HIT:     479633  ROW_BUFFER_MISS:    1741501  FULL:         45

 AVG_CONGESTED_CYCLE: 13
LOADS RETIRED: 190375692
INSTR RETIRED: 500000000
