
*** ChampSim Multicore Out-of-Order Simulator ***

Warmup Instructions: 100000000
Simulation Instructions: 500000000
Number of CPUs: 1
LLC sets: 2048
LLC ways: 16
Clean RRIP Policies: 1013102210131022 Dirty RRIP Policies: 2013200220132002 PSEL Width: 10 Track Set: 4294967295 PSEL Mask: 1 Demote Mask: 4340404443404044DS Algo: 0Window size: 0
Off-chip DRAM Size: 4096 MB Channels: 1 Width: 64-bit Data Rate: 1600 MT/s

CPU 0 runs /mnt/beegfs/iconst01/spec2017/cactuBSSN.trace.gz
NOT SORTED
TRACE STRING: /mnt/beegfs/iconst01/spec2017/cactuBSSN.trace.gz
SORTED
TRACE STRING: /mnt/beegfs/iconst01/spec2017/cactuBSSN.trace.gz
INITIAL
TRACE STRING: /mnt/beegfs/iconst01/spec2017/cactuBSSN.trace.gz

champsim_seed used: 838

CPU 0 L1D next line prefetcher
CPU 0 L2C IP-based stride prefetcher
Initialize DRRIP state
Assign rand_sets[0]: 454  LLC: 2048
rand_sets[0]: 454
Assign rand_sets[1]: 1662  LLC: 2048
rand_sets[1]: 1662
Assign rand_sets[2]: 1921  LLC: 2048
rand_sets[2]: 1921
Assign rand_sets[3]: 1131  LLC: 2048
rand_sets[3]: 1131
Assign rand_sets[4]: 331  LLC: 2048
rand_sets[4]: 331
Assign rand_sets[5]: 1531  LLC: 2048
rand_sets[5]: 1531
Assign rand_sets[6]: 482  LLC: 2048
rand_sets[6]: 482
Assign rand_sets[7]: 1275  LLC: 2048
rand_sets[7]: 1275
Assign rand_sets[8]: 1876  LLC: 2048
rand_sets[8]: 1876
Assign rand_sets[9]: 2038  LLC: 2048
rand_sets[9]: 2038
Assign rand_sets[10]: 701  LLC: 2048
rand_sets[10]: 701
Assign rand_sets[11]: 479  LLC: 2048
rand_sets[11]: 479
Assign rand_sets[12]: 892  LLC: 2048
rand_sets[12]: 892
Assign rand_sets[13]: 1820  LLC: 2048
rand_sets[13]: 1820
Assign rand_sets[14]: 1505  LLC: 2048
rand_sets[14]: 1505
Assign rand_sets[15]: 1159  LLC: 2048
rand_sets[15]: 1159
Assign rand_sets[16]: 513  LLC: 2048
rand_sets[16]: 513
Assign rand_sets[17]: 703  LLC: 2048
rand_sets[17]: 703
Assign rand_sets[18]: 561  LLC: 2048
rand_sets[18]: 561
Assign rand_sets[19]: 990  LLC: 2048
rand_sets[19]: 990
Assign rand_sets[20]: 342  LLC: 2048
rand_sets[20]: 342
Assign rand_sets[21]: 882  LLC: 2048
rand_sets[21]: 882
Assign rand_sets[22]: 15  LLC: 2048
rand_sets[22]: 15
Assign rand_sets[23]: 71  LLC: 2048
rand_sets[23]: 71
Assign rand_sets[24]: 1127  LLC: 2048
rand_sets[24]: 1127
Assign rand_sets[25]: 1382  LLC: 2048
rand_sets[25]: 1382
Assign rand_sets[26]: 647  LLC: 2048
rand_sets[26]: 647
Assign rand_sets[27]: 857  LLC: 2048
rand_sets[27]: 857
Assign rand_sets[28]: 1450  LLC: 2048
rand_sets[28]: 1450
Assign rand_sets[29]: 1160  LLC: 2048
rand_sets[29]: 1160
Assign rand_sets[30]: 1852  LLC: 2048
rand_sets[30]: 1852
Assign rand_sets[31]: 1881  LLC: 2048
rand_sets[31]: 1881
Assign rand_sets[32]: 1770  LLC: 2048
rand_sets[32]: 1770
Assign rand_sets[33]: 1622  LLC: 2048
rand_sets[33]: 1622
Assign rand_sets[34]: 275  LLC: 2048
rand_sets[34]: 275
Assign rand_sets[35]: 635  LLC: 2048
rand_sets[35]: 635
Assign rand_sets[36]: 466  LLC: 2048
rand_sets[36]: 466
Assign rand_sets[37]: 1413  LLC: 2048
rand_sets[37]: 1413
Assign rand_sets[38]: 417  LLC: 2048
rand_sets[38]: 417
Assign rand_sets[39]: 472  LLC: 2048
rand_sets[39]: 472
Assign rand_sets[40]: 1340  LLC: 2048
rand_sets[40]: 1340
Assign rand_sets[41]: 852  LLC: 2048
rand_sets[41]: 852
Assign rand_sets[42]: 1365  LLC: 2048
rand_sets[42]: 1365
Assign rand_sets[43]: 47  LLC: 2048
rand_sets[43]: 47
Assign rand_sets[44]: 823  LLC: 2048
rand_sets[44]: 823
Assign rand_sets[45]: 686  LLC: 2048
rand_sets[45]: 686
Assign rand_sets[46]: 1637  LLC: 2048
rand_sets[46]: 1637
Assign rand_sets[47]: 1115  LLC: 2048
rand_sets[47]: 1115
Assign rand_sets[48]: 986  LLC: 2048
rand_sets[48]: 986
Assign rand_sets[49]: 258  LLC: 2048
rand_sets[49]: 258
Assign rand_sets[50]: 633  LLC: 2048
rand_sets[50]: 633
Assign rand_sets[51]: 920  LLC: 2048
rand_sets[51]: 920
Assign rand_sets[52]: 204  LLC: 2048
rand_sets[52]: 204
Assign rand_sets[53]: 227  LLC: 2048
rand_sets[53]: 227
Assign rand_sets[54]: 1818  LLC: 2048
rand_sets[54]: 1818
Assign rand_sets[55]: 886  LLC: 2048
rand_sets[55]: 886
Assign rand_sets[56]: 1422  LLC: 2048
rand_sets[56]: 1422
Assign rand_sets[57]: 607  LLC: 2048
rand_sets[57]: 607
Assign rand_sets[58]: 217  LLC: 2048
rand_sets[58]: 217
Assign rand_sets[59]: 1945  LLC: 2048
rand_sets[59]: 1945
Assign rand_sets[60]: 143  LLC: 2048
rand_sets[60]: 143
Assign rand_sets[61]: 1311  LLC: 2048
rand_sets[61]: 1311
Assign rand_sets[62]: 319  LLC: 2048
rand_sets[62]: 319
Assign rand_sets[63]: 1846  LLC: 2048
rand_sets[63]: 1846
 CLEAN-RRIP-POLICY-1: 1-0-1-3-1-0-2-2- CLEAN-RRIP-POLICY-2: 1-0-1-3-1-0-2-2-
 DIRTY-RRIP-POLICY-1: 2-0-1-3-2-0-0-2- DIRTY-RRIP-POLICY-2: 2-0-1-3-2-0-0-2-
 PSEL width: 10
Heartbeat CPU 0 instructions: 10000000 cycles: 6588007 heartbeat IPC: 1.51791 cumulative IPC: 1.51791 (Simulation time: 0 hr 0 min 24 sec) 
Heartbeat CPU 0 instructions: 20000000 cycles: 13179633 heartbeat IPC: 1.51708 cumulative IPC: 1.51749 (Simulation time: 0 hr 0 min 49 sec) 
Heartbeat CPU 0 instructions: 30000003 cycles: 19772964 heartbeat IPC: 1.51668 cumulative IPC: 1.51722 (Simulation time: 0 hr 1 min 13 sec) 
Heartbeat CPU 0 instructions: 40000000 cycles: 26364728 heartbeat IPC: 1.51704 cumulative IPC: 1.51718 (Simulation time: 0 hr 1 min 37 sec) 
Heartbeat CPU 0 instructions: 50000001 cycles: 32957372 heartbeat IPC: 1.51684 cumulative IPC: 1.51711 (Simulation time: 0 hr 2 min 1 sec) 
Heartbeat CPU 0 instructions: 60000000 cycles: 39556199 heartbeat IPC: 1.51542 cumulative IPC: 1.51683 (Simulation time: 0 hr 2 min 26 sec) 
Heartbeat CPU 0 instructions: 70000003 cycles: 46154617 heartbeat IPC: 1.51552 cumulative IPC: 1.51664 (Simulation time: 0 hr 2 min 50 sec) 
Heartbeat CPU 0 instructions: 80000000 cycles: 52752625 heartbeat IPC: 1.51561 cumulative IPC: 1.51651 (Simulation time: 0 hr 3 min 14 sec) 
Heartbeat CPU 0 instructions: 90000002 cycles: 59348332 heartbeat IPC: 1.51614 cumulative IPC: 1.51647 (Simulation time: 0 hr 3 min 39 sec) 
Heartbeat CPU 0 instructions: 100000000 cycles: 65943486 heartbeat IPC: 1.51626 cumulative IPC: 1.51645 (Simulation time: 0 hr 4 min 3 sec) 

Warmup complete CPU 0 instructions: 100000002 cycles: 65943487 (Simulation time: 0 hr 4 min 3 sec) 

Heartbeat CPU 0 instructions: 110000000 cycles: 79213531 heartbeat IPC: 0.753577 cumulative IPC: 0.753577 (Simulation time: 0 hr 4 min 33 sec) 
Heartbeat CPU 0 instructions: 120000000 cycles: 92409528 heartbeat IPC: 0.757806 cumulative IPC: 0.755685 (Simulation time: 0 hr 5 min 3 sec) 
Heartbeat CPU 0 instructions: 130000001 cycles: 105716944 heartbeat IPC: 0.751461 cumulative IPC: 0.754272 (Simulation time: 0 hr 5 min 32 sec) 
Heartbeat CPU 0 instructions: 140000000 cycles: 118914897 heartbeat IPC: 0.757693 cumulative IPC: 0.755124 (Simulation time: 0 hr 6 min 2 sec) 
Heartbeat CPU 0 instructions: 150000001 cycles: 132118013 heartbeat IPC: 0.757397 cumulative IPC: 0.755578 (Simulation time: 0 hr 6 min 32 sec) 
Heartbeat CPU 0 instructions: 160000000 cycles: 145374663 heartbeat IPC: 0.754338 cumulative IPC: 0.755371 (Simulation time: 0 hr 7 min 1 sec) 
Heartbeat CPU 0 instructions: 170000000 cycles: 158614429 heartbeat IPC: 0.7553 cumulative IPC: 0.755361 (Simulation time: 0 hr 7 min 31 sec) 
Heartbeat CPU 0 instructions: 180000000 cycles: 171853199 heartbeat IPC: 0.755357 cumulative IPC: 0.75536 (Simulation time: 0 hr 8 min 1 sec) 
Heartbeat CPU 0 instructions: 190000000 cycles: 185045396 heartbeat IPC: 0.758024 cumulative IPC: 0.755655 (Simulation time: 0 hr 8 min 31 sec) 
Heartbeat CPU 0 instructions: 200000000 cycles: 198335770 heartbeat IPC: 0.752424 cumulative IPC: 0.755331 (Simulation time: 0 hr 9 min 0 sec) 
Heartbeat CPU 0 instructions: 210000002 cycles: 211580425 heartbeat IPC: 0.755022 cumulative IPC: 0.755303 (Simulation time: 0 hr 9 min 30 sec) 
Heartbeat CPU 0 instructions: 220000000 cycles: 224783748 heartbeat IPC: 0.757385 cumulative IPC: 0.755476 (Simulation time: 0 hr 10 min 0 sec) 
Heartbeat CPU 0 instructions: 230000003 cycles: 238066580 heartbeat IPC: 0.752852 cumulative IPC: 0.755273 (Simulation time: 0 hr 10 min 29 sec) 
Heartbeat CPU 0 instructions: 240000000 cycles: 251284310 heartbeat IPC: 0.756559 cumulative IPC: 0.755365 (Simulation time: 0 hr 10 min 59 sec) 
Heartbeat CPU 0 instructions: 250000001 cycles: 264533010 heartbeat IPC: 0.754791 cumulative IPC: 0.755327 (Simulation time: 0 hr 11 min 29 sec) 
Heartbeat CPU 0 instructions: 260000000 cycles: 277767638 heartbeat IPC: 0.755593 cumulative IPC: 0.755343 (Simulation time: 0 hr 11 min 58 sec) 
Heartbeat CPU 0 instructions: 270000003 cycles: 291040824 heartbeat IPC: 0.753399 cumulative IPC: 0.755229 (Simulation time: 0 hr 12 min 28 sec) 
Heartbeat CPU 0 instructions: 280000000 cycles: 304279909 heartbeat IPC: 0.755339 cumulative IPC: 0.755235 (Simulation time: 0 hr 12 min 57 sec) 
Heartbeat CPU 0 instructions: 290000000 cycles: 317480575 heartbeat IPC: 0.757538 cumulative IPC: 0.755356 (Simulation time: 0 hr 13 min 26 sec) 
Heartbeat CPU 0 instructions: 300000000 cycles: 330776681 heartbeat IPC: 0.7521 cumulative IPC: 0.755192 (Simulation time: 0 hr 13 min 56 sec) 
Heartbeat CPU 0 instructions: 310000001 cycles: 343981898 heartbeat IPC: 0.757277 cumulative IPC: 0.755291 (Simulation time: 0 hr 14 min 25 sec) 
Heartbeat CPU 0 instructions: 320000000 cycles: 357204177 heartbeat IPC: 0.756299 cumulative IPC: 0.755337 (Simulation time: 0 hr 14 min 54 sec) 
Heartbeat CPU 0 instructions: 330000002 cycles: 370433424 heartbeat IPC: 0.755901 cumulative IPC: 0.755362 (Simulation time: 0 hr 15 min 24 sec) 
Heartbeat CPU 0 instructions: 340000000 cycles: 383703136 heartbeat IPC: 0.753596 cumulative IPC: 0.755288 (Simulation time: 0 hr 15 min 53 sec) 
Heartbeat CPU 0 instructions: 350000000 cycles: 396984451 heartbeat IPC: 0.752937 cumulative IPC: 0.755194 (Simulation time: 0 hr 16 min 22 sec) 
Heartbeat CPU 0 instructions: 360000000 cycles: 410230112 heartbeat IPC: 0.754964 cumulative IPC: 0.755185 (Simulation time: 0 hr 16 min 51 sec) 
Heartbeat CPU 0 instructions: 370000002 cycles: 423548622 heartbeat IPC: 0.750835 cumulative IPC: 0.755023 (Simulation time: 0 hr 17 min 20 sec) 
Heartbeat CPU 0 instructions: 380000000 cycles: 436799977 heartbeat IPC: 0.75464 cumulative IPC: 0.755009 (Simulation time: 0 hr 17 min 49 sec) 
Heartbeat CPU 0 instructions: 390000000 cycles: 450012302 heartbeat IPC: 0.756869 cumulative IPC: 0.755073 (Simulation time: 0 hr 18 min 18 sec) 
Heartbeat CPU 0 instructions: 400000000 cycles: 463245437 heartbeat IPC: 0.755679 cumulative IPC: 0.755093 (Simulation time: 0 hr 18 min 48 sec) 
Heartbeat CPU 0 instructions: 410000001 cycles: 476532147 heartbeat IPC: 0.752632 cumulative IPC: 0.755014 (Simulation time: 0 hr 19 min 17 sec) 
Heartbeat CPU 0 instructions: 420000000 cycles: 489743620 heartbeat IPC: 0.756918 cumulative IPC: 0.755073 (Simulation time: 0 hr 19 min 46 sec) 
Heartbeat CPU 0 instructions: 430000001 cycles: 502954043 heartbeat IPC: 0.756978 cumulative IPC: 0.75513 (Simulation time: 0 hr 20 min 15 sec) 
Heartbeat CPU 0 instructions: 440000000 cycles: 516141312 heartbeat IPC: 0.758307 cumulative IPC: 0.755224 (Simulation time: 0 hr 20 min 44 sec) 
Heartbeat CPU 0 instructions: 450000002 cycles: 529490551 heartbeat IPC: 0.749107 cumulative IPC: 0.755047 (Simulation time: 0 hr 21 min 13 sec) 
Heartbeat CPU 0 instructions: 460000000 cycles: 542740084 heartbeat IPC: 0.754743 cumulative IPC: 0.755039 (Simulation time: 0 hr 21 min 42 sec) 
Heartbeat CPU 0 instructions: 470000003 cycles: 555969355 heartbeat IPC: 0.7559 cumulative IPC: 0.755062 (Simulation time: 0 hr 22 min 11 sec) 
Heartbeat CPU 0 instructions: 480000000 cycles: 569254440 heartbeat IPC: 0.752724 cumulative IPC: 0.755 (Simulation time: 0 hr 22 min 40 sec) 
Heartbeat CPU 0 instructions: 490000000 cycles: 582515037 heartbeat IPC: 0.754114 cumulative IPC: 0.754978 (Simulation time: 0 hr 23 min 9 sec) 
Heartbeat CPU 0 instructions: 500000000 cycles: 595742860 heartbeat IPC: 0.755982 cumulative IPC: 0.755003 (Simulation time: 0 hr 23 min 39 sec) 
Heartbeat CPU 0 instructions: 510000001 cycles: 608945617 heartbeat IPC: 0.757418 cumulative IPC: 0.755062 (Simulation time: 0 hr 24 min 8 sec) 
Heartbeat CPU 0 instructions: 520000000 cycles: 622268719 heartbeat IPC: 0.750576 cumulative IPC: 0.754954 (Simulation time: 0 hr 24 min 37 sec) 
Heartbeat CPU 0 instructions: 530000000 cycles: 635552369 heartbeat IPC: 0.752805 cumulative IPC: 0.754904 (Simulation time: 0 hr 25 min 6 sec) 
Heartbeat CPU 0 instructions: 540000000 cycles: 648808757 heartbeat IPC: 0.754353 cumulative IPC: 0.754891 (Simulation time: 0 hr 25 min 35 sec) 
Heartbeat CPU 0 instructions: 550000002 cycles: 662103809 heartbeat IPC: 0.75216 cumulative IPC: 0.754831 (Simulation time: 0 hr 26 min 4 sec) 
Heartbeat CPU 0 instructions: 560000000 cycles: 675330712 heartbeat IPC: 0.756035 cumulative IPC: 0.754857 (Simulation time: 0 hr 26 min 33 sec) 
Heartbeat CPU 0 instructions: 570000001 cycles: 688566634 heartbeat IPC: 0.75552 cumulative IPC: 0.754871 (Simulation time: 0 hr 27 min 2 sec) 
Heartbeat CPU 0 instructions: 580000000 cycles: 701801632 heartbeat IPC: 0.755572 cumulative IPC: 0.754885 (Simulation time: 0 hr 27 min 31 sec) 
Heartbeat CPU 0 instructions: 590000003 cycles: 715065122 heartbeat IPC: 0.75395 cumulative IPC: 0.754866 (Simulation time: 0 hr 27 min 59 sec) 
Heartbeat CPU 0 instructions: 600000000 cycles: 728349592 heartbeat IPC: 0.752758 cumulative IPC: 0.754824 (Simulation time: 0 hr 28 min 27 sec) 
Finished CPU 0 instructions: 500000000 cycles: 662406115 cumulative IPC: 0.754824 (Simulation time: 0 hr 28 min 27 sec) 

CPU 0 Branch Prediction Accuracy: 99.968% MPKI: 0.002246
Number of Branches: 3513331 Number of Mispredictions: 1123
Number of LOAD Instructions: 287251172
Number of LOAD Instructions (ROI): 287251172
Number of STORE Instructions: 51060820
Number of STORE Instructions (ROI): 51060820
Total Destination Memory Operands: 51166221
Total Destination Memory Operands (ROI): 51166221
Total Source Memory Operands: 287251172
Total Source Memory Operands (ROI): 287251172
Number of DEPENDED LOADS: 9554359
Number of DEPENDED LOADS (ROI): 9554359
Number of SQ_ADDED: 51166208
Number of SQ_ADDED (ROI): 51166208
Number of LQ_ADDED: 290424333
Number of LQ_ADDED (ROI): 290424333
Number of Instructions read from trace: 600000257

ChampSim completed all CPUs

Region of Interest Statistics

CPU 0 cumulative IPC: 0.754824 instructions: 500000000 cycles: 662406115
ITLB TOTAL     ACCESS:  108978676  HIT:  108978676  MISS:          0
ITLB LOAD      ACCESS:  108978676  HIT:  108978676  MISS:          0
ITLB RFO       ACCESS:          0  HIT:          0  MISS:          0
ITLB PREFETCH  ACCESS:          0  HIT:          0  MISS:          0
ITLB WRITEBACK ACCESS:          0  HIT:          0  MISS:          0
ITLB PREFETCH  REQUESTED:          0  ISSUED:          0  USEFUL:          0  USELESS:          0
ITLB TOTAL MSHR MERGED:          0
ITLB LOAD MSHR MERGED:          0
ITLB RFO MSHR MERGED:          0
ITLB PREFETCH MSHR MERGED:          0
ITLB WRITEBACK MSHR MERGED:          0
ITLB TOTAL ACCESSES:  108978676 HITS:  108978676 MISSES:          0
ITLB LOAD ACCESSES:  108978676 HITS:  108978676 MISSES:          0
ITLB RFO ACCESSES:          0 HITS:          0 MISSES:          0
ITLB PREFETCH ACCESSES:          0 HITS:          0 MISSES:          0
ITLB WRITEBACK ACCESSES:          0 HITS:          0 MISSES:          0
ITLB RQ ACCESS:  500000001
ITLB RQ TO_CACHE:  108978676
ITLB RQ MERGED:  391021325
ITLB RQ FORWARD:          0
ITLB WQ ACCESS:          0
ITLB WQ TO_CACHE:          0
ITLB WQ MERGED:          0
ITLB WQ FORWARD:          0
DTLB TOTAL     ACCESS:  171132738  HIT:  161116485  MISS:   10016253
DTLB LOAD      ACCESS:  143472556  HIT:  135596553  MISS:    7876003
DTLB RFO       ACCESS:   27660182  HIT:   25519932  MISS:    2140250
DTLB PREFETCH  ACCESS:          0  HIT:          0  MISS:          0
DTLB WRITEBACK ACCESS:          0  HIT:          0  MISS:          0
DTLB PREFETCH  REQUESTED:          0  ISSUED:          0  USEFUL:          0  USELESS:          0
DTLB TOTAL MSHR MERGED:     360356
DTLB LOAD MSHR MERGED:     360356
DTLB RFO MSHR MERGED:          0
DTLB PREFETCH MSHR MERGED:          0
DTLB WRITEBACK MSHR MERGED:          0
DTLB TOTAL ACCESSES:  171493094 HITS:  161116485 MISSES:   10376609
DTLB LOAD ACCESSES:  143832912 HITS:  135596553 MISSES:    8236359
DTLB RFO ACCESSES:   27660182 HITS:   25519932 MISSES:    2140250
DTLB PREFETCH ACCESSES:          0 HITS:          0 MISSES:          0
DTLB WRITEBACK ACCESSES:          0 HITS:          0 MISSES:          0
DTLB RQ ACCESS:  274073463
DTLB RQ TO_CACHE:  171493094
DTLB RQ MERGED:  102580369
DTLB RQ FORWARD:          0
DTLB WQ ACCESS:          0
DTLB WQ TO_CACHE:          0
DTLB WQ MERGED:          0
DTLB WQ FORWARD:          0
L1D TOTAL     ACCESS:  350939934  HIT:  283739301  MISS:   67200633
L1D LOAD      ACCESS:  175624222  HIT:  142584653  MISS:   33039569
L1D RFO       ACCESS:   42019397  HIT:   39213620  MISS:    2805777
L1D PREFETCH  ACCESS:  133296315  HIT:  101941028  MISS:   31355287
L1D WRITEBACK ACCESS:          0  HIT:          0  MISS:          0
L1D PREFETCH  REQUESTED:  176228649  ISSUED:  175290058  USEFUL:    2180465  USELESS:   29174824
L1D TOTAL MSHR MERGED:    1484117
L1D LOAD MSHR MERGED:     704397
L1D RFO MSHR MERGED:     349586
L1D PREFETCH MSHR MERGED:     430134
L1D WRITEBACK MSHR MERGED:          0
L1D TOTAL ACCESSES:  352537841 HITS:  283853091 MISSES:   68684750
L1D LOAD ACCESSES:  176236380 HITS:  142592384 MISSES:   33643996
L1D RFO ACCESSES:   42368295 HITS:   39213620 MISSES:    3154675
L1D PREFETCH ACCESSES:  133933166 HITS:  102047087 MISSES:   31886079
L1D WRITEBACK ACCESSES:          0 HITS:          0 MISSES:          0
L1D RQ ACCESS:  231434990
L1D RQ TO_CACHE:  176228649
L1D RQ MERGED:   55198610
L1D RQ FORWARD:          0
L1D WQ ACCESS:   42638475
L1D WQ TO_CACHE:   42368295
L1D WQ MERGED:     270180
L1D WQ FORWARD:     113790
L1I TOTAL     ACCESS:  109366506  HIT:   77850802  MISS:   31515704
L1I LOAD      ACCESS:  109366506  HIT:   77850802  MISS:   31515704
L1I RFO       ACCESS:          0  HIT:          0  MISS:          0
L1I PREFETCH  ACCESS:          0  HIT:          0  MISS:          0
L1I WRITEBACK ACCESS:          0  HIT:          0  MISS:          0
L1I PREFETCH  REQUESTED:          0  ISSUED:          0  USEFUL:          0  USELESS:          0
L1I TOTAL MSHR MERGED:   30753326
L1I LOAD MSHR MERGED:   30753326
L1I RFO MSHR MERGED:          0
L1I PREFETCH MSHR MERGED:          0
L1I WRITEBACK MSHR MERGED:          0
L1I TOTAL ACCESSES:  140119834 HITS:   77850802 MISSES:   62269032
L1I LOAD ACCESSES:  140119834 HITS:   77850802 MISSES:   62269032
L1I RFO ACCESSES:          0 HITS:          0 MISSES:          0
L1I PREFETCH ACCESSES:          0 HITS:          0 MISSES:          0
L1I WRITEBACK ACCESSES:          0 HITS:          0 MISSES:          0
L1I RQ ACCESS:  500000003
L1I RQ TO_CACHE:  140119834
L1I RQ MERGED:  359880169
L1I RQ FORWARD:          0
L1I WQ ACCESS:          0
L1I WQ TO_CACHE:          0
L1I WQ MERGED:          0
L1I WQ FORWARD:          0
L2C TOTAL     ACCESS:  113693425  HIT:  110693737  MISS:    2999688
L2C LOAD      ACCESS:   64453447  HIT:   63894190  MISS:     559257
L2C RFO       ACCESS:    2803184  HIT:    2194397  MISS:     608787
L2C PREFETCH  ACCESS:   43275854  HIT:   41450496  MISS:    1825358
L2C WRITEBACK ACCESS:    3160940  HIT:    3154654  MISS:       6286
L2C PREFETCH  REQUESTED:   15133817  ISSUED:   14622770  USEFUL:    1700634  USELESS:     124732
L2C TOTAL MSHR MERGED:      12819
L2C LOAD MSHR MERGED:          0
L2C RFO MSHR MERGED:          0
L2C PREFETCH MSHR MERGED:      12819
L2C WRITEBACK MSHR MERGED:          0
L2C TOTAL ACCESSES:  113909950 HITS:  110699600 MISSES:    3210350
L2C LOAD ACCESSES:   64455304 HITS:   63896046 MISSES:     559258
L2C RFO ACCESSES:    2805089 HITS:    2196302 MISSES:     608787
L2C PREFETCH ACCESSES:   43488617 HITS:   41452598 MISSES:    2036019
L2C WRITEBACK ACCESSES:    3160940 HITS:    3154654 MISSES:       6286
L2C RQ ACCESS:   67260394
L2C RQ TO_CACHE:   67256633
L2C RQ MERGED:          0
L2C RQ FORWARD:          0
L2C WQ ACCESS:    3160940
L2C WQ TO_CACHE:    3160940
L2C WQ MERGED:          0
L2C WQ FORWARD:       5863
LLC TOTAL     ACCESS:    3721451  HIT:    1913723  MISS:    1807728
LLC LOAD      ACCESS:     559226  HIT:     473533  MISS:      85693
LLC RFO       ACCESS:     526906  HIT:     238732  MISS:     288174
LLC PREFETCH  ACCESS:    2017502  HIT:     588984  MISS:    1428518
LLC WRITEBACK ACCESS:     617817  HIT:     612474  MISS:       5343
LLC PREFETCH  REQUESTED:          0  ISSUED:          0  USEFUL:      42776  USELESS:    1385027
LLC TOTAL MSHR MERGED:       5081
LLC LOAD MSHR MERGED:          0
LLC RFO MSHR MERGED:          0
LLC PREFETCH MSHR MERGED:       5081
LLC WRITEBACK MSHR MERGED:          0
LLC TOTAL ACCESSES:    3808527 HITS:    1995718 MISSES:    1812809
LLC LOAD ACCESSES:     559257 HITS:     473564 MISSES:      85693
LLC RFO ACCESSES:     608787 HITS:     320613 MISSES:     288174
LLC PREFETCH ACCESSES:    2022666 HITS:     589067 MISSES:    1433599
LLC WRITEBACK ACCESSES:     617817 HITS:     612474 MISSES:       5343
LLC 0 RQ ACCESS:    1168045
LLC 0 RQ TO_CACHE:    1086133
LLC 0 RQ MERGED:          0
LLC 0 RQ FORWARD:          0
LLC WQ ACCESS:     617817
LLC WQ TO_CACHE:     617817
LLC WQ MERGED:          0
LLC WQ FORWARD:      81995
Major fault: 0 Minor fault: 12800
CPU 0 L1D next line prefetcher final stats
CPU 0 L2C PC-based stride prefetcher final stats
All Misses: 2177027
All Hits: 2395323
SD Algo Stats - Switches: 1 SRR-Repls: 101514 BRR-Repls: 4591

DRAM Statistics
 CHANNEL 0
 RQ ROW_BUFFER_HIT:     899669  ROW_BUFFER_MISS:     902642
 DBUS_CONGESTED:     956366
 WQ ROW_BUFFER_HIT:      29665  ROW_BUFFER_MISS:     261965  FULL:          0

 AVG_CONGESTED_CYCLE: 13
LOADS RETIRED: 239375970
INSTR RETIRED: 500000000
