
*** ChampSim Multicore Out-of-Order Simulator ***

Warmup Instructions: 100000000
Simulation Instructions: 500000000
Number of CPUs: 1
LLC sets: 2048
LLC ways: 16
Clean RRIP Policies: 1013102210131022 Dirty RRIP Policies: 2013200220132002 PSEL Width: 10 Track Set: 4294967295 PSEL Mask: 1 Demote Mask: 4340404443404044DS Algo: 0Window size: 0
Off-chip DRAM Size: 4096 MB Channels: 1 Width: 64-bit Data Rate: 1600 MT/s

CPU 0 runs /mnt/beegfs/iconst01/spec2017/Fotonik3d.trace.gz
NOT SORTED
TRACE STRING: /mnt/beegfs/iconst01/spec2017/Fotonik3d.trace.gz
SORTED
TRACE STRING: /mnt/beegfs/iconst01/spec2017/Fotonik3d.trace.gz
INITIAL
TRACE STRING: /mnt/beegfs/iconst01/spec2017/Fotonik3d.trace.gz

champsim_seed used: 881

CPU 0 L1D next line prefetcher
CPU 0 L2C IP-based stride prefetcher
Initialize DRRIP state
Assign rand_sets[0]: 454  LLC: 2048
rand_sets[0]: 454
Assign rand_sets[1]: 1662  LLC: 2048
rand_sets[1]: 1662
Assign rand_sets[2]: 1921  LLC: 2048
rand_sets[2]: 1921
Assign rand_sets[3]: 1131  LLC: 2048
rand_sets[3]: 1131
Assign rand_sets[4]: 331  LLC: 2048
rand_sets[4]: 331
Assign rand_sets[5]: 1531  LLC: 2048
rand_sets[5]: 1531
Assign rand_sets[6]: 482  LLC: 2048
rand_sets[6]: 482
Assign rand_sets[7]: 1275  LLC: 2048
rand_sets[7]: 1275
Assign rand_sets[8]: 1876  LLC: 2048
rand_sets[8]: 1876
Assign rand_sets[9]: 2038  LLC: 2048
rand_sets[9]: 2038
Assign rand_sets[10]: 701  LLC: 2048
rand_sets[10]: 701
Assign rand_sets[11]: 479  LLC: 2048
rand_sets[11]: 479
Assign rand_sets[12]: 892  LLC: 2048
rand_sets[12]: 892
Assign rand_sets[13]: 1820  LLC: 2048
rand_sets[13]: 1820
Assign rand_sets[14]: 1505  LLC: 2048
rand_sets[14]: 1505
Assign rand_sets[15]: 1159  LLC: 2048
rand_sets[15]: 1159
Assign rand_sets[16]: 513  LLC: 2048
rand_sets[16]: 513
Assign rand_sets[17]: 703  LLC: 2048
rand_sets[17]: 703
Assign rand_sets[18]: 561  LLC: 2048
rand_sets[18]: 561
Assign rand_sets[19]: 990  LLC: 2048
rand_sets[19]: 990
Assign rand_sets[20]: 342  LLC: 2048
rand_sets[20]: 342
Assign rand_sets[21]: 882  LLC: 2048
rand_sets[21]: 882
Assign rand_sets[22]: 15  LLC: 2048
rand_sets[22]: 15
Assign rand_sets[23]: 71  LLC: 2048
rand_sets[23]: 71
Assign rand_sets[24]: 1127  LLC: 2048
rand_sets[24]: 1127
Assign rand_sets[25]: 1382  LLC: 2048
rand_sets[25]: 1382
Assign rand_sets[26]: 647  LLC: 2048
rand_sets[26]: 647
Assign rand_sets[27]: 857  LLC: 2048
rand_sets[27]: 857
Assign rand_sets[28]: 1450  LLC: 2048
rand_sets[28]: 1450
Assign rand_sets[29]: 1160  LLC: 2048
rand_sets[29]: 1160
Assign rand_sets[30]: 1852  LLC: 2048
rand_sets[30]: 1852
Assign rand_sets[31]: 1881  LLC: 2048
rand_sets[31]: 1881
Assign rand_sets[32]: 1770  LLC: 2048
rand_sets[32]: 1770
Assign rand_sets[33]: 1622  LLC: 2048
rand_sets[33]: 1622
Assign rand_sets[34]: 275  LLC: 2048
rand_sets[34]: 275
Assign rand_sets[35]: 635  LLC: 2048
rand_sets[35]: 635
Assign rand_sets[36]: 466  LLC: 2048
rand_sets[36]: 466
Assign rand_sets[37]: 1413  LLC: 2048
rand_sets[37]: 1413
Assign rand_sets[38]: 417  LLC: 2048
rand_sets[38]: 417
Assign rand_sets[39]: 472  LLC: 2048
rand_sets[39]: 472
Assign rand_sets[40]: 1340  LLC: 2048
rand_sets[40]: 1340
Assign rand_sets[41]: 852  LLC: 2048
rand_sets[41]: 852
Assign rand_sets[42]: 1365  LLC: 2048
rand_sets[42]: 1365
Assign rand_sets[43]: 47  LLC: 2048
rand_sets[43]: 47
Assign rand_sets[44]: 823  LLC: 2048
rand_sets[44]: 823
Assign rand_sets[45]: 686  LLC: 2048
rand_sets[45]: 686
Assign rand_sets[46]: 1637  LLC: 2048
rand_sets[46]: 1637
Assign rand_sets[47]: 1115  LLC: 2048
rand_sets[47]: 1115
Assign rand_sets[48]: 986  LLC: 2048
rand_sets[48]: 986
Assign rand_sets[49]: 258  LLC: 2048
rand_sets[49]: 258
Assign rand_sets[50]: 633  LLC: 2048
rand_sets[50]: 633
Assign rand_sets[51]: 920  LLC: 2048
rand_sets[51]: 920
Assign rand_sets[52]: 204  LLC: 2048
rand_sets[52]: 204
Assign rand_sets[53]: 227  LLC: 2048
rand_sets[53]: 227
Assign rand_sets[54]: 1818  LLC: 2048
rand_sets[54]: 1818
Assign rand_sets[55]: 886  LLC: 2048
rand_sets[55]: 886
Assign rand_sets[56]: 1422  LLC: 2048
rand_sets[56]: 1422
Assign rand_sets[57]: 607  LLC: 2048
rand_sets[57]: 607
Assign rand_sets[58]: 217  LLC: 2048
rand_sets[58]: 217
Assign rand_sets[59]: 1945  LLC: 2048
rand_sets[59]: 1945
Assign rand_sets[60]: 143  LLC: 2048
rand_sets[60]: 143
Assign rand_sets[61]: 1311  LLC: 2048
rand_sets[61]: 1311
Assign rand_sets[62]: 319  LLC: 2048
rand_sets[62]: 319
Assign rand_sets[63]: 1846  LLC: 2048
rand_sets[63]: 1846
 CLEAN-RRIP-POLICY-1: 1-0-1-3-1-0-2-2- CLEAN-RRIP-POLICY-2: 1-0-1-3-1-0-2-2-
 DIRTY-RRIP-POLICY-1: 2-0-1-3-2-0-0-2- DIRTY-RRIP-POLICY-2: 2-0-1-3-2-0-0-2-
 PSEL width: 10
Heartbeat CPU 0 instructions: 10000002 cycles: 7306815 heartbeat IPC: 1.36859 cumulative IPC: 1.36859 (Simulation time: 0 hr 0 min 24 sec) 
Heartbeat CPU 0 instructions: 20000000 cycles: 14613821 heartbeat IPC: 1.36855 cumulative IPC: 1.36857 (Simulation time: 0 hr 0 min 47 sec) 
Heartbeat CPU 0 instructions: 30000001 cycles: 21920686 heartbeat IPC: 1.36858 cumulative IPC: 1.36857 (Simulation time: 0 hr 1 min 11 sec) 
Heartbeat CPU 0 instructions: 40000000 cycles: 29227480 heartbeat IPC: 1.36859 cumulative IPC: 1.36858 (Simulation time: 0 hr 1 min 35 sec) 
Heartbeat CPU 0 instructions: 50000001 cycles: 36534224 heartbeat IPC: 1.3686 cumulative IPC: 1.36858 (Simulation time: 0 hr 1 min 59 sec) 
Heartbeat CPU 0 instructions: 60000000 cycles: 43841214 heartbeat IPC: 1.36855 cumulative IPC: 1.36858 (Simulation time: 0 hr 2 min 23 sec) 
Heartbeat CPU 0 instructions: 70000002 cycles: 51147995 heartbeat IPC: 1.36859 cumulative IPC: 1.36858 (Simulation time: 0 hr 2 min 47 sec) 
Heartbeat CPU 0 instructions: 80000000 cycles: 58454749 heartbeat IPC: 1.3686 cumulative IPC: 1.36858 (Simulation time: 0 hr 3 min 11 sec) 
Heartbeat CPU 0 instructions: 90000003 cycles: 65765340 heartbeat IPC: 1.36788 cumulative IPC: 1.3685 (Simulation time: 0 hr 3 min 35 sec) 
Heartbeat CPU 0 instructions: 100000000 cycles: 73075997 heartbeat IPC: 1.36787 cumulative IPC: 1.36844 (Simulation time: 0 hr 3 min 59 sec) 

Warmup complete CPU 0 instructions: 100000002 cycles: 73076009 (Simulation time: 0 hr 3 min 59 sec) 

Heartbeat CPU 0 instructions: 110000001 cycles: 85572939 heartbeat IPC: 0.800196 cumulative IPC: 0.800196 (Simulation time: 0 hr 4 min 28 sec) 
Heartbeat CPU 0 instructions: 120000000 cycles: 98011329 heartbeat IPC: 0.803962 cumulative IPC: 0.802075 (Simulation time: 0 hr 4 min 57 sec) 
Heartbeat CPU 0 instructions: 130000000 cycles: 110516627 heartbeat IPC: 0.799661 cumulative IPC: 0.801269 (Simulation time: 0 hr 5 min 26 sec) 
Heartbeat CPU 0 instructions: 140000000 cycles: 122992300 heartbeat IPC: 0.80156 cumulative IPC: 0.801342 (Simulation time: 0 hr 5 min 54 sec) 
Heartbeat CPU 0 instructions: 150000000 cycles: 135425163 heartbeat IPC: 0.80432 cumulative IPC: 0.801935 (Simulation time: 0 hr 6 min 23 sec) 
Heartbeat CPU 0 instructions: 160000000 cycles: 147903273 heartbeat IPC: 0.801403 cumulative IPC: 0.801847 (Simulation time: 0 hr 6 min 52 sec) 
Heartbeat CPU 0 instructions: 170000001 cycles: 160392658 heartbeat IPC: 0.80068 cumulative IPC: 0.80168 (Simulation time: 0 hr 7 min 21 sec) 
Heartbeat CPU 0 instructions: 180000000 cycles: 172878826 heartbeat IPC: 0.800886 cumulative IPC: 0.801581 (Simulation time: 0 hr 7 min 49 sec) 
Heartbeat CPU 0 instructions: 190000000 cycles: 185396377 heartbeat IPC: 0.798878 cumulative IPC: 0.801279 (Simulation time: 0 hr 8 min 18 sec) 
Heartbeat CPU 0 instructions: 200000000 cycles: 197875022 heartbeat IPC: 0.801369 cumulative IPC: 0.801288 (Simulation time: 0 hr 8 min 47 sec) 
Heartbeat CPU 0 instructions: 210000002 cycles: 210384283 heartbeat IPC: 0.799408 cumulative IPC: 0.801117 (Simulation time: 0 hr 9 min 16 sec) 
Heartbeat CPU 0 instructions: 220000000 cycles: 222917544 heartbeat IPC: 0.797877 cumulative IPC: 0.800846 (Simulation time: 0 hr 9 min 44 sec) 
Heartbeat CPU 0 instructions: 230000002 cycles: 235379915 heartbeat IPC: 0.802416 cumulative IPC: 0.800967 (Simulation time: 0 hr 10 min 13 sec) 
Heartbeat CPU 0 instructions: 240000000 cycles: 248596435 heartbeat IPC: 0.756629 cumulative IPC: 0.797628 (Simulation time: 0 hr 10 min 42 sec) 
Heartbeat CPU 0 instructions: 250000001 cycles: 266062584 heartbeat IPC: 0.572536 cumulative IPC: 0.777256 (Simulation time: 0 hr 11 min 14 sec) 
Heartbeat CPU 0 instructions: 260000000 cycles: 283517151 heartbeat IPC: 0.572916 cumulative IPC: 0.760308 (Simulation time: 0 hr 11 min 45 sec) 
Heartbeat CPU 0 instructions: 270000000 cycles: 301037196 heartbeat IPC: 0.570775 cumulative IPC: 0.745741 (Simulation time: 0 hr 12 min 16 sec) 
Heartbeat CPU 0 instructions: 280000000 cycles: 318533575 heartbeat IPC: 0.571547 cumulative IPC: 0.733324 (Simulation time: 0 hr 12 min 47 sec) 
Heartbeat CPU 0 instructions: 290000000 cycles: 347314327 heartbeat IPC: 0.347454 cumulative IPC: 0.692828 (Simulation time: 0 hr 13 min 26 sec) 
Heartbeat CPU 0 instructions: 300000000 cycles: 384543950 heartbeat IPC: 0.268603 cumulative IPC: 0.642121 (Simulation time: 0 hr 14 min 10 sec) 
Heartbeat CPU 0 instructions: 310000000 cycles: 401423126 heartbeat IPC: 0.592446 cumulative IPC: 0.639567 (Simulation time: 0 hr 14 min 40 sec) 
Heartbeat CPU 0 instructions: 320000000 cycles: 418253989 heartbeat IPC: 0.594147 cumulative IPC: 0.637352 (Simulation time: 0 hr 15 min 11 sec) 
Heartbeat CPU 0 instructions: 330000003 cycles: 435223752 heartbeat IPC: 0.589284 cumulative IPC: 0.6351 (Simulation time: 0 hr 15 min 41 sec) 
Heartbeat CPU 0 instructions: 340000000 cycles: 452132930 heartbeat IPC: 0.591395 cumulative IPC: 0.63315 (Simulation time: 0 hr 16 min 11 sec) 
Heartbeat CPU 0 instructions: 350000001 cycles: 467208291 heartbeat IPC: 0.663334 cumulative IPC: 0.634305 (Simulation time: 0 hr 16 min 40 sec) 
Heartbeat CPU 0 instructions: 360000000 cycles: 479154001 heartbeat IPC: 0.837121 cumulative IPC: 0.640271 (Simulation time: 0 hr 17 min 6 sec) 
Heartbeat CPU 0 instructions: 370000002 cycles: 490862986 heartbeat IPC: 0.854045 cumulative IPC: 0.646262 (Simulation time: 0 hr 17 min 32 sec) 
Heartbeat CPU 0 instructions: 380000000 cycles: 502760754 heartbeat IPC: 0.840494 cumulative IPC: 0.651641 (Simulation time: 0 hr 17 min 59 sec) 
Heartbeat CPU 0 instructions: 390000003 cycles: 516120997 heartbeat IPC: 0.74849 cumulative IPC: 0.654561 (Simulation time: 0 hr 18 min 26 sec) 
Heartbeat CPU 0 instructions: 400000000 cycles: 528423969 heartbeat IPC: 0.812811 cumulative IPC: 0.658837 (Simulation time: 0 hr 18 min 53 sec) 
Heartbeat CPU 0 instructions: 410000003 cycles: 540435240 heartbeat IPC: 0.832552 cumulative IPC: 0.663301 (Simulation time: 0 hr 19 min 20 sec) 
Heartbeat CPU 0 instructions: 420000000 cycles: 553338845 heartbeat IPC: 0.774977 cumulative IPC: 0.666302 (Simulation time: 0 hr 19 min 46 sec) 
Heartbeat CPU 0 instructions: 430000003 cycles: 571966441 heartbeat IPC: 0.536838 cumulative IPC: 0.661468 (Simulation time: 0 hr 20 min 11 sec) 
Heartbeat CPU 0 instructions: 440000000 cycles: 590600592 heartbeat IPC: 0.536649 cumulative IPC: 0.656974 (Simulation time: 0 hr 20 min 35 sec) 
Heartbeat CPU 0 instructions: 450000003 cycles: 609274800 heartbeat IPC: 0.535498 cumulative IPC: 0.652743 (Simulation time: 0 hr 20 min 59 sec) 
Heartbeat CPU 0 instructions: 460000000 cycles: 627896792 heartbeat IPC: 0.536999 cumulative IPC: 0.648858 (Simulation time: 0 hr 21 min 24 sec) 
Heartbeat CPU 0 instructions: 470000003 cycles: 646536917 heartbeat IPC: 0.536477 cumulative IPC: 0.645205 (Simulation time: 0 hr 21 min 48 sec) 
Heartbeat CPU 0 instructions: 480000000 cycles: 665176826 heartbeat IPC: 0.536483 cumulative IPC: 0.641783 (Simulation time: 0 hr 22 min 12 sec) 
Heartbeat CPU 0 instructions: 490000003 cycles: 683849694 heartbeat IPC: 0.535537 cumulative IPC: 0.638534 (Simulation time: 0 hr 22 min 37 sec) 
Heartbeat CPU 0 instructions: 500000000 cycles: 702454913 heartbeat IPC: 0.537483 cumulative IPC: 0.635547 (Simulation time: 0 hr 23 min 1 sec) 
Heartbeat CPU 0 instructions: 510000003 cycles: 721091394 heartbeat IPC: 0.536582 cumulative IPC: 0.632701 (Simulation time: 0 hr 23 min 25 sec) 
Heartbeat CPU 0 instructions: 520000000 cycles: 739730344 heartbeat IPC: 0.536511 cumulative IPC: 0.630012 (Simulation time: 0 hr 23 min 49 sec) 
Heartbeat CPU 0 instructions: 530000001 cycles: 758380401 heartbeat IPC: 0.536191 cumulative IPC: 0.627458 (Simulation time: 0 hr 24 min 14 sec) 
Heartbeat CPU 0 instructions: 540000000 cycles: 776961769 heartbeat IPC: 0.538173 cumulative IPC: 0.625101 (Simulation time: 0 hr 24 min 38 sec) 
Heartbeat CPU 0 instructions: 550000001 cycles: 795552584 heartbeat IPC: 0.5379 cumulative IPC: 0.622858 (Simulation time: 0 hr 25 min 2 sec) 
Heartbeat CPU 0 instructions: 560000000 cycles: 814148166 heartbeat IPC: 0.537762 cumulative IPC: 0.620722 (Simulation time: 0 hr 25 min 27 sec) 
Heartbeat CPU 0 instructions: 570000001 cycles: 832739244 heartbeat IPC: 0.537892 cumulative IPC: 0.618695 (Simulation time: 0 hr 25 min 51 sec) 
Heartbeat CPU 0 instructions: 580000000 cycles: 851262196 heartbeat IPC: 0.539871 cumulative IPC: 0.616819 (Simulation time: 0 hr 26 min 15 sec) 
Heartbeat CPU 0 instructions: 590000001 cycles: 869850673 heartbeat IPC: 0.537968 cumulative IPC: 0.614979 (Simulation time: 0 hr 26 min 40 sec) 
Heartbeat CPU 0 instructions: 600000000 cycles: 888446086 heartbeat IPC: 0.537767 cumulative IPC: 0.613218 (Simulation time: 0 hr 27 min 4 sec) 
Finished CPU 0 instructions: 500000002 cycles: 815370091 cumulative IPC: 0.613218 (Simulation time: 0 hr 27 min 4 sec) 

CPU 0 Branch Prediction Accuracy: 99.5931% MPKI: 0.08288
Number of Branches: 10184133 Number of Mispredictions: 41440
Number of LOAD Instructions: 261155957
Number of LOAD Instructions (ROI): 261155957
Number of STORE Instructions: 57884062
Number of STORE Instructions (ROI): 57884062
Total Destination Memory Operands: 83293336
Total Destination Memory Operands (ROI): 83293336
Total Source Memory Operands: 261155957
Total Source Memory Operands (ROI): 261155957
Number of DEPENDED LOADS: 22256524
Number of DEPENDED LOADS (ROI): 22256524
Number of SQ_ADDED: 83293300
Number of SQ_ADDED (ROI): 83293300
Number of LQ_ADDED: 1775861772
Number of LQ_ADDED (ROI): 1775861772
Number of Instructions read from trace: 600000257

ChampSim completed all CPUs

Region of Interest Statistics

CPU 0 cumulative IPC: 0.613218 instructions: 500000002 cycles: 815370091
ITLB TOTAL     ACCESS:   94724738  HIT:   94724700  MISS:         38
ITLB LOAD      ACCESS:   94724738  HIT:   94724700  MISS:         38
ITLB RFO       ACCESS:          0  HIT:          0  MISS:          0
ITLB PREFETCH  ACCESS:          0  HIT:          0  MISS:          0
ITLB WRITEBACK ACCESS:          0  HIT:          0  MISS:          0
ITLB PREFETCH  REQUESTED:          0  ISSUED:          0  USEFUL:          0  USELESS:          0
ITLB TOTAL MSHR MERGED:         93
ITLB LOAD MSHR MERGED:         93
ITLB RFO MSHR MERGED:          0
ITLB PREFETCH MSHR MERGED:          0
ITLB WRITEBACK MSHR MERGED:          0
ITLB TOTAL ACCESSES:   94724831 HITS:   94724700 MISSES:        131
ITLB LOAD ACCESSES:   94724831 HITS:   94724700 MISSES:        131
ITLB RFO ACCESSES:          0 HITS:          0 MISSES:          0
ITLB PREFETCH ACCESSES:          0 HITS:          0 MISSES:          0
ITLB WRITEBACK ACCESSES:          0 HITS:          0 MISSES:          0
ITLB RQ ACCESS:  500000001
ITLB RQ TO_CACHE:   94724832
ITLB RQ MERGED:  405275169
ITLB RQ FORWARD:          0
ITLB WQ ACCESS:          0
ITLB WQ TO_CACHE:          0
ITLB WQ MERGED:          0
ITLB WQ FORWARD:          0
DTLB TOTAL     ACCESS:  149193102  HIT:  148596142  MISS:     596960
DTLB LOAD      ACCESS:  107320605  HIT:  106723656  MISS:     596949
DTLB RFO       ACCESS:   41872497  HIT:   41872486  MISS:         11
DTLB PREFETCH  ACCESS:          0  HIT:          0  MISS:          0
DTLB WRITEBACK ACCESS:          0  HIT:          0  MISS:          0
DTLB PREFETCH  REQUESTED:          0  ISSUED:          0  USEFUL:          0  USELESS:          0
DTLB TOTAL MSHR MERGED:     134107
DTLB LOAD MSHR MERGED:     134107
DTLB RFO MSHR MERGED:          0
DTLB PREFETCH MSHR MERGED:          0
DTLB WRITEBACK MSHR MERGED:          0
DTLB TOTAL ACCESSES:  149327209 HITS:  148596142 MISSES:     731067
DTLB LOAD ACCESSES:  107454712 HITS:  106723656 MISSES:     731056
DTLB RFO ACCESSES:   41872497 HITS:   41872486 MISSES:         11
DTLB PREFETCH ACCESSES:          0 HITS:          0 MISSES:          0
DTLB WRITEBACK ACCESSES:          0 HITS:          0 MISSES:          0
DTLB RQ ACCESS:  259759371
DTLB RQ TO_CACHE:  149327209
DTLB RQ MERGED:  110432162
DTLB RQ FORWARD:          0
DTLB WQ ACCESS:          0
DTLB WQ TO_CACHE:          0
DTLB WQ MERGED:          0
DTLB WQ FORWARD:          0
L1D TOTAL     ACCESS:  261096066  HIT:  245692990  MISS:   15403076
L1D LOAD      ACCESS:  118069412  HIT:  112572503  MISS:    5496909
L1D RFO       ACCESS:   68946738  HIT:   68932332  MISS:      14406
L1D PREFETCH  ACCESS:   74079916  HIT:   64188155  MISS:    9891761
L1D WRITEBACK ACCESS:          0  HIT:          0  MISS:          0
L1D PREFETCH  REQUESTED:  120655773  ISSUED:  119106125  USEFUL:    8015672  USELESS:    1876111
L1D TOTAL MSHR MERGED:   16496017
L1D LOAD MSHR MERGED:    4994564
L1D RFO MSHR MERGED:      21839
L1D PREFETCH MSHR MERGED:   11479614
L1D WRITEBACK MSHR MERGED:          0
L1D TOTAL ACCESSES:  277702289 HITS:  245803196 MISSES:   31899093
L1D LOAD ACCESSES:  120663304 HITS:  112580034 MISSES:    8083270
L1D RFO ACCESSES:   68968577 HITS:   68932332 MISSES:      36245
L1D PREFETCH ACCESSES:   88070408 HITS:   64290830 MISSES:   23779578
L1D WRITEBACK ACCESSES:          0 HITS:          0 MISSES:          0
L1D RQ ACCESS:  190685055
L1D RQ TO_CACHE:  120655773
L1D RQ MERGED:   70021751
L1D RQ FORWARD:          0
L1D WQ ACCESS:   69074336
L1D WQ TO_CACHE:   68968579
L1D WQ MERGED:     105757
L1D WQ FORWARD:     110206
L1I TOTAL     ACCESS:  121627826  HIT:  121626753  MISS:       1073
L1I LOAD      ACCESS:  121627826  HIT:  121626753  MISS:       1073
L1I RFO       ACCESS:          0  HIT:          0  MISS:          0
L1I PREFETCH  ACCESS:          0  HIT:          0  MISS:          0
L1I WRITEBACK ACCESS:          0  HIT:          0  MISS:          0
L1I PREFETCH  REQUESTED:          0  ISSUED:          0  USEFUL:          0  USELESS:          0
L1I TOTAL MSHR MERGED:       1088
L1I LOAD MSHR MERGED:       1088
L1I RFO MSHR MERGED:          0
L1I PREFETCH MSHR MERGED:          0
L1I WRITEBACK MSHR MERGED:          0
L1I TOTAL ACCESSES:  121628914 HITS:  121626753 MISSES:       2161
L1I LOAD ACCESSES:  121628914 HITS:  121626753 MISSES:       2161
L1I RFO ACCESSES:          0 HITS:          0 MISSES:          0
L1I PREFETCH ACCESSES:          0 HITS:          0 MISSES:          0
L1I WRITEBACK ACCESSES:          0 HITS:          0 MISSES:          0
L1I RQ ACCESS:  500000000
L1I RQ TO_CACHE:  121628914
L1I RQ MERGED:  378371086
L1I RQ FORWARD:          0
L1I WQ ACCESS:          0
L1I WQ TO_CACHE:          0
L1I WQ MERGED:          0
L1I WQ FORWARD:          0
L2C TOTAL     ACCESS:   22474312  HIT:    9150085  MISS:   13324227
L2C LOAD      ACCESS:    3089742  HIT:     415795  MISS:    2673947
L2C RFO       ACCESS:      14406  HIT:      13992  MISS:        414
L2C PREFETCH  ACCESS:   12740235  HIT:    2092176  MISS:   10648059
L2C WRITEBACK ACCESS:    6629929  HIT:    6628122  MISS:       1807
L2C PREFETCH  REQUESTED:     692383  ISSUED:     692383  USEFUL:     185725  USELESS:   10463127
L2C TOTAL MSHR MERGED:      71608
L2C LOAD MSHR MERGED:      22549
L2C RFO MSHR MERGED:          0
L2C PREFETCH MSHR MERGED:      49059
L2C WRITEBACK MSHR MERGED:          0
L2C TOTAL ACCESSES:   22686452 HITS:    9150136 MISSES:   13536316
L2C LOAD ACCESSES:    3089779 HITS:     415832 MISSES:    2673947
L2C RFO ACCESSES:      14406 HITS:      13992 MISSES:        414
L2C PREFETCH ACCESSES:   12952338 HITS:    2092190 MISSES:   10860148
L2C WRITEBACK ACCESSES:    6629929 HITS:    6628122 MISSES:       1807
L2C RQ ACCESS:    3104185
L2C RQ TO_CACHE:    3104148
L2C RQ MERGED:          0
L2C RQ FORWARD:          0
L2C WQ ACCESS:    6629929
L2C WQ TO_CACHE:    6629929
L2C WQ MERGED:          0
L2C WQ FORWARD:         51
LLC TOTAL     ACCESS:   20031469  HIT:    1695797  MISS:   18335672
LLC LOAD      ACCESS:    2651398  HIT:     341157  MISS:    2310241
LLC RFO       ACCESS:        414  HIT:         15  MISS:        399
LLC PREFETCH  ACCESS:   10788416  HIT:      99657  MISS:   10688759
LLC WRITEBACK ACCESS:    6591241  HIT:    1254968  MISS:    5336273
LLC PREFETCH  REQUESTED:          0  ISSUED:          0  USEFUL:      47076  USELESS:   10642676
LLC TOTAL MSHR MERGED:      21218
LLC LOAD MSHR MERGED:       9858
LLC RFO MSHR MERGED:          0
LLC PREFETCH MSHR MERGED:      11360
LLC WRITEBACK MSHR MERGED:          0
LLC TOTAL ACCESSES:   20052690 HITS:    1695799 MISSES:   18356891
LLC LOAD ACCESSES:    2651398 HITS:     341157 MISSES:    2310241
LLC RFO ACCESSES:        414 HITS:         15 MISSES:        399
LLC PREFETCH ACCESSES:   10809637 HITS:      99659 MISSES:   10709978
LLC WRITEBACK ACCESSES:    6591241 HITS:    1254968 MISSES:    5336273
LLC 0 RQ ACCESS:    2651812
LLC 0 RQ TO_CACHE:    2651812
LLC 0 RQ MERGED:          0
LLC 0 RQ FORWARD:          0
LLC WQ ACCESS:    6591242
LLC WQ TO_CACHE:    6591242
LLC WQ MERGED:          0
LLC WQ FORWARD:          2
Major fault: 0 Minor fault: 183991
CPU 0 L1D next line prefetcher final stats
CPU 0 L2C PC-based stride prefetcher final stats
All Misses: 21225000
All Hits: 1737515
SD Algo Stats - Switches: 0 SRR-Repls: 2371395 BRR-Repls: 0

DRAM Statistics
 CHANNEL 0
 RQ ROW_BUFFER_HIT:    7214094  ROW_BUFFER_MISS:    5785305
 DBUS_CONGESTED:   11289584
 WQ ROW_BUFFER_HIT:     838542  ROW_BUFFER_MISS:    5749538  FULL:          0

 AVG_CONGESTED_CYCLE: 13
LOADS RETIRED: 204440772
INSTR RETIRED: 500000000
