
*** ChampSim Multicore Out-of-Order Simulator ***

Warmup Instructions: 100000000
Simulation Instructions: 500000000
Number of CPUs: 1
LLC sets: 2048
LLC ways: 16
Clean RRIP Policies: 2101212021012120 Dirty RRIP Policies: 1101210011012100 PSEL Width: 10 Track Set: 4294967295 PSEL Mask: 1 Demote Mask: 2143240121432401DS Algo: 0Window size: 0
Off-chip DRAM Size: 4096 MB Channels: 1 Width: 64-bit Data Rate: 1600 MT/s

CPU 0 runs /mnt/beegfs/iconst01/spec2017/Parest.trace.gz
NOT SORTED
TRACE STRING: /mnt/beegfs/iconst01/spec2017/Parest.trace.gz
SORTED
TRACE STRING: /mnt/beegfs/iconst01/spec2017/Parest.trace.gz
INITIAL
TRACE STRING: /mnt/beegfs/iconst01/spec2017/Parest.trace.gz

champsim_seed used: 623

CPU 0 L1D next line prefetcher
CPU 0 L2C IP-based stride prefetcher
Initialize DRRIP state
Assign rand_sets[0]: 454  LLC: 2048
rand_sets[0]: 454
Assign rand_sets[1]: 1662  LLC: 2048
rand_sets[1]: 1662
Assign rand_sets[2]: 1921  LLC: 2048
rand_sets[2]: 1921
Assign rand_sets[3]: 1131  LLC: 2048
rand_sets[3]: 1131
Assign rand_sets[4]: 331  LLC: 2048
rand_sets[4]: 331
Assign rand_sets[5]: 1531  LLC: 2048
rand_sets[5]: 1531
Assign rand_sets[6]: 482  LLC: 2048
rand_sets[6]: 482
Assign rand_sets[7]: 1275  LLC: 2048
rand_sets[7]: 1275
Assign rand_sets[8]: 1876  LLC: 2048
rand_sets[8]: 1876
Assign rand_sets[9]: 2038  LLC: 2048
rand_sets[9]: 2038
Assign rand_sets[10]: 701  LLC: 2048
rand_sets[10]: 701
Assign rand_sets[11]: 479  LLC: 2048
rand_sets[11]: 479
Assign rand_sets[12]: 892  LLC: 2048
rand_sets[12]: 892
Assign rand_sets[13]: 1820  LLC: 2048
rand_sets[13]: 1820
Assign rand_sets[14]: 1505  LLC: 2048
rand_sets[14]: 1505
Assign rand_sets[15]: 1159  LLC: 2048
rand_sets[15]: 1159
Assign rand_sets[16]: 513  LLC: 2048
rand_sets[16]: 513
Assign rand_sets[17]: 703  LLC: 2048
rand_sets[17]: 703
Assign rand_sets[18]: 561  LLC: 2048
rand_sets[18]: 561
Assign rand_sets[19]: 990  LLC: 2048
rand_sets[19]: 990
Assign rand_sets[20]: 342  LLC: 2048
rand_sets[20]: 342
Assign rand_sets[21]: 882  LLC: 2048
rand_sets[21]: 882
Assign rand_sets[22]: 15  LLC: 2048
rand_sets[22]: 15
Assign rand_sets[23]: 71  LLC: 2048
rand_sets[23]: 71
Assign rand_sets[24]: 1127  LLC: 2048
rand_sets[24]: 1127
Assign rand_sets[25]: 1382  LLC: 2048
rand_sets[25]: 1382
Assign rand_sets[26]: 647  LLC: 2048
rand_sets[26]: 647
Assign rand_sets[27]: 857  LLC: 2048
rand_sets[27]: 857
Assign rand_sets[28]: 1450  LLC: 2048
rand_sets[28]: 1450
Assign rand_sets[29]: 1160  LLC: 2048
rand_sets[29]: 1160
Assign rand_sets[30]: 1852  LLC: 2048
rand_sets[30]: 1852
Assign rand_sets[31]: 1881  LLC: 2048
rand_sets[31]: 1881
Assign rand_sets[32]: 1770  LLC: 2048
rand_sets[32]: 1770
Assign rand_sets[33]: 1622  LLC: 2048
rand_sets[33]: 1622
Assign rand_sets[34]: 275  LLC: 2048
rand_sets[34]: 275
Assign rand_sets[35]: 635  LLC: 2048
rand_sets[35]: 635
Assign rand_sets[36]: 466  LLC: 2048
rand_sets[36]: 466
Assign rand_sets[37]: 1413  LLC: 2048
rand_sets[37]: 1413
Assign rand_sets[38]: 417  LLC: 2048
rand_sets[38]: 417
Assign rand_sets[39]: 472  LLC: 2048
rand_sets[39]: 472
Assign rand_sets[40]: 1340  LLC: 2048
rand_sets[40]: 1340
Assign rand_sets[41]: 852  LLC: 2048
rand_sets[41]: 852
Assign rand_sets[42]: 1365  LLC: 2048
rand_sets[42]: 1365
Assign rand_sets[43]: 47  LLC: 2048
rand_sets[43]: 47
Assign rand_sets[44]: 823  LLC: 2048
rand_sets[44]: 823
Assign rand_sets[45]: 686  LLC: 2048
rand_sets[45]: 686
Assign rand_sets[46]: 1637  LLC: 2048
rand_sets[46]: 1637
Assign rand_sets[47]: 1115  LLC: 2048
rand_sets[47]: 1115
Assign rand_sets[48]: 986  LLC: 2048
rand_sets[48]: 986
Assign rand_sets[49]: 258  LLC: 2048
rand_sets[49]: 258
Assign rand_sets[50]: 633  LLC: 2048
rand_sets[50]: 633
Assign rand_sets[51]: 920  LLC: 2048
rand_sets[51]: 920
Assign rand_sets[52]: 204  LLC: 2048
rand_sets[52]: 204
Assign rand_sets[53]: 227  LLC: 2048
rand_sets[53]: 227
Assign rand_sets[54]: 1818  LLC: 2048
rand_sets[54]: 1818
Assign rand_sets[55]: 886  LLC: 2048
rand_sets[55]: 886
Assign rand_sets[56]: 1422  LLC: 2048
rand_sets[56]: 1422
Assign rand_sets[57]: 607  LLC: 2048
rand_sets[57]: 607
Assign rand_sets[58]: 217  LLC: 2048
rand_sets[58]: 217
Assign rand_sets[59]: 1945  LLC: 2048
rand_sets[59]: 1945
Assign rand_sets[60]: 143  LLC: 2048
rand_sets[60]: 143
Assign rand_sets[61]: 1311  LLC: 2048
rand_sets[61]: 1311
Assign rand_sets[62]: 319  LLC: 2048
rand_sets[62]: 319
Assign rand_sets[63]: 1846  LLC: 2048
rand_sets[63]: 1846
 CLEAN-RRIP-POLICY-1: 2-1-0-1-2-1-2-0- CLEAN-RRIP-POLICY-2: 2-1-0-1-2-1-2-0-
 DIRTY-RRIP-POLICY-1: 1-1-0-1-2-1-0-0- DIRTY-RRIP-POLICY-2: 1-1-0-1-2-1-0-0-
 PSEL width: 10
Heartbeat CPU 0 instructions: 10000001 cycles: 4386598 heartbeat IPC: 2.27967 cumulative IPC: 2.27967 (Simulation time: 0 hr 0 min 14 sec) 
Heartbeat CPU 0 instructions: 20000000 cycles: 8779690 heartbeat IPC: 2.2763 cumulative IPC: 2.27798 (Simulation time: 0 hr 0 min 28 sec) 
Heartbeat CPU 0 instructions: 30000003 cycles: 13211363 heartbeat IPC: 2.25648 cumulative IPC: 2.27077 (Simulation time: 0 hr 0 min 42 sec) 
Heartbeat CPU 0 instructions: 40000000 cycles: 17641387 heartbeat IPC: 2.25732 cumulative IPC: 2.2674 (Simulation time: 0 hr 0 min 56 sec) 
Heartbeat CPU 0 instructions: 50000000 cycles: 22048788 heartbeat IPC: 2.26891 cumulative IPC: 2.2677 (Simulation time: 0 hr 1 min 10 sec) 
Heartbeat CPU 0 instructions: 60000000 cycles: 26453969 heartbeat IPC: 2.27005 cumulative IPC: 2.26809 (Simulation time: 0 hr 1 min 24 sec) 
Heartbeat CPU 0 instructions: 70000000 cycles: 30854469 heartbeat IPC: 2.27247 cumulative IPC: 2.26872 (Simulation time: 0 hr 1 min 37 sec) 
Heartbeat CPU 0 instructions: 80000000 cycles: 35249611 heartbeat IPC: 2.27524 cumulative IPC: 2.26953 (Simulation time: 0 hr 1 min 52 sec) 
Heartbeat CPU 0 instructions: 90000000 cycles: 39643078 heartbeat IPC: 2.27611 cumulative IPC: 2.27026 (Simulation time: 0 hr 2 min 6 sec) 
Heartbeat CPU 0 instructions: 100000000 cycles: 44040147 heartbeat IPC: 2.27424 cumulative IPC: 2.27066 (Simulation time: 0 hr 2 min 20 sec) 

Warmup complete CPU 0 instructions: 100000002 cycles: 44040157 (Simulation time: 0 hr 2 min 20 sec) 

Heartbeat CPU 0 instructions: 110000000 cycles: 54691021 heartbeat IPC: 0.93889 cumulative IPC: 0.938891 (Simulation time: 0 hr 2 min 38 sec) 
Heartbeat CPU 0 instructions: 120000000 cycles: 64701406 heartbeat IPC: 0.998963 cumulative IPC: 0.967996 (Simulation time: 0 hr 2 min 57 sec) 
Heartbeat CPU 0 instructions: 130000000 cycles: 74617107 heartbeat IPC: 1.0085 cumulative IPC: 0.981131 (Simulation time: 0 hr 3 min 15 sec) 
Heartbeat CPU 0 instructions: 140000000 cycles: 84608904 heartbeat IPC: 1.00082 cumulative IPC: 0.985981 (Simulation time: 0 hr 3 min 33 sec) 
Heartbeat CPU 0 instructions: 150000000 cycles: 96506488 heartbeat IPC: 0.840507 cumulative IPC: 0.952992 (Simulation time: 0 hr 3 min 52 sec) 
Heartbeat CPU 0 instructions: 160000000 cycles: 107620978 heartbeat IPC: 0.899726 cumulative IPC: 0.943681 (Simulation time: 0 hr 4 min 10 sec) 
Heartbeat CPU 0 instructions: 170000000 cycles: 118579536 heartbeat IPC: 0.912529 cumulative IPC: 0.939101 (Simulation time: 0 hr 4 min 29 sec) 
Heartbeat CPU 0 instructions: 180000000 cycles: 129470737 heartbeat IPC: 0.918172 cumulative IPC: 0.936433 (Simulation time: 0 hr 4 min 47 sec) 
Heartbeat CPU 0 instructions: 190000002 cycles: 140349510 heartbeat IPC: 0.919222 cumulative IPC: 0.934489 (Simulation time: 0 hr 5 min 6 sec) 
Heartbeat CPU 0 instructions: 200000000 cycles: 150587977 heartbeat IPC: 0.976709 cumulative IPC: 0.938546 (Simulation time: 0 hr 5 min 24 sec) 
Heartbeat CPU 0 instructions: 210000000 cycles: 161273852 heartbeat IPC: 0.935815 cumulative IPC: 0.938297 (Simulation time: 0 hr 5 min 43 sec) 
Heartbeat CPU 0 instructions: 220000000 cycles: 171156020 heartbeat IPC: 1.01192 cumulative IPC: 0.944021 (Simulation time: 0 hr 6 min 1 sec) 
Heartbeat CPU 0 instructions: 230000001 cycles: 183142619 heartbeat IPC: 0.834265 cumulative IPC: 0.934563 (Simulation time: 0 hr 6 min 20 sec) 
Heartbeat CPU 0 instructions: 240000000 cycles: 194426916 heartbeat IPC: 0.886187 cumulative IPC: 0.930933 (Simulation time: 0 hr 6 min 39 sec) 
Heartbeat CPU 0 instructions: 250000002 cycles: 205441098 heartbeat IPC: 0.907921 cumulative IPC: 0.929363 (Simulation time: 0 hr 6 min 57 sec) 
Heartbeat CPU 0 instructions: 260000000 cycles: 216235985 heartbeat IPC: 0.926364 cumulative IPC: 0.929175 (Simulation time: 0 hr 7 min 16 sec) 
Heartbeat CPU 0 instructions: 270000001 cycles: 226820091 heartbeat IPC: 0.944813 cumulative IPC: 0.93008 (Simulation time: 0 hr 7 min 34 sec) 
Heartbeat CPU 0 instructions: 280000000 cycles: 237651403 heartbeat IPC: 0.923249 cumulative IPC: 0.929698 (Simulation time: 0 hr 7 min 53 sec) 
Heartbeat CPU 0 instructions: 290000002 cycles: 247703210 heartbeat IPC: 0.994846 cumulative IPC: 0.932913 (Simulation time: 0 hr 8 min 11 sec) 
Heartbeat CPU 0 instructions: 300000000 cycles: 258290641 heartbeat IPC: 0.944516 cumulative IPC: 0.933487 (Simulation time: 0 hr 8 min 29 sec) 
Heartbeat CPU 0 instructions: 310000000 cycles: 268235111 heartbeat IPC: 1.00558 cumulative IPC: 0.936685 (Simulation time: 0 hr 8 min 47 sec) 
Heartbeat CPU 0 instructions: 320000000 cycles: 278123933 heartbeat IPC: 1.01124 cumulative IPC: 0.939834 (Simulation time: 0 hr 9 min 6 sec) 
Heartbeat CPU 0 instructions: 330000003 cycles: 288205201 heartbeat IPC: 0.991939 cumulative IPC: 0.941986 (Simulation time: 0 hr 9 min 24 sec) 
Heartbeat CPU 0 instructions: 340000000 cycles: 298867987 heartbeat IPC: 0.937841 cumulative IPC: 0.941812 (Simulation time: 0 hr 9 min 42 sec) 
Heartbeat CPU 0 instructions: 350000000 cycles: 310222248 heartbeat IPC: 0.880727 cumulative IPC: 0.939207 (Simulation time: 0 hr 10 min 1 sec) 
Heartbeat CPU 0 instructions: 360000000 cycles: 321195507 heartbeat IPC: 0.911306 cumulative IPC: 0.938102 (Simulation time: 0 hr 10 min 19 sec) 
Heartbeat CPU 0 instructions: 370000000 cycles: 331915899 heartbeat IPC: 0.932802 cumulative IPC: 0.937905 (Simulation time: 0 hr 10 min 38 sec) 
Heartbeat CPU 0 instructions: 380000000 cycles: 342435872 heartbeat IPC: 0.950573 cumulative IPC: 0.938351 (Simulation time: 0 hr 10 min 56 sec) 
Heartbeat CPU 0 instructions: 390000002 cycles: 352589205 heartbeat IPC: 0.984898 cumulative IPC: 0.939883 (Simulation time: 0 hr 11 min 14 sec) 
Heartbeat CPU 0 instructions: 400000000 cycles: 363204371 heartbeat IPC: 0.942048 cumulative IPC: 0.939955 (Simulation time: 0 hr 11 min 33 sec) 
Heartbeat CPU 0 instructions: 410000000 cycles: 373069429 heartbeat IPC: 1.01368 cumulative IPC: 0.942165 (Simulation time: 0 hr 11 min 51 sec) 
Heartbeat CPU 0 instructions: 420000000 cycles: 384148145 heartbeat IPC: 0.902632 cumulative IPC: 0.940878 (Simulation time: 0 hr 12 min 9 sec) 
Heartbeat CPU 0 instructions: 430000000 cycles: 395840612 heartbeat IPC: 0.855251 cumulative IPC: 0.938032 (Simulation time: 0 hr 12 min 28 sec) 
Heartbeat CPU 0 instructions: 440000000 cycles: 406879895 heartbeat IPC: 0.905856 cumulative IPC: 0.937053 (Simulation time: 0 hr 12 min 46 sec) 
Heartbeat CPU 0 instructions: 450000000 cycles: 417824383 heartbeat IPC: 0.913702 cumulative IPC: 0.936369 (Simulation time: 0 hr 13 min 4 sec) 
Heartbeat CPU 0 instructions: 460000000 cycles: 428715552 heartbeat IPC: 0.918175 cumulative IPC: 0.935854 (Simulation time: 0 hr 13 min 22 sec) 
Heartbeat CPU 0 instructions: 470000000 cycles: 439554315 heartbeat IPC: 0.922615 cumulative IPC: 0.935491 (Simulation time: 0 hr 13 min 41 sec) 
Heartbeat CPU 0 instructions: 480000000 cycles: 449706152 heartbeat IPC: 0.985043 cumulative IPC: 0.936731 (Simulation time: 0 hr 13 min 59 sec) 
Heartbeat CPU 0 instructions: 490000002 cycles: 460424739 heartbeat IPC: 0.932959 cumulative IPC: 0.936634 (Simulation time: 0 hr 14 min 17 sec) 
Heartbeat CPU 0 instructions: 500000000 cycles: 470648473 heartbeat IPC: 0.978116 cumulative IPC: 0.937628 (Simulation time: 0 hr 14 min 35 sec) 
Heartbeat CPU 0 instructions: 510000000 cycles: 480495948 heartbeat IPC: 1.01549 cumulative IPC: 0.939385 (Simulation time: 0 hr 14 min 53 sec) 
Heartbeat CPU 0 instructions: 520000000 cycles: 490648367 heartbeat IPC: 0.984987 cumulative IPC: 0.940422 (Simulation time: 0 hr 15 min 11 sec) 
Heartbeat CPU 0 instructions: 530000001 cycles: 501557816 heartbeat IPC: 0.916637 cumulative IPC: 0.939854 (Simulation time: 0 hr 15 min 29 sec) 
Heartbeat CPU 0 instructions: 540000000 cycles: 512907382 heartbeat IPC: 0.881091 cumulative IPC: 0.938432 (Simulation time: 0 hr 15 min 47 sec) 
Heartbeat CPU 0 instructions: 550000003 cycles: 524183867 heartbeat IPC: 0.886801 cumulative IPC: 0.937219 (Simulation time: 0 hr 16 min 6 sec) 
Heartbeat CPU 0 instructions: 560000000 cycles: 535057513 heartbeat IPC: 0.919654 cumulative IPC: 0.93683 (Simulation time: 0 hr 16 min 24 sec) 
Heartbeat CPU 0 instructions: 570000002 cycles: 545584579 heartbeat IPC: 0.949933 cumulative IPC: 0.937105 (Simulation time: 0 hr 16 min 42 sec) 
Heartbeat CPU 0 instructions: 580000000 cycles: 556011154 heartbeat IPC: 0.959088 cumulative IPC: 0.937553 (Simulation time: 0 hr 17 min 0 sec) 
Heartbeat CPU 0 instructions: 590000002 cycles: 566726204 heartbeat IPC: 0.933267 cumulative IPC: 0.937465 (Simulation time: 0 hr 17 min 18 sec) 
Heartbeat CPU 0 instructions: 600000000 cycles: 576882193 heartbeat IPC: 0.98464 cumulative IPC: 0.938364 (Simulation time: 0 hr 17 min 36 sec) 
Finished CPU 0 instructions: 500000000 cycles: 532842050 cumulative IPC: 0.938364 (Simulation time: 0 hr 17 min 36 sec) 

CPU 0 Branch Prediction Accuracy: 97.8526% MPKI: 2.66709
Number of Branches: 62099103 Number of Mispredictions: 1333545
Number of LOAD Instructions: 210576465
Number of LOAD Instructions (ROI): 210576465
Number of STORE Instructions: 16915507
Number of STORE Instructions (ROI): 16915507
Total Destination Memory Operands: 16918869
Total Destination Memory Operands (ROI): 16918869
Total Source Memory Operands: 210576465
Total Source Memory Operands (ROI): 210576465
Number of DEPENDED LOADS: 351676
Number of DEPENDED LOADS (ROI): 351676
Number of SQ_ADDED: 16918826
Number of SQ_ADDED (ROI): 16918826
Number of LQ_ADDED: 210629251
Number of LQ_ADDED (ROI): 210629251
Number of Instructions read from trace: 600000257

ChampSim completed all CPUs

Region of Interest Statistics

CPU 0 cumulative IPC: 0.938364 instructions: 500000000 cycles: 532842050
ITLB TOTAL     ACCESS:   76751143  HIT:   76751105  MISS:         38
ITLB LOAD      ACCESS:   76751143  HIT:   76751105  MISS:         38
ITLB RFO       ACCESS:          0  HIT:          0  MISS:          0
ITLB PREFETCH  ACCESS:          0  HIT:          0  MISS:          0
ITLB WRITEBACK ACCESS:          0  HIT:          0  MISS:          0
ITLB PREFETCH  REQUESTED:          0  ISSUED:          0  USEFUL:          0  USELESS:          0
ITLB TOTAL MSHR MERGED:         37
ITLB LOAD MSHR MERGED:         37
ITLB RFO MSHR MERGED:          0
ITLB PREFETCH MSHR MERGED:          0
ITLB WRITEBACK MSHR MERGED:          0
ITLB TOTAL ACCESSES:   76751180 HITS:   76751105 MISSES:         75
ITLB LOAD ACCESSES:   76751180 HITS:   76751105 MISSES:         75
ITLB RFO ACCESSES:          0 HITS:          0 MISSES:          0
ITLB PREFETCH ACCESSES:          0 HITS:          0 MISSES:          0
ITLB WRITEBACK ACCESSES:          0 HITS:          0 MISSES:          0
ITLB RQ ACCESS:  500000188
ITLB RQ TO_CACHE:   76751181
ITLB RQ MERGED:  423249007
ITLB RQ FORWARD:          0
ITLB WQ ACCESS:          0
ITLB WQ TO_CACHE:          0
ITLB WQ MERGED:          0
ITLB WQ FORWARD:          0
DTLB TOTAL     ACCESS:  136671997  HIT:  136469208  MISS:     202789
DTLB LOAD      ACCESS:  128610480  HIT:  128410412  MISS:     200068
DTLB RFO       ACCESS:    8061517  HIT:    8058796  MISS:       2721
DTLB PREFETCH  ACCESS:          0  HIT:          0  MISS:          0
DTLB WRITEBACK ACCESS:          0  HIT:          0  MISS:          0
DTLB PREFETCH  REQUESTED:          0  ISSUED:          0  USEFUL:          0  USELESS:          0
DTLB TOTAL MSHR MERGED:     437964
DTLB LOAD MSHR MERGED:     434370
DTLB RFO MSHR MERGED:       3594
DTLB PREFETCH MSHR MERGED:          0
DTLB WRITEBACK MSHR MERGED:          0
DTLB TOTAL ACCESSES:  137109961 HITS:  136469208 MISSES:     640753
DTLB LOAD ACCESSES:  129044850 HITS:  128410412 MISSES:     634438
DTLB RFO ACCESSES:    8065111 HITS:    8058796 MISSES:       6315
DTLB PREFETCH ACCESSES:          0 HITS:          0 MISSES:          0
DTLB WRITEBACK ACCESSES:          0 HITS:          0 MISSES:          0
DTLB RQ ACCESS:  189412507
DTLB RQ TO_CACHE:  137109961
DTLB RQ MERGED:   52302546
DTLB RQ FORWARD:          0
DTLB WQ ACCESS:          0
DTLB WQ TO_CACHE:          0
DTLB WQ MERGED:          0
DTLB WQ FORWARD:          0
L1D TOTAL     ACCESS:  124648990  HIT:  107092298  MISS:   17556692
L1D LOAD      ACCESS:   72096468  HIT:   61558016  MISS:   10538452
L1D RFO       ACCESS:   14017872  HIT:   13865039  MISS:     152833
L1D PREFETCH  ACCESS:   38534650  HIT:   31669243  MISS:    6865407
L1D WRITEBACK ACCESS:          0  HIT:          0  MISS:          0
L1D PREFETCH  REQUESTED:   85907181  ISSUED:   84579593  USEFUL:    5606232  USELESS:    1259186
L1D TOTAL MSHR MERGED:   33697117
L1D LOAD MSHR MERGED:   19336877
L1D RFO MSHR MERGED:     268934
L1D PREFETCH MSHR MERGED:   14091306
L1D WRITEBACK MSHR MERGED:          0
L1D TOTAL ACCESSES:  158346683 HITS:  107092875 MISSES:   51253808
L1D LOAD ACCESSES:   85907187 HITS:   61558022 MISSES:   24349165
L1D RFO ACCESSES:   14286785 HITS:   13865039 MISSES:     421746
L1D PREFETCH ACCESSES:   58152711 HITS:   31669814 MISSES:   26482897
L1D WRITEBACK ACCESSES:          0 HITS:          0 MISSES:          0
L1D RQ ACCESS:  175123485
L1D RQ TO_CACHE:   85907181
L1D RQ MERGED:   89216298
L1D RQ FORWARD:          0
L1D WQ ACCESS:   14289037
L1D WQ TO_CACHE:   14286785
L1D WQ MERGED:       2252
L1D WQ FORWARD:        577
L1I TOTAL     ACCESS:   93796552  HIT:   93794756  MISS:       1796
L1I LOAD      ACCESS:   93796552  HIT:   93794756  MISS:       1796
L1I RFO       ACCESS:          0  HIT:          0  MISS:          0
L1I PREFETCH  ACCESS:          0  HIT:          0  MISS:          0
L1I WRITEBACK ACCESS:          0  HIT:          0  MISS:          0
L1I PREFETCH  REQUESTED:          0  ISSUED:          0  USEFUL:          0  USELESS:          0
L1I TOTAL MSHR MERGED:       2350
L1I LOAD MSHR MERGED:       2350
L1I RFO MSHR MERGED:          0
L1I PREFETCH MSHR MERGED:          0
L1I WRITEBACK MSHR MERGED:          0
L1I TOTAL ACCESSES:   93798902 HITS:   93794756 MISSES:       4146
L1I LOAD ACCESSES:   93798902 HITS:   93794756 MISSES:       4146
L1I RFO ACCESSES:          0 HITS:          0 MISSES:          0
L1I PREFETCH ACCESSES:          0 HITS:          0 MISSES:          0
L1I WRITEBACK ACCESSES:          0 HITS:          0 MISSES:          0
L1I RQ ACCESS:  500000187
L1I RQ TO_CACHE:   93798902
L1I RQ MERGED:  406201285
L1I RQ FORWARD:          0
L1I WQ ACCESS:          0
L1I WQ TO_CACHE:          0
L1I WQ MERGED:          0
L1I WQ FORWARD:          0
L2C TOTAL     ACCESS:   20904168  HIT:    8677049  MISS:   12227119
L2C LOAD      ACCESS:    5014055  HIT:    2134453  MISS:    2879602
L2C RFO       ACCESS:     152812  HIT:       6508  MISS:     146304
L2C PREFETCH  ACCESS:   13964545  HIT:    4763442  MISS:    9201103
L2C WRITEBACK ACCESS:    1772756  HIT:    1772646  MISS:        110
L2C PREFETCH  REQUESTED:    1783635  ISSUED:    1783635  USEFUL:    1076326  USELESS:    8126438
L2C TOTAL MSHR MERGED:      71410
L2C LOAD MSHR MERGED:      14932
L2C RFO MSHR MERGED:          0
L2C PREFETCH MSHR MERGED:      56478
L2C WRITEBACK MSHR MERGED:          0
L2C TOTAL ACCESSES:   21006114 HITS:    8677091 MISSES:   12329023
L2C LOAD ACCESSES:    5014084 HITS:    2134482 MISSES:    2879602
L2C RFO ACCESSES:     152812 HITS:       6508 MISSES:     146304
L2C PREFETCH ACCESSES:   14066462 HITS:    4763455 MISSES:    9303007
L2C WRITEBACK ACCESSES:    1772756 HITS:    1772646 MISSES:        110
L2C RQ ACCESS:    5166896
L2C RQ TO_CACHE:    5166867
L2C RQ MERGED:          0
L2C RQ FORWARD:          0
L2C WQ ACCESS:    1772756
L2C WQ TO_CACHE:    1772756
L2C WQ MERGED:          0
L2C WQ FORWARD:         42
LLC TOTAL     ACCESS:   12534426  HIT:    4255004  MISS:    8279422
LLC LOAD      ACCESS:    2864657  HIT:    1584083  MISS:    1280574
LLC RFO       ACCESS:     146304  HIT:      14808  MISS:     131496
LLC PREFETCH  ACCESS:    9237491  HIT:    2386345  MISS:    6851146
LLC WRITEBACK ACCESS:     285974  HIT:     269768  MISS:      16206
LLC PREFETCH  REQUESTED:          0  ISSUED:          0  USEFUL:     912196  USELESS:    5945775
LLC TOTAL MSHR MERGED:       4603
LLC LOAD MSHR MERGED:       1090
LLC RFO MSHR MERGED:          0
LLC PREFETCH MSHR MERGED:       3513
LLC WRITEBACK MSHR MERGED:          0
LLC TOTAL ACCESSES:   12539059 HITS:    4255034 MISSES:    8284025
LLC LOAD ACCESSES:    2864670 HITS:    1584096 MISSES:    1280574
LLC RFO ACCESSES:     146304 HITS:      14808 MISSES:     131496
LLC PREFETCH ACCESSES:    9242111 HITS:    2386362 MISSES:    6855749
LLC WRITEBACK ACCESSES:     285974 HITS:     269768 MISSES:      16206
LLC 0 RQ ACCESS:    3010974
LLC 0 RQ TO_CACHE:    3010961
LLC 0 RQ MERGED:          0
LLC 0 RQ FORWARD:          0
LLC WQ ACCESS:     285974
LLC WQ TO_CACHE:     285974
LLC WQ MERGED:          0
LLC WQ FORWARD:         30
Major fault: 0 Minor fault: 6524
CPU 0 L1D next line prefetcher final stats
CPU 0 L2C PC-based stride prefetcher final stats
All Misses: 9957789
All Hits: 5101662
SD Algo Stats - Switches: 0 SRR-Repls: 1356102 BRR-Repls: 0

DRAM Statistics
 CHANNEL 0
 RQ ROW_BUFFER_HIT:    7422755  ROW_BUFFER_MISS:     833732
 DBUS_CONGESTED:    3647768
 WQ ROW_BUFFER_HIT:      35135  ROW_BUFFER_MISS:     126432  FULL:          0

 AVG_CONGESTED_CYCLE: 12
LOADS RETIRED: 175418235
INSTR RETIRED: 500000000
