
*** ChampSim Multicore Out-of-Order Simulator ***

Warmup Instructions: 100000000
Simulation Instructions: 500000000
Number of CPUs: 1
LLC sets: 2048
LLC ways: 16
Clean RRIP Policies: 2101212021012120 Dirty RRIP Policies: 1101210011012100 PSEL Width: 10 Track Set: 4294967295 PSEL Mask: 1 Demote Mask: 2143240121432401DS Algo: 0Window size: 0
Off-chip DRAM Size: 4096 MB Channels: 1 Width: 64-bit Data Rate: 1600 MT/s

CPU 0 runs /mnt/beegfs/iconst01/spec2017/x264.trace.gz
NOT SORTED
TRACE STRING: /mnt/beegfs/iconst01/spec2017/x264.trace.gz
SORTED
TRACE STRING: /mnt/beegfs/iconst01/spec2017/x264.trace.gz
INITIAL
TRACE STRING: /mnt/beegfs/iconst01/spec2017/x264.trace.gz

champsim_seed used: 276

CPU 0 L1D next line prefetcher
CPU 0 L2C IP-based stride prefetcher
Initialize DRRIP state
Assign rand_sets[0]: 454  LLC: 2048
rand_sets[0]: 454
Assign rand_sets[1]: 1662  LLC: 2048
rand_sets[1]: 1662
Assign rand_sets[2]: 1921  LLC: 2048
rand_sets[2]: 1921
Assign rand_sets[3]: 1131  LLC: 2048
rand_sets[3]: 1131
Assign rand_sets[4]: 331  LLC: 2048
rand_sets[4]: 331
Assign rand_sets[5]: 1531  LLC: 2048
rand_sets[5]: 1531
Assign rand_sets[6]: 482  LLC: 2048
rand_sets[6]: 482
Assign rand_sets[7]: 1275  LLC: 2048
rand_sets[7]: 1275
Assign rand_sets[8]: 1876  LLC: 2048
rand_sets[8]: 1876
Assign rand_sets[9]: 2038  LLC: 2048
rand_sets[9]: 2038
Assign rand_sets[10]: 701  LLC: 2048
rand_sets[10]: 701
Assign rand_sets[11]: 479  LLC: 2048
rand_sets[11]: 479
Assign rand_sets[12]: 892  LLC: 2048
rand_sets[12]: 892
Assign rand_sets[13]: 1820  LLC: 2048
rand_sets[13]: 1820
Assign rand_sets[14]: 1505  LLC: 2048
rand_sets[14]: 1505
Assign rand_sets[15]: 1159  LLC: 2048
rand_sets[15]: 1159
Assign rand_sets[16]: 513  LLC: 2048
rand_sets[16]: 513
Assign rand_sets[17]: 703  LLC: 2048
rand_sets[17]: 703
Assign rand_sets[18]: 561  LLC: 2048
rand_sets[18]: 561
Assign rand_sets[19]: 990  LLC: 2048
rand_sets[19]: 990
Assign rand_sets[20]: 342  LLC: 2048
rand_sets[20]: 342
Assign rand_sets[21]: 882  LLC: 2048
rand_sets[21]: 882
Assign rand_sets[22]: 15  LLC: 2048
rand_sets[22]: 15
Assign rand_sets[23]: 71  LLC: 2048
rand_sets[23]: 71
Assign rand_sets[24]: 1127  LLC: 2048
rand_sets[24]: 1127
Assign rand_sets[25]: 1382  LLC: 2048
rand_sets[25]: 1382
Assign rand_sets[26]: 647  LLC: 2048
rand_sets[26]: 647
Assign rand_sets[27]: 857  LLC: 2048
rand_sets[27]: 857
Assign rand_sets[28]: 1450  LLC: 2048
rand_sets[28]: 1450
Assign rand_sets[29]: 1160  LLC: 2048
rand_sets[29]: 1160
Assign rand_sets[30]: 1852  LLC: 2048
rand_sets[30]: 1852
Assign rand_sets[31]: 1881  LLC: 2048
rand_sets[31]: 1881
Assign rand_sets[32]: 1770  LLC: 2048
rand_sets[32]: 1770
Assign rand_sets[33]: 1622  LLC: 2048
rand_sets[33]: 1622
Assign rand_sets[34]: 275  LLC: 2048
rand_sets[34]: 275
Assign rand_sets[35]: 635  LLC: 2048
rand_sets[35]: 635
Assign rand_sets[36]: 466  LLC: 2048
rand_sets[36]: 466
Assign rand_sets[37]: 1413  LLC: 2048
rand_sets[37]: 1413
Assign rand_sets[38]: 417  LLC: 2048
rand_sets[38]: 417
Assign rand_sets[39]: 472  LLC: 2048
rand_sets[39]: 472
Assign rand_sets[40]: 1340  LLC: 2048
rand_sets[40]: 1340
Assign rand_sets[41]: 852  LLC: 2048
rand_sets[41]: 852
Assign rand_sets[42]: 1365  LLC: 2048
rand_sets[42]: 1365
Assign rand_sets[43]: 47  LLC: 2048
rand_sets[43]: 47
Assign rand_sets[44]: 823  LLC: 2048
rand_sets[44]: 823
Assign rand_sets[45]: 686  LLC: 2048
rand_sets[45]: 686
Assign rand_sets[46]: 1637  LLC: 2048
rand_sets[46]: 1637
Assign rand_sets[47]: 1115  LLC: 2048
rand_sets[47]: 1115
Assign rand_sets[48]: 986  LLC: 2048
rand_sets[48]: 986
Assign rand_sets[49]: 258  LLC: 2048
rand_sets[49]: 258
Assign rand_sets[50]: 633  LLC: 2048
rand_sets[50]: 633
Assign rand_sets[51]: 920  LLC: 2048
rand_sets[51]: 920
Assign rand_sets[52]: 204  LLC: 2048
rand_sets[52]: 204
Assign rand_sets[53]: 227  LLC: 2048
rand_sets[53]: 227
Assign rand_sets[54]: 1818  LLC: 2048
rand_sets[54]: 1818
Assign rand_sets[55]: 886  LLC: 2048
rand_sets[55]: 886
Assign rand_sets[56]: 1422  LLC: 2048
rand_sets[56]: 1422
Assign rand_sets[57]: 607  LLC: 2048
rand_sets[57]: 607
Assign rand_sets[58]: 217  LLC: 2048
rand_sets[58]: 217
Assign rand_sets[59]: 1945  LLC: 2048
rand_sets[59]: 1945
Assign rand_sets[60]: 143  LLC: 2048
rand_sets[60]: 143
Assign rand_sets[61]: 1311  LLC: 2048
rand_sets[61]: 1311
Assign rand_sets[62]: 319  LLC: 2048
rand_sets[62]: 319
Assign rand_sets[63]: 1846  LLC: 2048
rand_sets[63]: 1846
 CLEAN-RRIP-POLICY-1: 2-1-0-1-2-1-2-0- CLEAN-RRIP-POLICY-2: 2-1-0-1-2-1-2-0-
 DIRTY-RRIP-POLICY-1: 1-1-0-1-2-1-0-0- DIRTY-RRIP-POLICY-2: 1-1-0-1-2-1-0-0-
 PSEL width: 10
Heartbeat CPU 0 instructions: 10000000 cycles: 4124769 heartbeat IPC: 2.42438 cumulative IPC: 2.42438 (Simulation time: 0 hr 0 min 13 sec) 
Heartbeat CPU 0 instructions: 20000000 cycles: 8234006 heartbeat IPC: 2.43354 cumulative IPC: 2.42895 (Simulation time: 0 hr 0 min 26 sec) 
Heartbeat CPU 0 instructions: 30000003 cycles: 12465007 heartbeat IPC: 2.36351 cumulative IPC: 2.40674 (Simulation time: 0 hr 0 min 38 sec) 
Heartbeat CPU 0 instructions: 40000000 cycles: 16637056 heartbeat IPC: 2.3969 cumulative IPC: 2.40427 (Simulation time: 0 hr 0 min 51 sec) 
Heartbeat CPU 0 instructions: 50000000 cycles: 20699596 heartbeat IPC: 2.46151 cumulative IPC: 2.41551 (Simulation time: 0 hr 1 min 5 sec) 
Heartbeat CPU 0 instructions: 60000000 cycles: 25022999 heartbeat IPC: 2.31299 cumulative IPC: 2.39779 (Simulation time: 0 hr 1 min 17 sec) 
Heartbeat CPU 0 instructions: 70000000 cycles: 29371320 heartbeat IPC: 2.29974 cumulative IPC: 2.38328 (Simulation time: 0 hr 1 min 30 sec) 
Heartbeat CPU 0 instructions: 80000000 cycles: 33721449 heartbeat IPC: 2.29878 cumulative IPC: 2.37238 (Simulation time: 0 hr 1 min 43 sec) 
Heartbeat CPU 0 instructions: 90000002 cycles: 38032533 heartbeat IPC: 2.3196 cumulative IPC: 2.3664 (Simulation time: 0 hr 1 min 55 sec) 
Heartbeat CPU 0 instructions: 100000000 cycles: 42329494 heartbeat IPC: 2.32723 cumulative IPC: 2.36242 (Simulation time: 0 hr 2 min 8 sec) 

Warmup complete CPU 0 instructions: 100000001 cycles: 42329495 (Simulation time: 0 hr 2 min 8 sec) 

Heartbeat CPU 0 instructions: 110000001 cycles: 49419252 heartbeat IPC: 1.41049 cumulative IPC: 1.41049 (Simulation time: 0 hr 2 min 25 sec) 
Heartbeat CPU 0 instructions: 120000000 cycles: 58948211 heartbeat IPC: 1.04943 cumulative IPC: 1.20346 (Simulation time: 0 hr 2 min 43 sec) 
Heartbeat CPU 0 instructions: 130000000 cycles: 63790471 heartbeat IPC: 2.06515 cumulative IPC: 1.39789 (Simulation time: 0 hr 2 min 59 sec) 
Heartbeat CPU 0 instructions: 140000000 cycles: 68709085 heartbeat IPC: 2.03309 cumulative IPC: 1.51632 (Simulation time: 0 hr 3 min 15 sec) 
Heartbeat CPU 0 instructions: 150000002 cycles: 75631016 heartbeat IPC: 1.44468 cumulative IPC: 1.50143 (Simulation time: 0 hr 3 min 33 sec) 
Heartbeat CPU 0 instructions: 160000000 cycles: 83422987 heartbeat IPC: 1.28337 cumulative IPC: 1.46009 (Simulation time: 0 hr 3 min 50 sec) 
Heartbeat CPU 0 instructions: 170000000 cycles: 90774067 heartbeat IPC: 1.36034 cumulative IPC: 1.44495 (Simulation time: 0 hr 4 min 6 sec) 
Heartbeat CPU 0 instructions: 180000000 cycles: 98036893 heartbeat IPC: 1.37687 cumulative IPC: 1.43607 (Simulation time: 0 hr 4 min 23 sec) 
Heartbeat CPU 0 instructions: 190000002 cycles: 105180983 heartbeat IPC: 1.39976 cumulative IPC: 1.43195 (Simulation time: 0 hr 4 min 39 sec) 
Heartbeat CPU 0 instructions: 200000000 cycles: 112388572 heartbeat IPC: 1.38743 cumulative IPC: 1.42737 (Simulation time: 0 hr 4 min 56 sec) 
Heartbeat CPU 0 instructions: 210000000 cycles: 119237944 heartbeat IPC: 1.45999 cumulative IPC: 1.43027 (Simulation time: 0 hr 5 min 12 sec) 
Heartbeat CPU 0 instructions: 220000000 cycles: 125997531 heartbeat IPC: 1.47938 cumulative IPC: 1.43424 (Simulation time: 0 hr 5 min 27 sec) 
Heartbeat CPU 0 instructions: 230000003 cycles: 132704275 heartbeat IPC: 1.49104 cumulative IPC: 1.43845 (Simulation time: 0 hr 5 min 43 sec) 
Heartbeat CPU 0 instructions: 240000000 cycles: 139438704 heartbeat IPC: 1.48491 cumulative IPC: 1.44168 (Simulation time: 0 hr 5 min 59 sec) 
Heartbeat CPU 0 instructions: 250000001 cycles: 146129861 heartbeat IPC: 1.49451 cumulative IPC: 1.44508 (Simulation time: 0 hr 6 min 15 sec) 
Heartbeat CPU 0 instructions: 260000000 cycles: 152820053 heartbeat IPC: 1.49473 cumulative IPC: 1.44809 (Simulation time: 0 hr 6 min 31 sec) 
Heartbeat CPU 0 instructions: 270000001 cycles: 159775270 heartbeat IPC: 1.43777 cumulative IPC: 1.44748 (Simulation time: 0 hr 6 min 47 sec) 
Heartbeat CPU 0 instructions: 280000000 cycles: 167291220 heartbeat IPC: 1.3305 cumulative IPC: 1.44044 (Simulation time: 0 hr 7 min 4 sec) 
Heartbeat CPU 0 instructions: 290000000 cycles: 175215339 heartbeat IPC: 1.26197 cumulative IPC: 1.4298 (Simulation time: 0 hr 7 min 21 sec) 
Heartbeat CPU 0 instructions: 300000000 cycles: 183390062 heartbeat IPC: 1.22328 cumulative IPC: 1.41783 (Simulation time: 0 hr 7 min 38 sec) 
Heartbeat CPU 0 instructions: 310000002 cycles: 191693061 heartbeat IPC: 1.20438 cumulative IPC: 1.40597 (Simulation time: 0 hr 7 min 56 sec) 
Heartbeat CPU 0 instructions: 320000000 cycles: 201510710 heartbeat IPC: 1.01857 cumulative IPC: 1.38207 (Simulation time: 0 hr 8 min 15 sec) 
Heartbeat CPU 0 instructions: 330000002 cycles: 206143058 heartbeat IPC: 2.15873 cumulative IPC: 1.40404 (Simulation time: 0 hr 8 min 31 sec) 
Heartbeat CPU 0 instructions: 340000000 cycles: 211400675 heartbeat IPC: 1.902 cumulative IPC: 1.41952 (Simulation time: 0 hr 8 min 47 sec) 
Heartbeat CPU 0 instructions: 350000000 cycles: 218691109 heartbeat IPC: 1.37166 cumulative IPC: 1.41754 (Simulation time: 0 hr 9 min 4 sec) 
Heartbeat CPU 0 instructions: 360000000 cycles: 226340973 heartbeat IPC: 1.30721 cumulative IPC: 1.41296 (Simulation time: 0 hr 9 min 21 sec) 
Heartbeat CPU 0 instructions: 370000000 cycles: 233731329 heartbeat IPC: 1.35311 cumulative IPC: 1.41064 (Simulation time: 0 hr 9 min 38 sec) 
Heartbeat CPU 0 instructions: 380000000 cycles: 240983219 heartbeat IPC: 1.37895 cumulative IPC: 1.40949 (Simulation time: 0 hr 9 min 54 sec) 
Heartbeat CPU 0 instructions: 390000000 cycles: 249122137 heartbeat IPC: 1.22866 cumulative IPC: 1.40237 (Simulation time: 0 hr 10 min 11 sec) 
Heartbeat CPU 0 instructions: 400000000 cycles: 257325118 heartbeat IPC: 1.21907 cumulative IPC: 1.39538 (Simulation time: 0 hr 10 min 29 sec) 
Heartbeat CPU 0 instructions: 410000001 cycles: 265150346 heartbeat IPC: 1.27792 cumulative IPC: 1.39125 (Simulation time: 0 hr 10 min 46 sec) 
Heartbeat CPU 0 instructions: 420000000 cycles: 273214427 heartbeat IPC: 1.24007 cumulative IPC: 1.38597 (Simulation time: 0 hr 11 min 3 sec) 
Heartbeat CPU 0 instructions: 430000001 cycles: 281487511 heartbeat IPC: 1.20874 cumulative IPC: 1.37984 (Simulation time: 0 hr 11 min 20 sec) 
Heartbeat CPU 0 instructions: 440000000 cycles: 289535578 heartbeat IPC: 1.24253 cumulative IPC: 1.37537 (Simulation time: 0 hr 11 min 38 sec) 
Heartbeat CPU 0 instructions: 450000001 cycles: 297414957 heartbeat IPC: 1.26914 cumulative IPC: 1.37209 (Simulation time: 0 hr 11 min 55 sec) 
Heartbeat CPU 0 instructions: 460000000 cycles: 307131187 heartbeat IPC: 1.02921 cumulative IPC: 1.35951 (Simulation time: 0 hr 12 min 13 sec) 
Heartbeat CPU 0 instructions: 470000002 cycles: 311763633 heartbeat IPC: 2.15869 cumulative IPC: 1.37325 (Simulation time: 0 hr 12 min 29 sec) 
Heartbeat CPU 0 instructions: 480000000 cycles: 317032574 heartbeat IPC: 1.89791 cumulative IPC: 1.38331 (Simulation time: 0 hr 12 min 45 sec) 
Heartbeat CPU 0 instructions: 490000001 cycles: 324389594 heartbeat IPC: 1.35925 cumulative IPC: 1.38268 (Simulation time: 0 hr 13 min 3 sec) 
Heartbeat CPU 0 instructions: 500000000 cycles: 333125361 heartbeat IPC: 1.14472 cumulative IPC: 1.37554 (Simulation time: 0 hr 13 min 23 sec) 
Heartbeat CPU 0 instructions: 510000002 cycles: 341863336 heartbeat IPC: 1.14443 cumulative IPC: 1.36879 (Simulation time: 0 hr 13 min 42 sec) 
Heartbeat CPU 0 instructions: 520000000 cycles: 350599875 heartbeat IPC: 1.14462 cumulative IPC: 1.36244 (Simulation time: 0 hr 14 min 1 sec) 
Heartbeat CPU 0 instructions: 530000000 cycles: 359314435 heartbeat IPC: 1.1475 cumulative IPC: 1.35653 (Simulation time: 0 hr 14 min 20 sec) 
Heartbeat CPU 0 instructions: 540000000 cycles: 367561919 heartbeat IPC: 1.21249 cumulative IPC: 1.35288 (Simulation time: 0 hr 14 min 39 sec) 
Heartbeat CPU 0 instructions: 550000000 cycles: 374634457 heartbeat IPC: 1.41392 cumulative IPC: 1.35418 (Simulation time: 0 hr 14 min 56 sec) 
Heartbeat CPU 0 instructions: 560000000 cycles: 381246111 heartbeat IPC: 1.51248 cumulative IPC: 1.35727 (Simulation time: 0 hr 15 min 12 sec) 
Heartbeat CPU 0 instructions: 570000002 cycles: 387805406 heartbeat IPC: 1.52455 cumulative IPC: 1.36044 (Simulation time: 0 hr 15 min 28 sec) 
Heartbeat CPU 0 instructions: 580000000 cycles: 394417068 heartbeat IPC: 1.51248 cumulative IPC: 1.3633 (Simulation time: 0 hr 15 min 45 sec) 
Heartbeat CPU 0 instructions: 590000002 cycles: 401063036 heartbeat IPC: 1.50467 cumulative IPC: 1.36592 (Simulation time: 0 hr 16 min 1 sec) 
Heartbeat CPU 0 instructions: 600000000 cycles: 407822721 heartbeat IPC: 1.47936 cumulative IPC: 1.36801 (Simulation time: 0 hr 16 min 17 sec) 
Finished CPU 0 instructions: 500000000 cycles: 365493234 cumulative IPC: 1.36801 (Simulation time: 0 hr 16 min 17 sec) 

CPU 0 Branch Prediction Accuracy: 93.4682% MPKI: 2.44079
Number of Branches: 18683822 Number of Mispredictions: 1220394
Number of LOAD Instructions: 142551610
Number of LOAD Instructions (ROI): 142551610
Number of STORE Instructions: 44807454
Number of STORE Instructions (ROI): 44807454
Total Destination Memory Operands: 48357071
Total Destination Memory Operands (ROI): 48357071
Total Source Memory Operands: 142551610
Total Source Memory Operands (ROI): 142551610
Number of DEPENDED LOADS: 7393515
Number of DEPENDED LOADS (ROI): 7393515
Number of SQ_ADDED: 48357051
Number of SQ_ADDED (ROI): 48357051
Number of LQ_ADDED: 157249910
Number of LQ_ADDED (ROI): 157249910
Number of Instructions read from trace: 600000256

ChampSim completed all CPUs

Region of Interest Statistics

CPU 0 cumulative IPC: 1.36801 instructions: 500000000 cycles: 365493234
ITLB TOTAL     ACCESS:   88182954  HIT:   88182885  MISS:         69
ITLB LOAD      ACCESS:   88182954  HIT:   88182885  MISS:         69
ITLB RFO       ACCESS:          0  HIT:          0  MISS:          0
ITLB PREFETCH  ACCESS:          0  HIT:          0  MISS:          0
ITLB WRITEBACK ACCESS:          0  HIT:          0  MISS:          0
ITLB PREFETCH  REQUESTED:          0  ISSUED:          0  USEFUL:          0  USELESS:          0
ITLB TOTAL MSHR MERGED:         84
ITLB LOAD MSHR MERGED:         84
ITLB RFO MSHR MERGED:          0
ITLB PREFETCH MSHR MERGED:          0
ITLB WRITEBACK MSHR MERGED:          0
ITLB TOTAL ACCESSES:   88183038 HITS:   88182885 MISSES:        153
ITLB LOAD ACCESSES:   88183038 HITS:   88182885 MISSES:        153
ITLB RFO ACCESSES:          0 HITS:          0 MISSES:          0
ITLB PREFETCH ACCESSES:          0 HITS:          0 MISSES:          0
ITLB WRITEBACK ACCESSES:          0 HITS:          0 MISSES:          0
ITLB RQ ACCESS:  500000000
ITLB RQ TO_CACHE:   88183038
ITLB RQ MERGED:  411816962
ITLB RQ FORWARD:          0
ITLB WQ ACCESS:          0
ITLB WQ TO_CACHE:          0
ITLB WQ MERGED:          0
ITLB WQ FORWARD:          0
DTLB TOTAL     ACCESS:   88203866  HIT:   88076445  MISS:     127421
DTLB LOAD      ACCESS:   59484788  HIT:   59392321  MISS:      92467
DTLB RFO       ACCESS:   28719078  HIT:   28684124  MISS:      34954
DTLB PREFETCH  ACCESS:          0  HIT:          0  MISS:          0
DTLB WRITEBACK ACCESS:          0  HIT:          0  MISS:          0
DTLB PREFETCH  REQUESTED:          0  ISSUED:          0  USEFUL:          0  USELESS:          0
DTLB TOTAL MSHR MERGED:     141172
DTLB LOAD MSHR MERGED:     107734
DTLB RFO MSHR MERGED:      33438
DTLB PREFETCH MSHR MERGED:          0
DTLB WRITEBACK MSHR MERGED:          0
DTLB TOTAL ACCESSES:   88345038 HITS:   88076445 MISSES:     268593
DTLB LOAD ACCESSES:   59592522 HITS:   59392321 MISSES:     200201
DTLB RFO ACCESSES:   28752516 HITS:   28684124 MISSES:      68392
DTLB PREFETCH ACCESSES:          0 HITS:          0 MISSES:          0
DTLB WRITEBACK ACCESSES:          0 HITS:          0 MISSES:          0
DTLB RQ ACCESS:  154560383
DTLB RQ TO_CACHE:   88345038
DTLB RQ MERGED:   66215345
DTLB RQ FORWARD:          0
DTLB WQ ACCESS:          0
DTLB WQ TO_CACHE:          0
DTLB WQ MERGED:          0
DTLB WQ FORWARD:          0
L1D TOTAL     ACCESS:  127965385  HIT:  124740106  MISS:    3225279
L1D LOAD      ACCESS:   53175312  HIT:   51980256  MISS:    1195056
L1D RFO       ACCESS:   37421268  HIT:   36806968  MISS:     614300
L1D PREFETCH  ACCESS:   37368805  HIT:   35952882  MISS:    1415923
L1D WRITEBACK ACCESS:          0  HIT:          0  MISS:          0
L1D PREFETCH  REQUESTED:   53658860  ISSUED:   52457923  USEFUL:     352424  USELESS:    1063464
L1D TOTAL MSHR MERGED:    2836222
L1D LOAD MSHR MERGED:     521968
L1D RFO MSHR MERGED:    1532975
L1D PREFETCH MSHR MERGED:     781279
L1D WRITEBACK MSHR MERGED:          0
L1D TOTAL ACCESSES:  130836223 HITS:  124774722 MISSES:    6061501
L1D LOAD ACCESSES:   53661483 HITS:   51982879 MISSES:    1678604
L1D RFO ACCESSES:   38952951 HITS:   36806968 MISSES:    2145983
L1D PREFETCH ACCESSES:   38221789 HITS:   35984875 MISSES:    2236914
L1D WRITEBACK ACCESSES:          0 HITS:          0 MISSES:          0
L1D RQ ACCESS:  113715491
L1D RQ TO_CACHE:   53658860
L1D RQ MERGED:   60054008
L1D RQ FORWARD:          0
L1D WQ ACCESS:   40844891
L1D WQ TO_CACHE:   38952951
L1D WQ MERGED:    1891940
L1D WQ FORWARD:      34616
L1I TOTAL     ACCESS:  108366618  HIT:  107807501  MISS:     559117
L1I LOAD      ACCESS:  108366618  HIT:  107807501  MISS:     559117
L1I RFO       ACCESS:          0  HIT:          0  MISS:          0
L1I PREFETCH  ACCESS:          0  HIT:          0  MISS:          0
L1I WRITEBACK ACCESS:          0  HIT:          0  MISS:          0
L1I PREFETCH  REQUESTED:          0  ISSUED:          0  USEFUL:          0  USELESS:          0
L1I TOTAL MSHR MERGED:     529842
L1I LOAD MSHR MERGED:     529842
L1I RFO MSHR MERGED:          0
L1I PREFETCH MSHR MERGED:          0
L1I WRITEBACK MSHR MERGED:          0
L1I TOTAL ACCESSES:  108896460 HITS:  107807501 MISSES:    1088959
L1I LOAD ACCESSES:  108896460 HITS:  107807501 MISSES:    1088959
L1I RFO ACCESSES:          0 HITS:          0 MISSES:          0
L1I PREFETCH ACCESSES:          0 HITS:          0 MISSES:          0
L1I WRITEBACK ACCESSES:          0 HITS:          0 MISSES:          0
L1I RQ ACCESS:  500000002
L1I RQ TO_CACHE:  108896460
L1I RQ MERGED:  391103542
L1I RQ FORWARD:          0
L1I WQ ACCESS:          0
L1I WQ TO_CACHE:          0
L1I WQ MERGED:          0
L1I WQ FORWARD:          0
L2C TOTAL     ACCESS:    4694225  HIT:    3868622  MISS:     825603
L2C LOAD      ACCESS:    1715642  HIT:    1563937  MISS:     151705
L2C RFO       ACCESS:     611580  HIT:     421211  MISS:     190369
L2C PREFETCH  ACCESS:    1664052  HIT:    1182713  MISS:     481339
L2C WRITEBACK ACCESS:     702951  HIT:     700761  MISS:       2190
L2C PREFETCH  REQUESTED:     256338  ISSUED:     256338  USEFUL:     174267  USELESS:     307738
L2C TOTAL MSHR MERGED:      10570
L2C LOAD MSHR MERGED:       2597
L2C RFO MSHR MERGED:          0
L2C PREFETCH MSHR MERGED:       7973
L2C WRITEBACK MSHR MERGED:          0
L2C TOTAL ACCESSES:    4711999 HITS:    3870235 MISSES:     841764
L2C LOAD ACCESSES:    1715753 HITS:    1564048 MISSES:     151705
L2C RFO ACCESSES:     613008 HITS:     422639 MISSES:     190369
L2C PREFETCH ACCESSES:    1680287 HITS:    1182787 MISSES:     497500
L2C WRITEBACK ACCESSES:     702951 HITS:     700761 MISSES:       2190
L2C RQ ACCESS:    2328761
L2C RQ TO_CACHE:    2327222
L2C RQ MERGED:          0
L2C RQ FORWARD:          0
L2C WQ ACCESS:     702951
L2C WQ TO_CACHE:     702951
L2C WQ MERGED:          0
L2C WQ FORWARD:       1613
LLC TOTAL     ACCESS:    1046996  HIT:     446535  MISS:     600461
LLC LOAD      ACCESS:     149104  HIT:      79804  MISS:      69300
LLC RFO       ACCESS:     190361  HIT:       7280  MISS:     183081
LLC PREFETCH  ACCESS:     486652  HIT:     148733  MISS:     337919
LLC WRITEBACK ACCESS:     220879  HIT:     210718  MISS:      10161
LLC PREFETCH  REQUESTED:          0  ISSUED:          0  USEFUL:      12798  USELESS:     319690
LLC TOTAL MSHR MERGED:       2057
LLC LOAD MSHR MERGED:        801
LLC RFO MSHR MERGED:          0
LLC PREFETCH MSHR MERGED:       1256
LLC WRITEBACK MSHR MERGED:          0
LLC TOTAL ACCESSES:    1049065 HITS:     446547 MISSES:     602518
LLC LOAD ACCESSES:     149108 HITS:      79808 MISSES:      69300
LLC RFO ACCESSES:     190369 HITS:       7288 MISSES:     183081
LLC PREFETCH ACCESSES:     488709 HITS:     148733 MISSES:     339976
LLC WRITEBACK ACCESSES:     220879 HITS:     210718 MISSES:      10161
LLC 0 RQ ACCESS:     339477
LLC 0 RQ TO_CACHE:     339465
LLC 0 RQ MERGED:          0
LLC 0 RQ FORWARD:          0
LLC WQ ACCESS:     220879
LLC WQ TO_CACHE:     220879
LLC WQ MERGED:          0
LLC WQ FORWARD:         12
Major fault: 0 Minor fault: 6811
CPU 0 L1D next line prefetcher final stats
CPU 0 L2C PC-based stride prefetcher final stats
All Misses: 699455
All Hits: 554525
SD Algo Stats - Switches: 0 SRR-Repls: 80097 BRR-Repls: 0

DRAM Statistics
 CHANNEL 0
 RQ ROW_BUFFER_HIT:     302654  ROW_BUFFER_MISS:     287554
 DBUS_CONGESTED:     430259
 WQ ROW_BUFFER_HIT:      30062  ROW_BUFFER_MISS:     195906  FULL:          0

 AVG_CONGESTED_CYCLE: 13
LOADS RETIRED: 119922929
INSTR RETIRED: 500000000
