
*** ChampSim Multicore Out-of-Order Simulator ***

Warmup Instructions: 100000000
Simulation Instructions: 500000000
Number of CPUs: 1
LLC sets: 2048
LLC ways: 16
Clean RRIP Policies: 2211010022110100 Dirty RRIP Policies: 2201112022011120 PSEL Width: 10 Track Set: 4294967295 PSEL Mask: 1 Demote Mask: 313223103132231DS Algo: 0Window size: 0
Off-chip DRAM Size: 4096 MB Channels: 1 Width: 64-bit Data Rate: 1600 MT/s

CPU 0 runs /mnt/beegfs/iconst01/spec2017/Xalancbmk.trace.gz
NOT SORTED
TRACE STRING: /mnt/beegfs/iconst01/spec2017/Xalancbmk.trace.gz
SORTED
TRACE STRING: /mnt/beegfs/iconst01/spec2017/Xalancbmk.trace.gz
INITIAL
TRACE STRING: /mnt/beegfs/iconst01/spec2017/Xalancbmk.trace.gz

champsim_seed used: 913

CPU 0 L1D next line prefetcher
CPU 0 L2C IP-based stride prefetcher
Initialize DRRIP state
Assign rand_sets[0]: 454  LLC: 2048
rand_sets[0]: 454
Assign rand_sets[1]: 1662  LLC: 2048
rand_sets[1]: 1662
Assign rand_sets[2]: 1921  LLC: 2048
rand_sets[2]: 1921
Assign rand_sets[3]: 1131  LLC: 2048
rand_sets[3]: 1131
Assign rand_sets[4]: 331  LLC: 2048
rand_sets[4]: 331
Assign rand_sets[5]: 1531  LLC: 2048
rand_sets[5]: 1531
Assign rand_sets[6]: 482  LLC: 2048
rand_sets[6]: 482
Assign rand_sets[7]: 1275  LLC: 2048
rand_sets[7]: 1275
Assign rand_sets[8]: 1876  LLC: 2048
rand_sets[8]: 1876
Assign rand_sets[9]: 2038  LLC: 2048
rand_sets[9]: 2038
Assign rand_sets[10]: 701  LLC: 2048
rand_sets[10]: 701
Assign rand_sets[11]: 479  LLC: 2048
rand_sets[11]: 479
Assign rand_sets[12]: 892  LLC: 2048
rand_sets[12]: 892
Assign rand_sets[13]: 1820  LLC: 2048
rand_sets[13]: 1820
Assign rand_sets[14]: 1505  LLC: 2048
rand_sets[14]: 1505
Assign rand_sets[15]: 1159  LLC: 2048
rand_sets[15]: 1159
Assign rand_sets[16]: 513  LLC: 2048
rand_sets[16]: 513
Assign rand_sets[17]: 703  LLC: 2048
rand_sets[17]: 703
Assign rand_sets[18]: 561  LLC: 2048
rand_sets[18]: 561
Assign rand_sets[19]: 990  LLC: 2048
rand_sets[19]: 990
Assign rand_sets[20]: 342  LLC: 2048
rand_sets[20]: 342
Assign rand_sets[21]: 882  LLC: 2048
rand_sets[21]: 882
Assign rand_sets[22]: 15  LLC: 2048
rand_sets[22]: 15
Assign rand_sets[23]: 71  LLC: 2048
rand_sets[23]: 71
Assign rand_sets[24]: 1127  LLC: 2048
rand_sets[24]: 1127
Assign rand_sets[25]: 1382  LLC: 2048
rand_sets[25]: 1382
Assign rand_sets[26]: 647  LLC: 2048
rand_sets[26]: 647
Assign rand_sets[27]: 857  LLC: 2048
rand_sets[27]: 857
Assign rand_sets[28]: 1450  LLC: 2048
rand_sets[28]: 1450
Assign rand_sets[29]: 1160  LLC: 2048
rand_sets[29]: 1160
Assign rand_sets[30]: 1852  LLC: 2048
rand_sets[30]: 1852
Assign rand_sets[31]: 1881  LLC: 2048
rand_sets[31]: 1881
Assign rand_sets[32]: 1770  LLC: 2048
rand_sets[32]: 1770
Assign rand_sets[33]: 1622  LLC: 2048
rand_sets[33]: 1622
Assign rand_sets[34]: 275  LLC: 2048
rand_sets[34]: 275
Assign rand_sets[35]: 635  LLC: 2048
rand_sets[35]: 635
Assign rand_sets[36]: 466  LLC: 2048
rand_sets[36]: 466
Assign rand_sets[37]: 1413  LLC: 2048
rand_sets[37]: 1413
Assign rand_sets[38]: 417  LLC: 2048
rand_sets[38]: 417
Assign rand_sets[39]: 472  LLC: 2048
rand_sets[39]: 472
Assign rand_sets[40]: 1340  LLC: 2048
rand_sets[40]: 1340
Assign rand_sets[41]: 852  LLC: 2048
rand_sets[41]: 852
Assign rand_sets[42]: 1365  LLC: 2048
rand_sets[42]: 1365
Assign rand_sets[43]: 47  LLC: 2048
rand_sets[43]: 47
Assign rand_sets[44]: 823  LLC: 2048
rand_sets[44]: 823
Assign rand_sets[45]: 686  LLC: 2048
rand_sets[45]: 686
Assign rand_sets[46]: 1637  LLC: 2048
rand_sets[46]: 1637
Assign rand_sets[47]: 1115  LLC: 2048
rand_sets[47]: 1115
Assign rand_sets[48]: 986  LLC: 2048
rand_sets[48]: 986
Assign rand_sets[49]: 258  LLC: 2048
rand_sets[49]: 258
Assign rand_sets[50]: 633  LLC: 2048
rand_sets[50]: 633
Assign rand_sets[51]: 920  LLC: 2048
rand_sets[51]: 920
Assign rand_sets[52]: 204  LLC: 2048
rand_sets[52]: 204
Assign rand_sets[53]: 227  LLC: 2048
rand_sets[53]: 227
Assign rand_sets[54]: 1818  LLC: 2048
rand_sets[54]: 1818
Assign rand_sets[55]: 886  LLC: 2048
rand_sets[55]: 886
Assign rand_sets[56]: 1422  LLC: 2048
rand_sets[56]: 1422
Assign rand_sets[57]: 607  LLC: 2048
rand_sets[57]: 607
Assign rand_sets[58]: 217  LLC: 2048
rand_sets[58]: 217
Assign rand_sets[59]: 1945  LLC: 2048
rand_sets[59]: 1945
Assign rand_sets[60]: 143  LLC: 2048
rand_sets[60]: 143
Assign rand_sets[61]: 1311  LLC: 2048
rand_sets[61]: 1311
Assign rand_sets[62]: 319  LLC: 2048
rand_sets[62]: 319
Assign rand_sets[63]: 1846  LLC: 2048
rand_sets[63]: 1846
 CLEAN-RRIP-POLICY-1: 2-2-1-1-0-1-0-0- CLEAN-RRIP-POLICY-2: 2-2-1-1-0-1-0-0-
 DIRTY-RRIP-POLICY-1: 2-2-0-1-1-1-2-0- DIRTY-RRIP-POLICY-2: 2-2-0-1-1-1-2-0-
 PSEL width: 10
Heartbeat CPU 0 instructions: 10000003 cycles: 4605149 heartbeat IPC: 2.17148 cumulative IPC: 2.17148 (Simulation time: 0 hr 0 min 15 sec) 
Heartbeat CPU 0 instructions: 20000000 cycles: 9048290 heartbeat IPC: 2.25066 cumulative IPC: 2.21036 (Simulation time: 0 hr 0 min 28 sec) 
Heartbeat CPU 0 instructions: 30000000 cycles: 13498742 heartbeat IPC: 2.24696 cumulative IPC: 2.22243 (Simulation time: 0 hr 0 min 42 sec) 
Heartbeat CPU 0 instructions: 40000000 cycles: 18143143 heartbeat IPC: 2.15313 cumulative IPC: 2.20469 (Simulation time: 0 hr 0 min 58 sec) 
Heartbeat CPU 0 instructions: 50000002 cycles: 22599831 heartbeat IPC: 2.24382 cumulative IPC: 2.21241 (Simulation time: 0 hr 1 min 12 sec) 
Heartbeat CPU 0 instructions: 60000000 cycles: 27278754 heartbeat IPC: 2.13724 cumulative IPC: 2.19951 (Simulation time: 0 hr 1 min 27 sec) 
Heartbeat CPU 0 instructions: 70000003 cycles: 31720810 heartbeat IPC: 2.25121 cumulative IPC: 2.20675 (Simulation time: 0 hr 1 min 41 sec) 
Heartbeat CPU 0 instructions: 80000000 cycles: 36184720 heartbeat IPC: 2.24019 cumulative IPC: 2.21088 (Simulation time: 0 hr 1 min 55 sec) 
Heartbeat CPU 0 instructions: 90000002 cycles: 40679703 heartbeat IPC: 2.2247 cumulative IPC: 2.21241 (Simulation time: 0 hr 2 min 10 sec) 
Heartbeat CPU 0 instructions: 100000000 cycles: 45189819 heartbeat IPC: 2.21724 cumulative IPC: 2.21289 (Simulation time: 0 hr 2 min 24 sec) 

Warmup complete CPU 0 instructions: 100000003 cycles: 45189820 (Simulation time: 0 hr 2 min 24 sec) 

Heartbeat CPU 0 instructions: 110000000 cycles: 73317608 heartbeat IPC: 0.35552 cumulative IPC: 0.35552 (Simulation time: 0 hr 2 min 55 sec) 
Heartbeat CPU 0 instructions: 120000000 cycles: 104761025 heartbeat IPC: 0.318032 cumulative IPC: 0.335733 (Simulation time: 0 hr 3 min 28 sec) 
Heartbeat CPU 0 instructions: 130000000 cycles: 129279576 heartbeat IPC: 0.407854 cumulative IPC: 0.356762 (Simulation time: 0 hr 3 min 56 sec) 
Heartbeat CPU 0 instructions: 140000000 cycles: 152709123 heartbeat IPC: 0.426811 cumulative IPC: 0.372026 (Simulation time: 0 hr 4 min 24 sec) 
Heartbeat CPU 0 instructions: 150000000 cycles: 177953801 heartbeat IPC: 0.396123 cumulative IPC: 0.376608 (Simulation time: 0 hr 4 min 53 sec) 
Heartbeat CPU 0 instructions: 160000000 cycles: 203837653 heartbeat IPC: 0.386341 cumulative IPC: 0.378196 (Simulation time: 0 hr 5 min 22 sec) 
Heartbeat CPU 0 instructions: 170000002 cycles: 226539569 heartbeat IPC: 0.440492 cumulative IPC: 0.385994 (Simulation time: 0 hr 5 min 49 sec) 
Heartbeat CPU 0 instructions: 180000000 cycles: 249789477 heartbeat IPC: 0.430109 cumulative IPC: 0.391007 (Simulation time: 0 hr 6 min 17 sec) 
Heartbeat CPU 0 instructions: 190000000 cycles: 270267146 heartbeat IPC: 0.488337 cumulative IPC: 0.399863 (Simulation time: 0 hr 6 min 42 sec) 
Heartbeat CPU 0 instructions: 200000000 cycles: 292235026 heartbeat IPC: 0.45521 cumulative IPC: 0.404784 (Simulation time: 0 hr 7 min 8 sec) 
Heartbeat CPU 0 instructions: 210000001 cycles: 319416803 heartbeat IPC: 0.367894 cumulative IPC: 0.401128 (Simulation time: 0 hr 7 min 38 sec) 
Heartbeat CPU 0 instructions: 220000000 cycles: 346206209 heartbeat IPC: 0.373282 cumulative IPC: 0.398649 (Simulation time: 0 hr 8 min 8 sec) 
Heartbeat CPU 0 instructions: 230000000 cycles: 369871514 heartbeat IPC: 0.42256 cumulative IPC: 0.400392 (Simulation time: 0 hr 8 min 35 sec) 
Heartbeat CPU 0 instructions: 240000000 cycles: 396484195 heartbeat IPC: 0.375761 cumulative IPC: 0.398526 (Simulation time: 0 hr 9 min 5 sec) 
Heartbeat CPU 0 instructions: 250000001 cycles: 422798540 heartbeat IPC: 0.380021 cumulative IPC: 0.397237 (Simulation time: 0 hr 9 min 34 sec) 
Heartbeat CPU 0 instructions: 260000000 cycles: 444716091 heartbeat IPC: 0.456255 cumulative IPC: 0.400474 (Simulation time: 0 hr 10 min 0 sec) 
Heartbeat CPU 0 instructions: 270000000 cycles: 467104950 heartbeat IPC: 0.446651 cumulative IPC: 0.402925 (Simulation time: 0 hr 10 min 27 sec) 
Heartbeat CPU 0 instructions: 280000000 cycles: 496474914 heartbeat IPC: 0.340484 cumulative IPC: 0.398861 (Simulation time: 0 hr 10 min 58 sec) 
Heartbeat CPU 0 instructions: 290000000 cycles: 518503566 heartbeat IPC: 0.453954 cumulative IPC: 0.401425 (Simulation time: 0 hr 11 min 24 sec) 
Heartbeat CPU 0 instructions: 300000000 cycles: 540157072 heartbeat IPC: 0.461819 cumulative IPC: 0.404067 (Simulation time: 0 hr 11 min 50 sec) 
Heartbeat CPU 0 instructions: 310000000 cycles: 560907739 heartbeat IPC: 0.481912 cumulative IPC: 0.407199 (Simulation time: 0 hr 12 min 15 sec) 
Heartbeat CPU 0 instructions: 320000000 cycles: 591889917 heartbeat IPC: 0.322766 cumulative IPC: 0.402414 (Simulation time: 0 hr 12 min 47 sec) 
Heartbeat CPU 0 instructions: 330000001 cycles: 612493265 heartbeat IPC: 0.485358 cumulative IPC: 0.405427 (Simulation time: 0 hr 13 min 13 sec) 
Heartbeat CPU 0 instructions: 340000000 cycles: 633420836 heartbeat IPC: 0.477838 cumulative IPC: 0.408003 (Simulation time: 0 hr 13 min 38 sec) 
Heartbeat CPU 0 instructions: 350000000 cycles: 660030064 heartbeat IPC: 0.375809 cumulative IPC: 0.40661 (Simulation time: 0 hr 14 min 7 sec) 
Heartbeat CPU 0 instructions: 360000000 cycles: 683013447 heartbeat IPC: 0.435097 cumulative IPC: 0.407636 (Simulation time: 0 hr 14 min 34 sec) 
Heartbeat CPU 0 instructions: 370000001 cycles: 708886063 heartbeat IPC: 0.386509 cumulative IPC: 0.406813 (Simulation time: 0 hr 15 min 2 sec) 
Heartbeat CPU 0 instructions: 380000000 cycles: 733228378 heartbeat IPC: 0.410807 cumulative IPC: 0.406954 (Simulation time: 0 hr 15 min 30 sec) 
Heartbeat CPU 0 instructions: 390000000 cycles: 753162709 heartbeat IPC: 0.501647 cumulative IPC: 0.40962 (Simulation time: 0 hr 15 min 55 sec) 
Heartbeat CPU 0 instructions: 400000000 cycles: 774478834 heartbeat IPC: 0.469128 cumulative IPC: 0.41136 (Simulation time: 0 hr 16 min 20 sec) 
Heartbeat CPU 0 instructions: 410000001 cycles: 801760471 heartbeat IPC: 0.366547 cumulative IPC: 0.409744 (Simulation time: 0 hr 16 min 49 sec) 
Heartbeat CPU 0 instructions: 420000000 cycles: 827061739 heartbeat IPC: 0.395237 cumulative IPC: 0.409274 (Simulation time: 0 hr 17 min 17 sec) 
Heartbeat CPU 0 instructions: 430000002 cycles: 849135612 heartbeat IPC: 0.453024 cumulative IPC: 0.410475 (Simulation time: 0 hr 17 min 43 sec) 
Heartbeat CPU 0 instructions: 440000000 cycles: 870465688 heartbeat IPC: 0.468821 cumulative IPC: 0.411983 (Simulation time: 0 hr 18 min 9 sec) 
Heartbeat CPU 0 instructions: 450000002 cycles: 898254146 heartbeat IPC: 0.359862 cumulative IPC: 0.410286 (Simulation time: 0 hr 18 min 39 sec) 
Heartbeat CPU 0 instructions: 460000000 cycles: 925940511 heartbeat IPC: 0.361189 cumulative IPC: 0.408742 (Simulation time: 0 hr 19 min 8 sec) 
Heartbeat CPU 0 instructions: 470000002 cycles: 952898964 heartbeat IPC: 0.370941 cumulative IPC: 0.40762 (Simulation time: 0 hr 19 min 37 sec) 
Heartbeat CPU 0 instructions: 480000000 cycles: 977572624 heartbeat IPC: 0.40529 cumulative IPC: 0.407558 (Simulation time: 0 hr 20 min 5 sec) 
Heartbeat CPU 0 instructions: 490000000 cycles: 999403394 heartbeat IPC: 0.458069 cumulative IPC: 0.408714 (Simulation time: 0 hr 20 min 31 sec) 
Heartbeat CPU 0 instructions: 500000000 cycles: 1025409967 heartbeat IPC: 0.384518 cumulative IPC: 0.408072 (Simulation time: 0 hr 20 min 59 sec) 
Heartbeat CPU 0 instructions: 510000000 cycles: 1051387385 heartbeat IPC: 0.38495 cumulative IPC: 0.407475 (Simulation time: 0 hr 21 min 28 sec) 
Heartbeat CPU 0 instructions: 520000000 cycles: 1073752682 heartbeat IPC: 0.447121 cumulative IPC: 0.408337 (Simulation time: 0 hr 21 min 54 sec) 
Heartbeat CPU 0 instructions: 530000003 cycles: 1099987968 heartbeat IPC: 0.381166 cumulative IPC: 0.407661 (Simulation time: 0 hr 22 min 22 sec) 
Heartbeat CPU 0 instructions: 540000000 cycles: 1123963410 heartbeat IPC: 0.417093 cumulative IPC: 0.407871 (Simulation time: 0 hr 22 min 50 sec) 
Heartbeat CPU 0 instructions: 550000000 cycles: 1150219798 heartbeat IPC: 0.38086 cumulative IPC: 0.407229 (Simulation time: 0 hr 23 min 18 sec) 
Heartbeat CPU 0 instructions: 560000000 cycles: 1173821778 heartbeat IPC: 0.423693 cumulative IPC: 0.407573 (Simulation time: 0 hr 23 min 45 sec) 
Heartbeat CPU 0 instructions: 570000002 cycles: 1198318466 heartbeat IPC: 0.408219 cumulative IPC: 0.407587 (Simulation time: 0 hr 24 min 13 sec) 
Heartbeat CPU 0 instructions: 580000000 cycles: 1220126689 heartbeat IPC: 0.458543 cumulative IPC: 0.408533 (Simulation time: 0 hr 24 min 38 sec) 
Heartbeat CPU 0 instructions: 590000001 cycles: 1244843883 heartbeat IPC: 0.404577 cumulative IPC: 0.408451 (Simulation time: 0 hr 25 min 6 sec) 
Heartbeat CPU 0 instructions: 600000000 cycles: 1264986238 heartbeat IPC: 0.496466 cumulative IPC: 0.409904 (Simulation time: 0 hr 25 min 30 sec) 
Finished CPU 0 instructions: 500000000 cycles: 1219796439 cumulative IPC: 0.409904 (Simulation time: 0 hr 25 min 30 sec) 

CPU 0 Branch Prediction Accuracy: 99.5434% MPKI: 1.33026
Number of Branches: 145676990 Number of Mispredictions: 665128
Number of LOAD Instructions: 188863207
Number of LOAD Instructions (ROI): 188863207
Number of STORE Instructions: 7332002
Number of STORE Instructions (ROI): 7332002
Total Destination Memory Operands: 10029285
Total Destination Memory Operands (ROI): 10029285
Total Source Memory Operands: 188863207
Total Source Memory Operands (ROI): 188863207
Number of DEPENDED LOADS: 298761
Number of DEPENDED LOADS (ROI): 298761
Number of SQ_ADDED: 10029285
Number of SQ_ADDED (ROI): 10029285
Number of LQ_ADDED: 201470181
Number of LQ_ADDED (ROI): 201470181
Number of Instructions read from trace: 600000010

ChampSim completed all CPUs

Region of Interest Statistics

CPU 0 cumulative IPC: 0.409904 instructions: 500000000 cycles: 1219796439
ITLB TOTAL     ACCESS:  146072298  HIT:  146032738  MISS:      39560
ITLB LOAD      ACCESS:  146072298  HIT:  146032738  MISS:      39560
ITLB RFO       ACCESS:          0  HIT:          0  MISS:          0
ITLB PREFETCH  ACCESS:          0  HIT:          0  MISS:          0
ITLB WRITEBACK ACCESS:          0  HIT:          0  MISS:          0
ITLB PREFETCH  REQUESTED:          0  ISSUED:          0  USEFUL:          0  USELESS:          0
ITLB TOTAL MSHR MERGED:      57404
ITLB LOAD MSHR MERGED:      57404
ITLB RFO MSHR MERGED:          0
ITLB PREFETCH MSHR MERGED:          0
ITLB WRITEBACK MSHR MERGED:          0
ITLB TOTAL ACCESSES:  146129702 HITS:  146032738 MISSES:      96964
ITLB LOAD ACCESSES:  146129702 HITS:  146032738 MISSES:      96964
ITLB RFO ACCESSES:          0 HITS:          0 MISSES:          0
ITLB PREFETCH ACCESSES:          0 HITS:          0 MISSES:          0
ITLB WRITEBACK ACCESSES:          0 HITS:          0 MISSES:          0
ITLB RQ ACCESS:  499999754
ITLB RQ TO_CACHE:  146129702
ITLB RQ MERGED:  353870052
ITLB RQ FORWARD:          0
ITLB WQ ACCESS:          0
ITLB WQ TO_CACHE:          0
ITLB WQ MERGED:          0
ITLB WQ FORWARD:          0
DTLB TOTAL     ACCESS:  135327339  HIT:  134158974  MISS:    1168365
DTLB LOAD      ACCESS:  127285605  HIT:  126126336  MISS:    1159269
DTLB RFO       ACCESS:    8041734  HIT:    8032638  MISS:       9096
DTLB PREFETCH  ACCESS:          0  HIT:          0  MISS:          0
DTLB WRITEBACK ACCESS:          0  HIT:          0  MISS:          0
DTLB PREFETCH  REQUESTED:          0  ISSUED:          0  USEFUL:          0  USELESS:          0
DTLB TOTAL MSHR MERGED:     567359
DTLB LOAD MSHR MERGED:     563094
DTLB RFO MSHR MERGED:       4265
DTLB PREFETCH MSHR MERGED:          0
DTLB WRITEBACK MSHR MERGED:          0
DTLB TOTAL ACCESSES:  135894698 HITS:  134158974 MISSES:    1735724
DTLB LOAD ACCESSES:  127848699 HITS:  126126336 MISSES:    1722363
DTLB RFO ACCESSES:    8045999 HITS:    8032638 MISSES:      13361
DTLB PREFETCH ACCESSES:          0 HITS:          0 MISSES:          0
DTLB WRITEBACK ACCESSES:          0 HITS:          0 MISSES:          0
DTLB RQ ACCESS:  165755620
DTLB RQ TO_CACHE:  135894698
DTLB RQ MERGED:   29860922
DTLB RQ FORWARD:          0
DTLB WQ ACCESS:          0
DTLB WQ TO_CACHE:          0
DTLB WQ MERGED:          0
DTLB WQ FORWARD:          0
L1D TOTAL     ACCESS:  158486180  HIT:  141170423  MISS:   17315757
L1D LOAD      ACCESS:   90304401  HIT:   79498605  MISS:   10805796
L1D RFO       ACCESS:    8498261  HIT:    8411221  MISS:      87040
L1D PREFETCH  ACCESS:   59683518  HIT:   53260597  MISS:    6422921
L1D WRITEBACK ACCESS:          0  HIT:          0  MISS:          0
L1D PREFETCH  REQUESTED:   93862023  ISSUED:   92992823  USEFUL:    2341445  USELESS:    4081549
L1D TOTAL MSHR MERGED:   13884640
L1D LOAD MSHR MERGED:    6651493
L1D RFO MSHR MERGED:     126246
L1D PREFETCH MSHR MERGED:    7106901
L1D WRITEBACK MSHR MERGED:          0
L1D TOTAL ACCESSES:  172371000 HITS:  141170603 MISSES:   31200397
L1D LOAD ACCESSES:   93862028 HITS:   79498610 MISSES:   14363418
L1D RFO ACCESSES:    8622787 HITS:    8411221 MISSES:     211566
L1D PREFETCH ACCESSES:   69886185 HITS:   53260772 MISSES:   16625413
L1D WRITEBACK ACCESSES:          0 HITS:          0 MISSES:          0
L1D RQ ACCESS:  157116414
L1D RQ TO_CACHE:   93862023
L1D RQ MERGED:   63254386
L1D RQ FORWARD:          0
L1D WQ ACCESS:    8639208
L1D WQ TO_CACHE:    8622787
L1D WQ MERGED:      16421
L1D WQ FORWARD:        180
L1I TOTAL     ACCESS:  179007472  HIT:  178343983  MISS:     663489
L1I LOAD      ACCESS:  179007472  HIT:  178343983  MISS:     663489
L1I RFO       ACCESS:          0  HIT:          0  MISS:          0
L1I PREFETCH  ACCESS:          0  HIT:          0  MISS:          0
L1I WRITEBACK ACCESS:          0  HIT:          0  MISS:          0
L1I PREFETCH  REQUESTED:          0  ISSUED:          0  USEFUL:          0  USELESS:          0
L1I TOTAL MSHR MERGED:     626009
L1I LOAD MSHR MERGED:     626009
L1I RFO MSHR MERGED:          0
L1I PREFETCH MSHR MERGED:          0
L1I WRITEBACK MSHR MERGED:          0
L1I TOTAL ACCESSES:  179633481 HITS:  178343983 MISSES:    1289498
L1I LOAD ACCESSES:  179633481 HITS:  178343983 MISSES:    1289498
L1I RFO ACCESSES:          0 HITS:          0 MISSES:          0
L1I PREFETCH ACCESSES:          0 HITS:          0 MISSES:          0
L1I WRITEBACK ACCESSES:          0 HITS:          0 MISSES:          0
L1I RQ ACCESS:  499999757
L1I RQ TO_CACHE:  179633481
L1I RQ MERGED:  320366276
L1I RQ FORWARD:          0
L1I WQ ACCESS:          0
L1I WQ TO_CACHE:          0
L1I WQ MERGED:          0
L1I WQ FORWARD:          0
L2C TOTAL     ACCESS:   19267154  HIT:    2050704  MISS:   17216450
L2C LOAD      ACCESS:    8375315  HIT:     948798  MISS:    7426517
L2C RFO       ACCESS:      85294  HIT:      53747  MISS:      31547
L2C PREFETCH  ACCESS:   10521521  HIT:     765947  MISS:    9755574
L2C WRITEBACK ACCESS:     285024  HIT:     282212  MISS:       2812
L2C PREFETCH  REQUESTED:    1005475  ISSUED:    1005475  USEFUL:     272728  USELESS:    9481929
L2C TOTAL MSHR MERGED:        761
L2C LOAD MSHR MERGED:         75
L2C RFO MSHR MERGED:          1
L2C PREFETCH MSHR MERGED:        685
L2C WRITEBACK MSHR MERGED:          0
L2C TOTAL ACCESSES:   19268477 HITS:    2050897 MISSES:   17217580
L2C LOAD ACCESSES:    8375414 HITS:     948897 MISSES:    7426517
L2C RFO ACCESSES:      85320 HITS:      53773 MISSES:      31547
L2C PREFETCH ACCESSES:   10522719 HITS:     766015 MISSES:    9756704
L2C WRITEBACK ACCESSES:     285024 HITS:     282212 MISSES:       2812
L2C RQ ACCESS:    8460734
L2C RQ TO_CACHE:    8460609
L2C RQ MERGED:          0
L2C RQ FORWARD:          0
L2C WQ ACCESS:     285024
L2C WQ TO_CACHE:     285024
L2C WQ MERGED:          0
L2C WQ FORWARD:        193
LLC TOTAL     ACCESS:   17320058  HIT:    4358638  MISS:   12961420
LLC LOAD      ACCESS:    7426442  HIT:    2056308  MISS:    5370134
LLC RFO       ACCESS:      31546  HIT:       8366  MISS:      23180
LLC PREFETCH  ACCESS:    9756013  HIT:    2198625  MISS:    7557388
LLC WRITEBACK ACCESS:     106057  HIT:      95339  MISS:      10718
LLC PREFETCH  REQUESTED:          0  ISSUED:          0  USEFUL:      44828  USELESS:    7512636
LLC TOTAL MSHR MERGED:          5
LLC LOAD MSHR MERGED:          0
LLC RFO MSHR MERGED:          0
LLC PREFETCH MSHR MERGED:          5
LLC WRITEBACK MSHR MERGED:          0
LLC TOTAL ACCESSES:   17320063 HITS:    4358638 MISSES:   12961425
LLC LOAD ACCESSES:    7426442 HITS:    2056308 MISSES:    5370134
LLC RFO ACCESSES:      31546 HITS:       8366 MISSES:      23180
LLC PREFETCH ACCESSES:    9756018 HITS:    2198625 MISSES:    7557393
LLC WRITEBACK ACCESSES:     106057 HITS:      95339 MISSES:      10718
LLC 0 RQ ACCESS:    7457988
LLC 0 RQ TO_CACHE:    7457988
LLC 0 RQ MERGED:          0
LLC 0 RQ FORWARD:          0
LLC WQ ACCESS:     106057
LLC WQ TO_CACHE:     106057
LLC WQ MERGED:          0
LLC WQ FORWARD:          0
Major fault: 0 Minor fault: 6432
CPU 0 L1D next line prefetcher final stats
CPU 0 L2C PC-based stride prefetcher final stats
All Misses: 15418763
All Hits: 5119744
SD Algo Stats - Switches: 0 SRR-Repls: 5995581 BRR-Repls: 0

DRAM Statistics
 CHANNEL 0
 RQ ROW_BUFFER_HIT:    9810172  ROW_BUFFER_MISS:    3133020
 DBUS_CONGESTED:    6398342
 WQ ROW_BUFFER_HIT:       2728  ROW_BUFFER_MISS:      79592  FULL:          0

 AVG_CONGESTED_CYCLE: 13
LOADS RETIRED: 157382665
INSTR RETIRED: 500000000
