
*** ChampSim Multicore Out-of-Order Simulator ***

Warmup Instructions: 100000000
Simulation Instructions: 500000000
Number of CPUs: 1
LLC sets: 2048
LLC ways: 16
Clean RRIP Policies: 311111103111111 Dirty RRIP Policies: 1321010113210101 PSEL Width: 10 Track Set: 4294967295 PSEL Mask: 1 Demote Mask: 2400142124001421DS Algo: 0Window size: 0
Off-chip DRAM Size: 4096 MB Channels: 1 Width: 64-bit Data Rate: 1600 MT/s

CPU 0 runs /mnt/beegfs/iconst01/spec2017/Gcc.trace.gz
NOT SORTED
TRACE STRING: /mnt/beegfs/iconst01/spec2017/Gcc.trace.gz
SORTED
TRACE STRING: /mnt/beegfs/iconst01/spec2017/Gcc.trace.gz
INITIAL
TRACE STRING: /mnt/beegfs/iconst01/spec2017/Gcc.trace.gz

champsim_seed used: 269

CPU 0 L1D next line prefetcher
CPU 0 L2C IP-based stride prefetcher
Initialize DRRIP state
Assign rand_sets[0]: 454  LLC: 2048
rand_sets[0]: 454
Assign rand_sets[1]: 1662  LLC: 2048
rand_sets[1]: 1662
Assign rand_sets[2]: 1921  LLC: 2048
rand_sets[2]: 1921
Assign rand_sets[3]: 1131  LLC: 2048
rand_sets[3]: 1131
Assign rand_sets[4]: 331  LLC: 2048
rand_sets[4]: 331
Assign rand_sets[5]: 1531  LLC: 2048
rand_sets[5]: 1531
Assign rand_sets[6]: 482  LLC: 2048
rand_sets[6]: 482
Assign rand_sets[7]: 1275  LLC: 2048
rand_sets[7]: 1275
Assign rand_sets[8]: 1876  LLC: 2048
rand_sets[8]: 1876
Assign rand_sets[9]: 2038  LLC: 2048
rand_sets[9]: 2038
Assign rand_sets[10]: 701  LLC: 2048
rand_sets[10]: 701
Assign rand_sets[11]: 479  LLC: 2048
rand_sets[11]: 479
Assign rand_sets[12]: 892  LLC: 2048
rand_sets[12]: 892
Assign rand_sets[13]: 1820  LLC: 2048
rand_sets[13]: 1820
Assign rand_sets[14]: 1505  LLC: 2048
rand_sets[14]: 1505
Assign rand_sets[15]: 1159  LLC: 2048
rand_sets[15]: 1159
Assign rand_sets[16]: 513  LLC: 2048
rand_sets[16]: 513
Assign rand_sets[17]: 703  LLC: 2048
rand_sets[17]: 703
Assign rand_sets[18]: 561  LLC: 2048
rand_sets[18]: 561
Assign rand_sets[19]: 990  LLC: 2048
rand_sets[19]: 990
Assign rand_sets[20]: 342  LLC: 2048
rand_sets[20]: 342
Assign rand_sets[21]: 882  LLC: 2048
rand_sets[21]: 882
Assign rand_sets[22]: 15  LLC: 2048
rand_sets[22]: 15
Assign rand_sets[23]: 71  LLC: 2048
rand_sets[23]: 71
Assign rand_sets[24]: 1127  LLC: 2048
rand_sets[24]: 1127
Assign rand_sets[25]: 1382  LLC: 2048
rand_sets[25]: 1382
Assign rand_sets[26]: 647  LLC: 2048
rand_sets[26]: 647
Assign rand_sets[27]: 857  LLC: 2048
rand_sets[27]: 857
Assign rand_sets[28]: 1450  LLC: 2048
rand_sets[28]: 1450
Assign rand_sets[29]: 1160  LLC: 2048
rand_sets[29]: 1160
Assign rand_sets[30]: 1852  LLC: 2048
rand_sets[30]: 1852
Assign rand_sets[31]: 1881  LLC: 2048
rand_sets[31]: 1881
Assign rand_sets[32]: 1770  LLC: 2048
rand_sets[32]: 1770
Assign rand_sets[33]: 1622  LLC: 2048
rand_sets[33]: 1622
Assign rand_sets[34]: 275  LLC: 2048
rand_sets[34]: 275
Assign rand_sets[35]: 635  LLC: 2048
rand_sets[35]: 635
Assign rand_sets[36]: 466  LLC: 2048
rand_sets[36]: 466
Assign rand_sets[37]: 1413  LLC: 2048
rand_sets[37]: 1413
Assign rand_sets[38]: 417  LLC: 2048
rand_sets[38]: 417
Assign rand_sets[39]: 472  LLC: 2048
rand_sets[39]: 472
Assign rand_sets[40]: 1340  LLC: 2048
rand_sets[40]: 1340
Assign rand_sets[41]: 852  LLC: 2048
rand_sets[41]: 852
Assign rand_sets[42]: 1365  LLC: 2048
rand_sets[42]: 1365
Assign rand_sets[43]: 47  LLC: 2048
rand_sets[43]: 47
Assign rand_sets[44]: 823  LLC: 2048
rand_sets[44]: 823
Assign rand_sets[45]: 686  LLC: 2048
rand_sets[45]: 686
Assign rand_sets[46]: 1637  LLC: 2048
rand_sets[46]: 1637
Assign rand_sets[47]: 1115  LLC: 2048
rand_sets[47]: 1115
Assign rand_sets[48]: 986  LLC: 2048
rand_sets[48]: 986
Assign rand_sets[49]: 258  LLC: 2048
rand_sets[49]: 258
Assign rand_sets[50]: 633  LLC: 2048
rand_sets[50]: 633
Assign rand_sets[51]: 920  LLC: 2048
rand_sets[51]: 920
Assign rand_sets[52]: 204  LLC: 2048
rand_sets[52]: 204
Assign rand_sets[53]: 227  LLC: 2048
rand_sets[53]: 227
Assign rand_sets[54]: 1818  LLC: 2048
rand_sets[54]: 1818
Assign rand_sets[55]: 886  LLC: 2048
rand_sets[55]: 886
Assign rand_sets[56]: 1422  LLC: 2048
rand_sets[56]: 1422
Assign rand_sets[57]: 607  LLC: 2048
rand_sets[57]: 607
Assign rand_sets[58]: 217  LLC: 2048
rand_sets[58]: 217
Assign rand_sets[59]: 1945  LLC: 2048
rand_sets[59]: 1945
Assign rand_sets[60]: 143  LLC: 2048
rand_sets[60]: 143
Assign rand_sets[61]: 1311  LLC: 2048
rand_sets[61]: 1311
Assign rand_sets[62]: 319  LLC: 2048
rand_sets[62]: 319
Assign rand_sets[63]: 1846  LLC: 2048
rand_sets[63]: 1846
 CLEAN-RRIP-POLICY-1: 0-3-1-1-1-1-1-1- CLEAN-RRIP-POLICY-2: 0-3-1-1-1-1-1-1-
 DIRTY-RRIP-POLICY-1: 1-3-2-1-0-1-0-1- DIRTY-RRIP-POLICY-2: 1-3-2-1-0-1-0-1-
 PSEL width: 10
Heartbeat CPU 0 instructions: 10000001 cycles: 7315910 heartbeat IPC: 1.36688 cumulative IPC: 1.36688 (Simulation time: 0 hr 0 min 14 sec) 
Heartbeat CPU 0 instructions: 20000000 cycles: 14307958 heartbeat IPC: 1.4302 cumulative IPC: 1.39782 (Simulation time: 0 hr 0 min 28 sec) 
Heartbeat CPU 0 instructions: 30000001 cycles: 21021631 heartbeat IPC: 1.4895 cumulative IPC: 1.4271 (Simulation time: 0 hr 0 min 43 sec) 
Heartbeat CPU 0 instructions: 40000000 cycles: 27482690 heartbeat IPC: 1.54773 cumulative IPC: 1.45546 (Simulation time: 0 hr 0 min 58 sec) 
Heartbeat CPU 0 instructions: 50000001 cycles: 33584442 heartbeat IPC: 1.63887 cumulative IPC: 1.48878 (Simulation time: 0 hr 1 min 12 sec) 
Heartbeat CPU 0 instructions: 60000000 cycles: 40065607 heartbeat IPC: 1.54293 cumulative IPC: 1.49754 (Simulation time: 0 hr 1 min 27 sec) 
Heartbeat CPU 0 instructions: 70000000 cycles: 47104542 heartbeat IPC: 1.42067 cumulative IPC: 1.48606 (Simulation time: 0 hr 1 min 41 sec) 
Heartbeat CPU 0 instructions: 80000000 cycles: 54194797 heartbeat IPC: 1.41039 cumulative IPC: 1.47616 (Simulation time: 0 hr 1 min 55 sec) 
Heartbeat CPU 0 instructions: 90000003 cycles: 61199711 heartbeat IPC: 1.42757 cumulative IPC: 1.4706 (Simulation time: 0 hr 2 min 9 sec) 
Heartbeat CPU 0 instructions: 100000000 cycles: 68367755 heartbeat IPC: 1.39508 cumulative IPC: 1.46268 (Simulation time: 0 hr 2 min 23 sec) 

Warmup complete CPU 0 instructions: 100000004 cycles: 68367756 (Simulation time: 0 hr 2 min 23 sec) 

Heartbeat CPU 0 instructions: 110000003 cycles: 96199994 heartbeat IPC: 0.359296 cumulative IPC: 0.359296 (Simulation time: 0 hr 2 min 49 sec) 
Heartbeat CPU 0 instructions: 120000000 cycles: 123720453 heartbeat IPC: 0.363366 cumulative IPC: 0.361319 (Simulation time: 0 hr 3 min 16 sec) 
Heartbeat CPU 0 instructions: 130000000 cycles: 148749750 heartbeat IPC: 0.399532 cumulative IPC: 0.373218 (Simulation time: 0 hr 3 min 42 sec) 
Heartbeat CPU 0 instructions: 140000000 cycles: 178414052 heartbeat IPC: 0.337106 cumulative IPC: 0.363483 (Simulation time: 0 hr 4 min 8 sec) 
Heartbeat CPU 0 instructions: 150000000 cycles: 208402946 heartbeat IPC: 0.333457 cumulative IPC: 0.357053 (Simulation time: 0 hr 4 min 35 sec) 
Heartbeat CPU 0 instructions: 160000000 cycles: 235855279 heartbeat IPC: 0.364268 cumulative IPC: 0.358236 (Simulation time: 0 hr 5 min 0 sec) 
Heartbeat CPU 0 instructions: 170000001 cycles: 263966903 heartbeat IPC: 0.355725 cumulative IPC: 0.357875 (Simulation time: 0 hr 5 min 28 sec) 
Heartbeat CPU 0 instructions: 180000000 cycles: 292506586 heartbeat IPC: 0.350389 cumulative IPC: 0.356922 (Simulation time: 0 hr 5 min 55 sec) 
Heartbeat CPU 0 instructions: 190000002 cycles: 320642628 heartbeat IPC: 0.355416 cumulative IPC: 0.356754 (Simulation time: 0 hr 6 min 21 sec) 
Heartbeat CPU 0 instructions: 200000000 cycles: 349078736 heartbeat IPC: 0.351665 cumulative IPC: 0.356238 (Simulation time: 0 hr 6 min 48 sec) 
Heartbeat CPU 0 instructions: 210000002 cycles: 377029429 heartbeat IPC: 0.357773 cumulative IPC: 0.356377 (Simulation time: 0 hr 7 min 15 sec) 
Heartbeat CPU 0 instructions: 220000000 cycles: 406320403 heartbeat IPC: 0.341402 cumulative IPC: 0.355079 (Simulation time: 0 hr 7 min 40 sec) 
Heartbeat CPU 0 instructions: 230000000 cycles: 434001470 heartbeat IPC: 0.361258 cumulative IPC: 0.355547 (Simulation time: 0 hr 8 min 6 sec) 
Heartbeat CPU 0 instructions: 240000000 cycles: 460091761 heartbeat IPC: 0.383284 cumulative IPC: 0.357394 (Simulation time: 0 hr 8 min 31 sec) 
Heartbeat CPU 0 instructions: 250000000 cycles: 490295387 heartbeat IPC: 0.331086 cumulative IPC: 0.355511 (Simulation time: 0 hr 8 min 59 sec) 
Heartbeat CPU 0 instructions: 260000000 cycles: 517466950 heartbeat IPC: 0.368032 cumulative IPC: 0.356269 (Simulation time: 0 hr 9 min 25 sec) 
Heartbeat CPU 0 instructions: 270000003 cycles: 545966874 heartbeat IPC: 0.350878 cumulative IPC: 0.355947 (Simulation time: 0 hr 9 min 52 sec) 
Heartbeat CPU 0 instructions: 280000000 cycles: 574218868 heartbeat IPC: 0.353957 cumulative IPC: 0.355836 (Simulation time: 0 hr 10 min 20 sec) 
Heartbeat CPU 0 instructions: 290000000 cycles: 603158078 heartbeat IPC: 0.345552 cumulative IPC: 0.355279 (Simulation time: 0 hr 10 min 47 sec) 
Heartbeat CPU 0 instructions: 300000000 cycles: 633248146 heartbeat IPC: 0.332336 cumulative IPC: 0.354057 (Simulation time: 0 hr 11 min 13 sec) 
Heartbeat CPU 0 instructions: 310000001 cycles: 662725635 heartbeat IPC: 0.339242 cumulative IPC: 0.353322 (Simulation time: 0 hr 11 min 40 sec) 
Heartbeat CPU 0 instructions: 320000000 cycles: 691080921 heartbeat IPC: 0.352668 cumulative IPC: 0.353293 (Simulation time: 0 hr 12 min 5 sec) 
Heartbeat CPU 0 instructions: 330000000 cycles: 719823608 heartbeat IPC: 0.347915 cumulative IPC: 0.353055 (Simulation time: 0 hr 12 min 32 sec) 
Heartbeat CPU 0 instructions: 340000000 cycles: 749204467 heartbeat IPC: 0.340358 cumulative IPC: 0.352507 (Simulation time: 0 hr 12 min 58 sec) 
Heartbeat CPU 0 instructions: 350000003 cycles: 776305669 heartbeat IPC: 0.368987 cumulative IPC: 0.353138 (Simulation time: 0 hr 13 min 24 sec) 
Heartbeat CPU 0 instructions: 360000000 cycles: 804545291 heartbeat IPC: 0.354112 cumulative IPC: 0.353176 (Simulation time: 0 hr 13 min 49 sec) 
Heartbeat CPU 0 instructions: 370000000 cycles: 832783440 heartbeat IPC: 0.354131 cumulative IPC: 0.353211 (Simulation time: 0 hr 14 min 14 sec) 
Heartbeat CPU 0 instructions: 380000000 cycles: 861368941 heartbeat IPC: 0.349828 cumulative IPC: 0.353089 (Simulation time: 0 hr 14 min 39 sec) 
Heartbeat CPU 0 instructions: 390000001 cycles: 889031298 heartbeat IPC: 0.361502 cumulative IPC: 0.353373 (Simulation time: 0 hr 15 min 4 sec) 
Heartbeat CPU 0 instructions: 400000000 cycles: 917741279 heartbeat IPC: 0.348311 cumulative IPC: 0.353201 (Simulation time: 0 hr 15 min 29 sec) 
Heartbeat CPU 0 instructions: 410000001 cycles: 945053969 heartbeat IPC: 0.36613 cumulative IPC: 0.353604 (Simulation time: 0 hr 15 min 54 sec) 
Heartbeat CPU 0 instructions: 420000000 cycles: 972358734 heartbeat IPC: 0.366236 cumulative IPC: 0.353986 (Simulation time: 0 hr 16 min 19 sec) 
Heartbeat CPU 0 instructions: 430000002 cycles: 1000095714 heartbeat IPC: 0.36053 cumulative IPC: 0.354181 (Simulation time: 0 hr 16 min 44 sec) 
Heartbeat CPU 0 instructions: 440000000 cycles: 1029815732 heartbeat IPC: 0.336473 cumulative IPC: 0.353633 (Simulation time: 0 hr 17 min 9 sec) 
Heartbeat CPU 0 instructions: 450000002 cycles: 1059163327 heartbeat IPC: 0.340743 cumulative IPC: 0.353251 (Simulation time: 0 hr 17 min 35 sec) 
Heartbeat CPU 0 instructions: 460000000 cycles: 1086883076 heartbeat IPC: 0.360754 cumulative IPC: 0.353456 (Simulation time: 0 hr 18 min 0 sec) 
Heartbeat CPU 0 instructions: 470000000 cycles: 1114527858 heartbeat IPC: 0.361732 cumulative IPC: 0.353674 (Simulation time: 0 hr 18 min 25 sec) 
Heartbeat CPU 0 instructions: 480000000 cycles: 1142416886 heartbeat IPC: 0.358564 cumulative IPC: 0.353801 (Simulation time: 0 hr 18 min 50 sec) 
Heartbeat CPU 0 instructions: 490000000 cycles: 1169997523 heartbeat IPC: 0.362573 cumulative IPC: 0.354021 (Simulation time: 0 hr 19 min 15 sec) 
Heartbeat CPU 0 instructions: 500000000 cycles: 1198358310 heartbeat IPC: 0.3526 cumulative IPC: 0.353985 (Simulation time: 0 hr 19 min 40 sec) 
Heartbeat CPU 0 instructions: 510000000 cycles: 1233405552 heartbeat IPC: 0.285329 cumulative IPC: 0.35192 (Simulation time: 0 hr 20 min 9 sec) 
Heartbeat CPU 0 instructions: 520000000 cycles: 1261543856 heartbeat IPC: 0.355387 cumulative IPC: 0.352002 (Simulation time: 0 hr 20 min 35 sec) 
Heartbeat CPU 0 instructions: 530000001 cycles: 1291263160 heartbeat IPC: 0.336482 cumulative IPC: 0.351625 (Simulation time: 0 hr 21 min 1 sec) 
Heartbeat CPU 0 instructions: 540000000 cycles: 1319577093 heartbeat IPC: 0.353183 cumulative IPC: 0.35166 (Simulation time: 0 hr 21 min 28 sec) 
