
*** ChampSim Multicore Out-of-Order Simulator ***

Warmup Instructions: 100000000
Simulation Instructions: 500000000
Number of CPUs: 1
LLC sets: 2048
LLC ways: 16
Clean RRIP Policies: 320131003201310 Dirty RRIP Policies: 1300131013001310 PSEL Width: 10 Track Set: 4294967295 PSEL Mask: 1 Demote Mask: 2443333424433334DS Algo: 0Window size: 0
Off-chip DRAM Size: 4096 MB Channels: 1 Width: 64-bit Data Rate: 1600 MT/s

CPU 0 runs /mnt/beegfs/iconst01/spec2017/Gcc.trace.gz
NOT SORTED
TRACE STRING: /mnt/beegfs/iconst01/spec2017/Gcc.trace.gz
SORTED
TRACE STRING: /mnt/beegfs/iconst01/spec2017/Gcc.trace.gz
INITIAL
TRACE STRING: /mnt/beegfs/iconst01/spec2017/Gcc.trace.gz

champsim_seed used: 269

CPU 0 L1D next line prefetcher
CPU 0 L2C IP-based stride prefetcher
Initialize DRRIP state
Assign rand_sets[0]: 454  LLC: 2048
rand_sets[0]: 454
Assign rand_sets[1]: 1662  LLC: 2048
rand_sets[1]: 1662
Assign rand_sets[2]: 1921  LLC: 2048
rand_sets[2]: 1921
Assign rand_sets[3]: 1131  LLC: 2048
rand_sets[3]: 1131
Assign rand_sets[4]: 331  LLC: 2048
rand_sets[4]: 331
Assign rand_sets[5]: 1531  LLC: 2048
rand_sets[5]: 1531
Assign rand_sets[6]: 482  LLC: 2048
rand_sets[6]: 482
Assign rand_sets[7]: 1275  LLC: 2048
rand_sets[7]: 1275
Assign rand_sets[8]: 1876  LLC: 2048
rand_sets[8]: 1876
Assign rand_sets[9]: 2038  LLC: 2048
rand_sets[9]: 2038
Assign rand_sets[10]: 701  LLC: 2048
rand_sets[10]: 701
Assign rand_sets[11]: 479  LLC: 2048
rand_sets[11]: 479
Assign rand_sets[12]: 892  LLC: 2048
rand_sets[12]: 892
Assign rand_sets[13]: 1820  LLC: 2048
rand_sets[13]: 1820
Assign rand_sets[14]: 1505  LLC: 2048
rand_sets[14]: 1505
Assign rand_sets[15]: 1159  LLC: 2048
rand_sets[15]: 1159
Assign rand_sets[16]: 513  LLC: 2048
rand_sets[16]: 513
Assign rand_sets[17]: 703  LLC: 2048
rand_sets[17]: 703
Assign rand_sets[18]: 561  LLC: 2048
rand_sets[18]: 561
Assign rand_sets[19]: 990  LLC: 2048
rand_sets[19]: 990
Assign rand_sets[20]: 342  LLC: 2048
rand_sets[20]: 342
Assign rand_sets[21]: 882  LLC: 2048
rand_sets[21]: 882
Assign rand_sets[22]: 15  LLC: 2048
rand_sets[22]: 15
Assign rand_sets[23]: 71  LLC: 2048
rand_sets[23]: 71
Assign rand_sets[24]: 1127  LLC: 2048
rand_sets[24]: 1127
Assign rand_sets[25]: 1382  LLC: 2048
rand_sets[25]: 1382
Assign rand_sets[26]: 647  LLC: 2048
rand_sets[26]: 647
Assign rand_sets[27]: 857  LLC: 2048
rand_sets[27]: 857
Assign rand_sets[28]: 1450  LLC: 2048
rand_sets[28]: 1450
Assign rand_sets[29]: 1160  LLC: 2048
rand_sets[29]: 1160
Assign rand_sets[30]: 1852  LLC: 2048
rand_sets[30]: 1852
Assign rand_sets[31]: 1881  LLC: 2048
rand_sets[31]: 1881
Assign rand_sets[32]: 1770  LLC: 2048
rand_sets[32]: 1770
Assign rand_sets[33]: 1622  LLC: 2048
rand_sets[33]: 1622
Assign rand_sets[34]: 275  LLC: 2048
rand_sets[34]: 275
Assign rand_sets[35]: 635  LLC: 2048
rand_sets[35]: 635
Assign rand_sets[36]: 466  LLC: 2048
rand_sets[36]: 466
Assign rand_sets[37]: 1413  LLC: 2048
rand_sets[37]: 1413
Assign rand_sets[38]: 417  LLC: 2048
rand_sets[38]: 417
Assign rand_sets[39]: 472  LLC: 2048
rand_sets[39]: 472
Assign rand_sets[40]: 1340  LLC: 2048
rand_sets[40]: 1340
Assign rand_sets[41]: 852  LLC: 2048
rand_sets[41]: 852
Assign rand_sets[42]: 1365  LLC: 2048
rand_sets[42]: 1365
Assign rand_sets[43]: 47  LLC: 2048
rand_sets[43]: 47
Assign rand_sets[44]: 823  LLC: 2048
rand_sets[44]: 823
Assign rand_sets[45]: 686  LLC: 2048
rand_sets[45]: 686
Assign rand_sets[46]: 1637  LLC: 2048
rand_sets[46]: 1637
Assign rand_sets[47]: 1115  LLC: 2048
rand_sets[47]: 1115
Assign rand_sets[48]: 986  LLC: 2048
rand_sets[48]: 986
Assign rand_sets[49]: 258  LLC: 2048
rand_sets[49]: 258
Assign rand_sets[50]: 633  LLC: 2048
rand_sets[50]: 633
Assign rand_sets[51]: 920  LLC: 2048
rand_sets[51]: 920
Assign rand_sets[52]: 204  LLC: 2048
rand_sets[52]: 204
Assign rand_sets[53]: 227  LLC: 2048
rand_sets[53]: 227
Assign rand_sets[54]: 1818  LLC: 2048
rand_sets[54]: 1818
Assign rand_sets[55]: 886  LLC: 2048
rand_sets[55]: 886
Assign rand_sets[56]: 1422  LLC: 2048
rand_sets[56]: 1422
Assign rand_sets[57]: 607  LLC: 2048
rand_sets[57]: 607
Assign rand_sets[58]: 217  LLC: 2048
rand_sets[58]: 217
Assign rand_sets[59]: 1945  LLC: 2048
rand_sets[59]: 1945
Assign rand_sets[60]: 143  LLC: 2048
rand_sets[60]: 143
Assign rand_sets[61]: 1311  LLC: 2048
rand_sets[61]: 1311
Assign rand_sets[62]: 319  LLC: 2048
rand_sets[62]: 319
Assign rand_sets[63]: 1846  LLC: 2048
rand_sets[63]: 1846
 CLEAN-RRIP-POLICY-1: 0-3-2-0-1-3-1-0- CLEAN-RRIP-POLICY-2: 0-3-2-0-1-3-1-0-
 DIRTY-RRIP-POLICY-1: 1-3-0-0-1-3-1-0- DIRTY-RRIP-POLICY-2: 1-3-0-0-1-3-1-0-
 PSEL width: 10
Heartbeat CPU 0 instructions: 10000001 cycles: 7315922 heartbeat IPC: 1.36688 cumulative IPC: 1.36688 (Simulation time: 0 hr 0 min 17 sec) 
Heartbeat CPU 0 instructions: 20000000 cycles: 14308549 heartbeat IPC: 1.43008 cumulative IPC: 1.39777 (Simulation time: 0 hr 0 min 34 sec) 
Heartbeat CPU 0 instructions: 30000001 cycles: 21022723 heartbeat IPC: 1.48939 cumulative IPC: 1.42703 (Simulation time: 0 hr 0 min 53 sec) 
Heartbeat CPU 0 instructions: 40000000 cycles: 27483913 heartbeat IPC: 1.5477 cumulative IPC: 1.4554 (Simulation time: 0 hr 1 min 12 sec) 
Heartbeat CPU 0 instructions: 50000001 cycles: 33585712 heartbeat IPC: 1.63886 cumulative IPC: 1.48873 (Simulation time: 0 hr 1 min 30 sec) 
Heartbeat CPU 0 instructions: 60000000 cycles: 40066918 heartbeat IPC: 1.54292 cumulative IPC: 1.49749 (Simulation time: 0 hr 1 min 49 sec) 
Heartbeat CPU 0 instructions: 70000000 cycles: 47106932 heartbeat IPC: 1.42045 cumulative IPC: 1.48598 (Simulation time: 0 hr 2 min 7 sec) 
Heartbeat CPU 0 instructions: 80000000 cycles: 54198165 heartbeat IPC: 1.41019 cumulative IPC: 1.47606 (Simulation time: 0 hr 2 min 24 sec) 
Heartbeat CPU 0 instructions: 90000003 cycles: 61204280 heartbeat IPC: 1.42733 cumulative IPC: 1.47049 (Simulation time: 0 hr 2 min 41 sec) 
Heartbeat CPU 0 instructions: 100000000 cycles: 68373711 heartbeat IPC: 1.39481 cumulative IPC: 1.46255 (Simulation time: 0 hr 2 min 58 sec) 

Warmup complete CPU 0 instructions: 100000004 cycles: 68373712 (Simulation time: 0 hr 2 min 58 sec) 

Heartbeat CPU 0 instructions: 110000003 cycles: 96459615 heartbeat IPC: 0.356051 cumulative IPC: 0.35605 (Simulation time: 0 hr 3 min 32 sec) 
Heartbeat CPU 0 instructions: 120000000 cycles: 124043435 heartbeat IPC: 0.362531 cumulative IPC: 0.359262 (Simulation time: 0 hr 4 min 7 sec) 
Heartbeat CPU 0 instructions: 130000000 cycles: 149063156 heartbeat IPC: 0.399685 cumulative IPC: 0.371796 (Simulation time: 0 hr 4 min 41 sec) 
Heartbeat CPU 0 instructions: 140000000 cycles: 179197379 heartbeat IPC: 0.331849 cumulative IPC: 0.360934 (Simulation time: 0 hr 5 min 14 sec) 
Heartbeat CPU 0 instructions: 150000000 cycles: 209474529 heartbeat IPC: 0.330282 cumulative IPC: 0.354357 (Simulation time: 0 hr 5 min 49 sec) 
Heartbeat CPU 0 instructions: 160000000 cycles: 236983131 heartbeat IPC: 0.363523 cumulative IPC: 0.355852 (Simulation time: 0 hr 6 min 22 sec) 
Heartbeat CPU 0 instructions: 170000001 cycles: 265161518 heartbeat IPC: 0.354882 cumulative IPC: 0.355713 (Simulation time: 0 hr 6 min 57 sec) 
Heartbeat CPU 0 instructions: 180000000 cycles: 293907124 heartbeat IPC: 0.347879 cumulative IPC: 0.354715 (Simulation time: 0 hr 7 min 32 sec) 
Heartbeat CPU 0 instructions: 190000002 cycles: 322185442 heartbeat IPC: 0.353628 cumulative IPC: 0.354594 (Simulation time: 0 hr 8 min 6 sec) 
Heartbeat CPU 0 instructions: 200000000 cycles: 350891053 heartbeat IPC: 0.348364 cumulative IPC: 0.353961 (Simulation time: 0 hr 8 min 41 sec) 
Heartbeat CPU 0 instructions: 210000002 cycles: 378945404 heartbeat IPC: 0.356451 cumulative IPC: 0.354186 (Simulation time: 0 hr 9 min 15 sec) 
Heartbeat CPU 0 instructions: 220000000 cycles: 408700731 heartbeat IPC: 0.336074 cumulative IPC: 0.352602 (Simulation time: 0 hr 9 min 48 sec) 
Heartbeat CPU 0 instructions: 230000000 cycles: 436506679 heartbeat IPC: 0.359635 cumulative IPC: 0.353133 (Simulation time: 0 hr 10 min 22 sec) 
Heartbeat CPU 0 instructions: 240000000 cycles: 462839314 heartbeat IPC: 0.379757 cumulative IPC: 0.354911 (Simulation time: 0 hr 10 min 54 sec) 
Heartbeat CPU 0 instructions: 250000000 cycles: 493175120 heartbeat IPC: 0.329643 cumulative IPC: 0.353106 (Simulation time: 0 hr 11 min 30 sec) 
Heartbeat CPU 0 instructions: 260000000 cycles: 520359171 heartbeat IPC: 0.367863 cumulative IPC: 0.353994 (Simulation time: 0 hr 12 min 3 sec) 
Heartbeat CPU 0 instructions: 270000003 cycles: 548900676 heartbeat IPC: 0.350367 cumulative IPC: 0.353778 (Simulation time: 0 hr 12 min 39 sec) 
Heartbeat CPU 0 instructions: 280000000 cycles: 577392151 heartbeat IPC: 0.350982 cumulative IPC: 0.353622 (Simulation time: 0 hr 13 min 14 sec) 
Heartbeat CPU 0 instructions: 290000000 cycles: 606373820 heartbeat IPC: 0.345046 cumulative IPC: 0.35316 (Simulation time: 0 hr 13 min 49 sec) 
Heartbeat CPU 0 instructions: 300000000 cycles: 636883119 heartbeat IPC: 0.327769 cumulative IPC: 0.351797 (Simulation time: 0 hr 14 min 23 sec) 
Heartbeat CPU 0 instructions: 310000001 cycles: 666694913 heartbeat IPC: 0.335438 cumulative IPC: 0.350982 (Simulation time: 0 hr 14 min 57 sec) 
Heartbeat CPU 0 instructions: 320000000 cycles: 695338759 heartbeat IPC: 0.349115 cumulative IPC: 0.350897 (Simulation time: 0 hr 15 min 31 sec) 
Heartbeat CPU 0 instructions: 330000000 cycles: 724223056 heartbeat IPC: 0.346209 cumulative IPC: 0.35069 (Simulation time: 0 hr 16 min 5 sec) 
Heartbeat CPU 0 instructions: 340000000 cycles: 753954742 heartbeat IPC: 0.336342 cumulative IPC: 0.350068 (Simulation time: 0 hr 16 min 39 sec) 
Heartbeat CPU 0 instructions: 350000003 cycles: 781157312 heartbeat IPC: 0.367612 cumulative IPC: 0.350738 (Simulation time: 0 hr 17 min 12 sec) 
Heartbeat CPU 0 instructions: 360000000 cycles: 809984246 heartbeat IPC: 0.346898 cumulative IPC: 0.350588 (Simulation time: 0 hr 17 min 45 sec) 
Heartbeat CPU 0 instructions: 370000000 cycles: 838738229 heartbeat IPC: 0.347778 cumulative IPC: 0.350483 (Simulation time: 0 hr 18 min 17 sec) 
Heartbeat CPU 0 instructions: 380000000 cycles: 867858679 heartbeat IPC: 0.343401 cumulative IPC: 0.350225 (Simulation time: 0 hr 18 min 50 sec) 
Heartbeat CPU 0 instructions: 390000001 cycles: 895924253 heartbeat IPC: 0.356308 cumulative IPC: 0.350432 (Simulation time: 0 hr 19 min 23 sec) 
Heartbeat CPU 0 instructions: 400000000 cycles: 925136189 heartbeat IPC: 0.342326 cumulative IPC: 0.350155 (Simulation time: 0 hr 19 min 55 sec) 
Heartbeat CPU 0 instructions: 410000001 cycles: 952875758 heartbeat IPC: 0.360496 cumulative IPC: 0.35048 (Simulation time: 0 hr 20 min 27 sec) 
Heartbeat CPU 0 instructions: 420000000 cycles: 980515607 heartbeat IPC: 0.361796 cumulative IPC: 0.350823 (Simulation time: 0 hr 21 min 0 sec) 
Heartbeat CPU 0 instructions: 430000002 cycles: 1008728668 heartbeat IPC: 0.354446 cumulative IPC: 0.350931 (Simulation time: 0 hr 21 min 32 sec) 
Heartbeat CPU 0 instructions: 440000000 cycles: 1038871677 heartbeat IPC: 0.331752 cumulative IPC: 0.350336 (Simulation time: 0 hr 22 min 5 sec) 
Heartbeat CPU 0 instructions: 450000002 cycles: 1068703199 heartbeat IPC: 0.335216 cumulative IPC: 0.349885 (Simulation time: 0 hr 22 min 39 sec) 
Heartbeat CPU 0 instructions: 460000000 cycles: 1096820022 heartbeat IPC: 0.355659 cumulative IPC: 0.350043 (Simulation time: 0 hr 23 min 11 sec) 
Heartbeat CPU 0 instructions: 470000000 cycles: 1124801137 heartbeat IPC: 0.357384 cumulative IPC: 0.350237 (Simulation time: 0 hr 23 min 44 sec) 
Heartbeat CPU 0 instructions: 480000000 cycles: 1153030788 heartbeat IPC: 0.354237 cumulative IPC: 0.350341 (Simulation time: 0 hr 24 min 16 sec) 
Heartbeat CPU 0 instructions: 490000000 cycles: 1180955571 heartbeat IPC: 0.358105 cumulative IPC: 0.350536 (Simulation time: 0 hr 24 min 48 sec) 
Heartbeat CPU 0 instructions: 500000000 cycles: 1209567633 heartbeat IPC: 0.349503 cumulative IPC: 0.35051 (Simulation time: 0 hr 25 min 21 sec) 
Heartbeat CPU 0 instructions: 510000000 cycles: 1244678583 heartbeat IPC: 0.284811 cumulative IPC: 0.348549 (Simulation time: 0 hr 25 min 58 sec) 
Heartbeat CPU 0 instructions: 520000000 cycles: 1272640683 heartbeat IPC: 0.357627 cumulative IPC: 0.34876 (Simulation time: 0 hr 26 min 32 sec) 
Heartbeat CPU 0 instructions: 530000001 cycles: 1302631529 heartbeat IPC: 0.333435 cumulative IPC: 0.348388 (Simulation time: 0 hr 27 min 6 sec) 
Heartbeat CPU 0 instructions: 540000000 cycles: 1331167341 heartbeat IPC: 0.350437 cumulative IPC: 0.348434 (Simulation time: 0 hr 27 min 40 sec) 
Heartbeat CPU 0 instructions: 550000001 cycles: 1360639657 heartbeat IPC: 0.339301 cumulative IPC: 0.348226 (Simulation time: 0 hr 28 min 15 sec) 
Heartbeat CPU 0 instructions: 560000000 cycles: 1386221766 heartbeat IPC: 0.390898 cumulative IPC: 0.349054 (Simulation time: 0 hr 28 min 48 sec) 
Heartbeat CPU 0 instructions: 570000000 cycles: 1416339221 heartbeat IPC: 0.332033 cumulative IPC: 0.348674 (Simulation time: 0 hr 29 min 23 sec) 
Heartbeat CPU 0 instructions: 580000000 cycles: 1444710565 heartbeat IPC: 0.352468 cumulative IPC: 0.348752 (Simulation time: 0 hr 29 min 57 sec) 
Heartbeat CPU 0 instructions: 590000001 cycles: 1469693920 heartbeat IPC: 0.400267 cumulative IPC: 0.34967 (Simulation time: 0 hr 30 min 29 sec) 
Heartbeat CPU 0 instructions: 600000000 cycles: 1496297673 heartbeat IPC: 0.375887 cumulative IPC: 0.350159 (Simulation time: 0 hr 31 min 2 sec) 
Finished CPU 0 instructions: 500000000 cycles: 1427923983 cumulative IPC: 0.350159 (Simulation time: 0 hr 31 min 2 sec) 

CPU 0 Branch Prediction Accuracy: 86.4311% MPKI: 26.2662
Number of Branches: 96788573 Number of Mispredictions: 13133102
Number of LOAD Instructions: 164682285
Number of LOAD Instructions (ROI): 164682285
Number of STORE Instructions: 78194750
Number of STORE Instructions (ROI): 78194750
Total Destination Memory Operands: 83268534
Total Destination Memory Operands (ROI): 83268534
Total Source Memory Operands: 164712438
Total Source Memory Operands (ROI): 164712438
Number of DEPENDED LOADS: 7058850
Number of DEPENDED LOADS (ROI): 7058850
Number of SQ_ADDED: 83268522
Number of SQ_ADDED (ROI): 83268522
Number of LQ_ADDED: 236664955
Number of LQ_ADDED (ROI): 236664955
Number of Instructions read from trace: 600000066

ChampSim completed all CPUs

Region of Interest Statistics

CPU 0 cumulative IPC: 0.350159 instructions: 500000000 cycles: 1427923983
ITLB TOTAL     ACCESS:  100519349  HIT:  100314903  MISS:     204446
ITLB LOAD      ACCESS:  100519349  HIT:  100314903  MISS:     204446
ITLB RFO       ACCESS:          0  HIT:          0  MISS:          0
ITLB PREFETCH  ACCESS:          0  HIT:          0  MISS:          0
ITLB WRITEBACK ACCESS:          0  HIT:          0  MISS:          0
ITLB PREFETCH  REQUESTED:          0  ISSUED:          0  USEFUL:          0  USELESS:          0
ITLB TOTAL MSHR MERGED:     172423
ITLB LOAD MSHR MERGED:     172423
ITLB RFO MSHR MERGED:          0
ITLB PREFETCH MSHR MERGED:          0
ITLB WRITEBACK MSHR MERGED:          0
ITLB TOTAL ACCESSES:  100691772 HITS:  100314903 MISSES:     376869
ITLB LOAD ACCESSES:  100691772 HITS:  100314903 MISSES:     376869
ITLB RFO ACCESSES:          0 HITS:          0 MISSES:          0
ITLB PREFETCH ACCESSES:          0 HITS:          0 MISSES:          0
ITLB WRITEBACK ACCESSES:          0 HITS:          0 MISSES:          0
ITLB RQ ACCESS:  500000057
ITLB RQ TO_CACHE:  100691772
ITLB RQ MERGED:  399308285
ITLB RQ FORWARD:          0
ITLB WQ ACCESS:          0
ITLB WQ TO_CACHE:          0
ITLB WQ MERGED:          0
ITLB WQ FORWARD:          0
DTLB TOTAL     ACCESS:  165341346  HIT:  164706997  MISS:     634349
DTLB LOAD      ACCESS:  106295199  HIT:  105725207  MISS:     569992
DTLB RFO       ACCESS:   59046147  HIT:   58981790  MISS:      64357
DTLB PREFETCH  ACCESS:          0  HIT:          0  MISS:          0
DTLB WRITEBACK ACCESS:          0  HIT:          0  MISS:          0
DTLB PREFETCH  REQUESTED:          0  ISSUED:          0  USEFUL:          0  USELESS:          0
DTLB TOTAL MSHR MERGED:      99812
DTLB LOAD MSHR MERGED:      59342
DTLB RFO MSHR MERGED:      40470
DTLB PREFETCH MSHR MERGED:          0
DTLB WRITEBACK MSHR MERGED:          0
DTLB TOTAL ACCESSES:  165441158 HITS:  164706997 MISSES:     734161
DTLB LOAD ACCESSES:  106354541 HITS:  105725207 MISSES:     629334
DTLB RFO ACCESSES:   59086617 HITS:   58981790 MISSES:     104827
DTLB PREFETCH ACCESSES:          0 HITS:          0 MISSES:          0
DTLB WRITEBACK ACCESSES:          0 HITS:          0 MISSES:          0
DTLB RQ ACCESS:  200312049
DTLB RQ TO_CACHE:  165441158
DTLB RQ MERGED:   34870891
DTLB RQ FORWARD:          0
DTLB WQ ACCESS:          0
DTLB WQ TO_CACHE:          0
DTLB WQ MERGED:          0
DTLB WQ FORWARD:          0
L1D TOTAL     ACCESS:  281838769  HIT:  273929387  MISS:    7909382
L1D LOAD      ACCESS:  110428135  HIT:  107151276  MISS:    3276859
L1D RFO       ACCESS:   67104355  HIT:   66213271  MISS:     891084
L1D PREFETCH  ACCESS:  104306279  HIT:  100564840  MISS:    3741439
L1D WRITEBACK ACCESS:          0  HIT:          0  MISS:          0
L1D PREFETCH  REQUESTED:  110821171  ISSUED:  109121805  USEFUL:    1662169  USELESS:    2079234
L1D TOTAL MSHR MERGED:    2875447
L1D LOAD MSHR MERGED:     489508
L1D RFO MSHR MERGED:    1881934
L1D PREFETCH MSHR MERGED:     504005
L1D WRITEBACK MSHR MERGED:          0
L1D TOTAL ACCESSES:  284741704 HITS:  273956875 MISSES:   10784829
L1D LOAD ACCESSES:  110822664 HITS:  107152769 MISSES:    3669895
L1D RFO ACCESSES:   68973996 HITS:   66213271 MISSES:    2760725
L1D PREFETCH ACCESSES:  104945044 HITS:  100590835 MISSES:    4354209
L1D WRITEBACK ACCESSES:          0 HITS:          0 MISSES:          0
L1D RQ ACCESS:  130759446
L1D RQ TO_CACHE:  110821174
L1D RQ MERGED:   19936779
L1D RQ FORWARD:          0
L1D WQ ACCESS:   69552603
L1D WQ TO_CACHE:   68973997
L1D WQ MERGED:     578606
L1D WQ FORWARD:      27488
L1I TOTAL     ACCESS:  126566276  HIT:  122327723  MISS:    4238553
L1I LOAD      ACCESS:  126566276  HIT:  122327723  MISS:    4238553
L1I RFO       ACCESS:          0  HIT:          0  MISS:          0
L1I PREFETCH  ACCESS:          0  HIT:          0  MISS:          0
L1I WRITEBACK ACCESS:          0  HIT:          0  MISS:          0
L1I PREFETCH  REQUESTED:          0  ISSUED:          0  USEFUL:          0  USELESS:          0
L1I TOTAL MSHR MERGED:    1835346
L1I LOAD MSHR MERGED:    1835346
L1I RFO MSHR MERGED:          0
L1I PREFETCH MSHR MERGED:          0
L1I WRITEBACK MSHR MERGED:          0
L1I TOTAL ACCESSES:  128401625 HITS:  122327723 MISSES:    6073902
L1I LOAD ACCESSES:  128401625 HITS:  122327723 MISSES:    6073902
L1I RFO ACCESSES:          0 HITS:          0 MISSES:          0
L1I PREFETCH ACCESSES:          0 HITS:          0 MISSES:          0
L1I WRITEBACK ACCESSES:          0 HITS:          0 MISSES:          0
L1I RQ ACCESS:  500000057
L1I RQ TO_CACHE:  128401625
L1I RQ MERGED:  371598432
L1I RQ FORWARD:          0
L1I WQ ACCESS:          0
L1I WQ TO_CACHE:          0
L1I WQ MERGED:          0
L1I WQ FORWARD:          0
L2C TOTAL     ACCESS:   14905261  HIT:   11158855  MISS:    3746406
L2C LOAD      ACCESS:    7418736  HIT:    5098831  MISS:    2319905
L2C RFO       ACCESS:     878693  HIT:     409916  MISS:     468777
L2C PREFETCH  ACCESS:    4568590  HIT:    3628121  MISS:     940469
L2C WRITEBACK ACCESS:    2039242  HIT:    2021987  MISS:      17255
L2C PREFETCH  REQUESTED:     842682  ISSUED:     842682  USEFUL:     203369  USELESS:     736807
L2C TOTAL MSHR MERGED:       7006
L2C LOAD MSHR MERGED:        796
L2C RFO MSHR MERGED:          0
L2C PREFETCH MSHR MERGED:       6210
L2C WRITEBACK MSHR MERGED:          0
L2C TOTAL ACCESSES:   14913145 HITS:   11159300 MISSES:    3753845
L2C LOAD ACCESSES:    7418940 HITS:    5099035 MISSES:    2319905
L2C RFO ACCESSES:     878791 HITS:     410014 MISSES:     468777
L2C PREFETCH ACCESSES:    4576172 HITS:    3628264 MISSES:     947908
L2C WRITEBACK ACCESSES:    2039242 HITS:    2021987 MISSES:      17255
L2C RQ ACCESS:    8297734
L2C RQ TO_CACHE:    8297432
L2C RQ MERGED:          0
L2C RQ FORWARD:          0
L2C WQ ACCESS:    2039242
L2C WQ TO_CACHE:    2039242
L2C WQ MERGED:          0
L2C WQ FORWARD:        445
LLC TOTAL     ACCESS:    4609704  HIT:    3777046  MISS:     832658
LLC LOAD      ACCESS:    2319096  HIT:    1932884  MISS:     386212
LLC RFO       ACCESS:     468766  HIT:     374566  MISS:      94200
LLC PREFETCH  ACCESS:     941578  HIT:     654828  MISS:     286750
LLC WRITEBACK ACCESS:     880264  HIT:     814768  MISS:      65496
LLC PREFETCH  REQUESTED:          0  ISSUED:          0  USEFUL:      36211  USELESS:     250596
LLC TOTAL MSHR MERGED:        104
LLC LOAD MSHR MERGED:         40
LLC RFO MSHR MERGED:          0
LLC PREFETCH MSHR MERGED:         64
LLC WRITEBACK MSHR MERGED:          0
LLC TOTAL ACCESSES:    4609841 HITS:    3777079 MISSES:     832762
LLC LOAD ACCESSES:    2319109 HITS:    1932897 MISSES:     386212
LLC RFO ACCESSES:     468777 HITS:     374577 MISSES:      94200
LLC PREFETCH ACCESSES:     941691 HITS:     654837 MISSES:     286854
LLC WRITEBACK ACCESSES:     880264 HITS:     814768 MISSES:      65496
LLC 0 RQ ACCESS:    2787886
LLC 0 RQ TO_CACHE:    2787862
LLC 0 RQ MERGED:          0
LLC 0 RQ FORWARD:          0
LLC WQ ACCESS:     880264
LLC WQ TO_CACHE:     880264
LLC WQ MERGED:          0
LLC WQ FORWARD:         33
Major fault: 0 Minor fault: 12862
CPU 0 L1D next line prefetcher final stats
CPU 0 L2C PC-based stride prefetcher final stats
All Misses: 976186
All Hits: 4450524
SD Algo Stats - Switches: 0 SRR-Repls: 443963 BRR-Repls: 0

DRAM Statistics
 CHANNEL 0
 RQ ROW_BUFFER_HIT:     158098  ROW_BUFFER_MISS:     605845
 DBUS_CONGESTED:     418650
 WQ ROW_BUFFER_HIT:      19590  ROW_BUFFER_MISS:     219476  FULL:          0

 AVG_CONGESTED_CYCLE: 13
LOADS RETIRED: 136549171
INSTR RETIRED: 500000000
