
*** ChampSim Multicore Out-of-Order Simulator ***

Warmup Instructions: 100000000
Simulation Instructions: 500000000
Number of CPUs: 1
LLC sets: 2048
LLC ways: 16
Clean RRIP Policies: 1213230112132301 Dirty RRIP Policies: 2213031122130311 PSEL Width: 10 Track Set: 4294967295 PSEL Mask: 1 Demote Mask: 1340013113400131DS Algo: 0Window size: 0
Off-chip DRAM Size: 4096 MB Channels: 1 Width: 64-bit Data Rate: 1600 MT/s

CPU 0 runs /mnt/beegfs/iconst01/spec2017/Cam4.trace.gz
NOT SORTED
TRACE STRING: /mnt/beegfs/iconst01/spec2017/Cam4.trace.gz
SORTED
TRACE STRING: /mnt/beegfs/iconst01/spec2017/Cam4.trace.gz
INITIAL
TRACE STRING: /mnt/beegfs/iconst01/spec2017/Cam4.trace.gz

champsim_seed used: 325

CPU 0 L1D next line prefetcher
CPU 0 L2C IP-based stride prefetcher
Initialize DRRIP state
Assign rand_sets[0]: 454  LLC: 2048
rand_sets[0]: 454
Assign rand_sets[1]: 1662  LLC: 2048
rand_sets[1]: 1662
Assign rand_sets[2]: 1921  LLC: 2048
rand_sets[2]: 1921
Assign rand_sets[3]: 1131  LLC: 2048
rand_sets[3]: 1131
Assign rand_sets[4]: 331  LLC: 2048
rand_sets[4]: 331
Assign rand_sets[5]: 1531  LLC: 2048
rand_sets[5]: 1531
Assign rand_sets[6]: 482  LLC: 2048
rand_sets[6]: 482
Assign rand_sets[7]: 1275  LLC: 2048
rand_sets[7]: 1275
Assign rand_sets[8]: 1876  LLC: 2048
rand_sets[8]: 1876
Assign rand_sets[9]: 2038  LLC: 2048
rand_sets[9]: 2038
Assign rand_sets[10]: 701  LLC: 2048
rand_sets[10]: 701
Assign rand_sets[11]: 479  LLC: 2048
rand_sets[11]: 479
Assign rand_sets[12]: 892  LLC: 2048
rand_sets[12]: 892
Assign rand_sets[13]: 1820  LLC: 2048
rand_sets[13]: 1820
Assign rand_sets[14]: 1505  LLC: 2048
rand_sets[14]: 1505
Assign rand_sets[15]: 1159  LLC: 2048
rand_sets[15]: 1159
Assign rand_sets[16]: 513  LLC: 2048
rand_sets[16]: 513
Assign rand_sets[17]: 703  LLC: 2048
rand_sets[17]: 703
Assign rand_sets[18]: 561  LLC: 2048
rand_sets[18]: 561
Assign rand_sets[19]: 990  LLC: 2048
rand_sets[19]: 990
Assign rand_sets[20]: 342  LLC: 2048
rand_sets[20]: 342
Assign rand_sets[21]: 882  LLC: 2048
rand_sets[21]: 882
Assign rand_sets[22]: 15  LLC: 2048
rand_sets[22]: 15
Assign rand_sets[23]: 71  LLC: 2048
rand_sets[23]: 71
Assign rand_sets[24]: 1127  LLC: 2048
rand_sets[24]: 1127
Assign rand_sets[25]: 1382  LLC: 2048
rand_sets[25]: 1382
Assign rand_sets[26]: 647  LLC: 2048
rand_sets[26]: 647
Assign rand_sets[27]: 857  LLC: 2048
rand_sets[27]: 857
Assign rand_sets[28]: 1450  LLC: 2048
rand_sets[28]: 1450
Assign rand_sets[29]: 1160  LLC: 2048
rand_sets[29]: 1160
Assign rand_sets[30]: 1852  LLC: 2048
rand_sets[30]: 1852
Assign rand_sets[31]: 1881  LLC: 2048
rand_sets[31]: 1881
Assign rand_sets[32]: 1770  LLC: 2048
rand_sets[32]: 1770
Assign rand_sets[33]: 1622  LLC: 2048
rand_sets[33]: 1622
Assign rand_sets[34]: 275  LLC: 2048
rand_sets[34]: 275
Assign rand_sets[35]: 635  LLC: 2048
rand_sets[35]: 635
Assign rand_sets[36]: 466  LLC: 2048
rand_sets[36]: 466
Assign rand_sets[37]: 1413  LLC: 2048
rand_sets[37]: 1413
Assign rand_sets[38]: 417  LLC: 2048
rand_sets[38]: 417
Assign rand_sets[39]: 472  LLC: 2048
rand_sets[39]: 472
Assign rand_sets[40]: 1340  LLC: 2048
rand_sets[40]: 1340
Assign rand_sets[41]: 852  LLC: 2048
rand_sets[41]: 852
Assign rand_sets[42]: 1365  LLC: 2048
rand_sets[42]: 1365
Assign rand_sets[43]: 47  LLC: 2048
rand_sets[43]: 47
Assign rand_sets[44]: 823  LLC: 2048
rand_sets[44]: 823
Assign rand_sets[45]: 686  LLC: 2048
rand_sets[45]: 686
Assign rand_sets[46]: 1637  LLC: 2048
rand_sets[46]: 1637
Assign rand_sets[47]: 1115  LLC: 2048
rand_sets[47]: 1115
Assign rand_sets[48]: 986  LLC: 2048
rand_sets[48]: 986
Assign rand_sets[49]: 258  LLC: 2048
rand_sets[49]: 258
Assign rand_sets[50]: 633  LLC: 2048
rand_sets[50]: 633
Assign rand_sets[51]: 920  LLC: 2048
rand_sets[51]: 920
Assign rand_sets[52]: 204  LLC: 2048
rand_sets[52]: 204
Assign rand_sets[53]: 227  LLC: 2048
rand_sets[53]: 227
Assign rand_sets[54]: 1818  LLC: 2048
rand_sets[54]: 1818
Assign rand_sets[55]: 886  LLC: 2048
rand_sets[55]: 886
Assign rand_sets[56]: 1422  LLC: 2048
rand_sets[56]: 1422
Assign rand_sets[57]: 607  LLC: 2048
rand_sets[57]: 607
Assign rand_sets[58]: 217  LLC: 2048
rand_sets[58]: 217
Assign rand_sets[59]: 1945  LLC: 2048
rand_sets[59]: 1945
Assign rand_sets[60]: 143  LLC: 2048
rand_sets[60]: 143
Assign rand_sets[61]: 1311  LLC: 2048
rand_sets[61]: 1311
Assign rand_sets[62]: 319  LLC: 2048
rand_sets[62]: 319
Assign rand_sets[63]: 1846  LLC: 2048
rand_sets[63]: 1846
 CLEAN-RRIP-POLICY-1: 1-2-1-3-2-3-0-1- CLEAN-RRIP-POLICY-2: 1-2-1-3-2-3-0-1-
 DIRTY-RRIP-POLICY-1: 2-2-1-3-0-3-1-1- DIRTY-RRIP-POLICY-2: 2-2-1-3-0-3-1-1-
 PSEL width: 10
Heartbeat CPU 0 instructions: 10000000 cycles: 4859184 heartbeat IPC: 2.05796 cumulative IPC: 2.05796 (Simulation time: 0 hr 0 min 16 sec) 
Heartbeat CPU 0 instructions: 20000000 cycles: 9790786 heartbeat IPC: 2.02774 cumulative IPC: 2.04274 (Simulation time: 0 hr 0 min 32 sec) 
Heartbeat CPU 0 instructions: 30000001 cycles: 14563059 heartbeat IPC: 2.09544 cumulative IPC: 2.06001 (Simulation time: 0 hr 0 min 47 sec) 
Heartbeat CPU 0 instructions: 40000000 cycles: 19400056 heartbeat IPC: 2.0674 cumulative IPC: 2.06185 (Simulation time: 0 hr 1 min 3 sec) 
Heartbeat CPU 0 instructions: 50000000 cycles: 24256601 heartbeat IPC: 2.05908 cumulative IPC: 2.06129 (Simulation time: 0 hr 1 min 19 sec) 
Heartbeat CPU 0 instructions: 60000000 cycles: 29182064 heartbeat IPC: 2.03027 cumulative IPC: 2.05606 (Simulation time: 0 hr 1 min 36 sec) 
Heartbeat CPU 0 instructions: 70000001 cycles: 33956929 heartbeat IPC: 2.0943 cumulative IPC: 2.06143 (Simulation time: 0 hr 1 min 50 sec) 
Heartbeat CPU 0 instructions: 80000000 cycles: 38793185 heartbeat IPC: 2.06771 cumulative IPC: 2.06222 (Simulation time: 0 hr 2 min 7 sec) 
Heartbeat CPU 0 instructions: 90000002 cycles: 43647221 heartbeat IPC: 2.06014 cumulative IPC: 2.06199 (Simulation time: 0 hr 2 min 23 sec) 
Heartbeat CPU 0 instructions: 100000000 cycles: 48565984 heartbeat IPC: 2.03303 cumulative IPC: 2.05905 (Simulation time: 0 hr 2 min 39 sec) 

Warmup complete CPU 0 instructions: 100000001 cycles: 48565985 (Simulation time: 0 hr 2 min 39 sec) 

Heartbeat CPU 0 instructions: 110000000 cycles: 61882741 heartbeat IPC: 0.750934 cumulative IPC: 0.750934 (Simulation time: 0 hr 3 min 2 sec) 
Heartbeat CPU 0 instructions: 120000000 cycles: 75621397 heartbeat IPC: 0.727873 cumulative IPC: 0.739224 (Simulation time: 0 hr 3 min 26 sec) 
Heartbeat CPU 0 instructions: 130000000 cycles: 89362139 heartbeat IPC: 0.727763 cumulative IPC: 0.735363 (Simulation time: 0 hr 3 min 51 sec) 
Heartbeat CPU 0 instructions: 140000000 cycles: 103600043 heartbeat IPC: 0.702351 cumulative IPC: 0.726823 (Simulation time: 0 hr 4 min 15 sec) 
Heartbeat CPU 0 instructions: 150000003 cycles: 116969307 heartbeat IPC: 0.747985 cumulative IPC: 0.730959 (Simulation time: 0 hr 4 min 38 sec) 
Heartbeat CPU 0 instructions: 160000000 cycles: 130702214 heartbeat IPC: 0.728178 cumulative IPC: 0.730494 (Simulation time: 0 hr 5 min 2 sec) 
Heartbeat CPU 0 instructions: 170000001 cycles: 144479721 heartbeat IPC: 0.725821 cumulative IPC: 0.729822 (Simulation time: 0 hr 5 min 27 sec) 
Heartbeat CPU 0 instructions: 180000000 cycles: 158706961 heartbeat IPC: 0.702877 cumulative IPC: 0.726342 (Simulation time: 0 hr 5 min 51 sec) 
Heartbeat CPU 0 instructions: 190000003 cycles: 172011235 heartbeat IPC: 0.751638 cumulative IPC: 0.729068 (Simulation time: 0 hr 6 min 14 sec) 
Heartbeat CPU 0 instructions: 200000000 cycles: 185739085 heartbeat IPC: 0.728446 cumulative IPC: 0.729006 (Simulation time: 0 hr 6 min 39 sec) 
Heartbeat CPU 0 instructions: 210000002 cycles: 199516101 heartbeat IPC: 0.725847 cumulative IPC: 0.728718 (Simulation time: 0 hr 7 min 3 sec) 
Heartbeat CPU 0 instructions: 220000000 cycles: 213730845 heartbeat IPC: 0.703495 cumulative IPC: 0.726547 (Simulation time: 0 hr 7 min 28 sec) 
Heartbeat CPU 0 instructions: 230000001 cycles: 226954691 heartbeat IPC: 0.75621 cumulative IPC: 0.728746 (Simulation time: 0 hr 7 min 50 sec) 
Heartbeat CPU 0 instructions: 240000000 cycles: 240671164 heartbeat IPC: 0.72905 cumulative IPC: 0.728767 (Simulation time: 0 hr 8 min 15 sec) 
Heartbeat CPU 0 instructions: 250000001 cycles: 254392170 heartbeat IPC: 0.72881 cumulative IPC: 0.72877 (Simulation time: 0 hr 8 min 39 sec) 
Heartbeat CPU 0 instructions: 260000000 cycles: 268502562 heartbeat IPC: 0.708697 cumulative IPC: 0.727482 (Simulation time: 0 hr 9 min 4 sec) 
Heartbeat CPU 0 instructions: 270000003 cycles: 281834681 heartbeat IPC: 0.750069 cumulative IPC: 0.728773 (Simulation time: 0 hr 9 min 27 sec) 
Heartbeat CPU 0 instructions: 280000000 cycles: 295565919 heartbeat IPC: 0.728266 cumulative IPC: 0.728745 (Simulation time: 0 hr 9 min 51 sec) 
Heartbeat CPU 0 instructions: 290000001 cycles: 309336774 heartbeat IPC: 0.726171 cumulative IPC: 0.728609 (Simulation time: 0 hr 10 min 16 sec) 
Heartbeat CPU 0 instructions: 300000000 cycles: 323403760 heartbeat IPC: 0.710884 cumulative IPC: 0.727702 (Simulation time: 0 hr 10 min 41 sec) 
Heartbeat CPU 0 instructions: 310000000 cycles: 336771399 heartbeat IPC: 0.748075 cumulative IPC: 0.728647 (Simulation time: 0 hr 11 min 3 sec) 
Heartbeat CPU 0 instructions: 320000000 cycles: 350538223 heartbeat IPC: 0.726384 cumulative IPC: 0.728544 (Simulation time: 0 hr 11 min 28 sec) 
Heartbeat CPU 0 instructions: 330000000 cycles: 364320270 heartbeat IPC: 0.725582 cumulative IPC: 0.728414 (Simulation time: 0 hr 11 min 52 sec) 
Heartbeat CPU 0 instructions: 340000000 cycles: 378363650 heartbeat IPC: 0.712079 cumulative IPC: 0.727719 (Simulation time: 0 hr 12 min 16 sec) 
Heartbeat CPU 0 instructions: 350000000 cycles: 391803265 heartbeat IPC: 0.744069 cumulative IPC: 0.728359 (Simulation time: 0 hr 12 min 38 sec) 
Heartbeat CPU 0 instructions: 360000000 cycles: 405589169 heartbeat IPC: 0.725379 cumulative IPC: 0.728244 (Simulation time: 0 hr 13 min 3 sec) 
Heartbeat CPU 0 instructions: 370000003 cycles: 419372369 heartbeat IPC: 0.725521 cumulative IPC: 0.728143 (Simulation time: 0 hr 13 min 27 sec) 
Heartbeat CPU 0 instructions: 380000000 cycles: 433385111 heartbeat IPC: 0.713636 cumulative IPC: 0.727615 (Simulation time: 0 hr 13 min 51 sec) 
Heartbeat CPU 0 instructions: 390000003 cycles: 446861516 heartbeat IPC: 0.742038 cumulative IPC: 0.728103 (Simulation time: 0 hr 14 min 13 sec) 
Heartbeat CPU 0 instructions: 400000000 cycles: 460639575 heartbeat IPC: 0.725791 cumulative IPC: 0.728025 (Simulation time: 0 hr 14 min 38 sec) 
Heartbeat CPU 0 instructions: 410000000 cycles: 474395569 heartbeat IPC: 0.726956 cumulative IPC: 0.727991 (Simulation time: 0 hr 15 min 2 sec) 
Heartbeat CPU 0 instructions: 420000000 cycles: 488397136 heartbeat IPC: 0.714206 cumulative IPC: 0.727552 (Simulation time: 0 hr 15 min 26 sec) 
Heartbeat CPU 0 instructions: 430000003 cycles: 501881036 heartbeat IPC: 0.741625 cumulative IPC: 0.727971 (Simulation time: 0 hr 15 min 48 sec) 
Heartbeat CPU 0 instructions: 440000000 cycles: 515658149 heartbeat IPC: 0.725841 cumulative IPC: 0.727908 (Simulation time: 0 hr 16 min 12 sec) 
Heartbeat CPU 0 instructions: 450000000 cycles: 529426289 heartbeat IPC: 0.726315 cumulative IPC: 0.727862 (Simulation time: 0 hr 16 min 36 sec) 
Heartbeat CPU 0 instructions: 460000000 cycles: 543402401 heartbeat IPC: 0.715507 cumulative IPC: 0.727513 (Simulation time: 0 hr 17 min 1 sec) 
Heartbeat CPU 0 instructions: 470000001 cycles: 556885824 heartbeat IPC: 0.741652 cumulative IPC: 0.727888 (Simulation time: 0 hr 17 min 23 sec) 
Heartbeat CPU 0 instructions: 480000000 cycles: 570631538 heartbeat IPC: 0.727499 cumulative IPC: 0.727878 (Simulation time: 0 hr 17 min 47 sec) 
Heartbeat CPU 0 instructions: 490000002 cycles: 584377307 heartbeat IPC: 0.727497 cumulative IPC: 0.727868 (Simulation time: 0 hr 18 min 11 sec) 
Heartbeat CPU 0 instructions: 500000000 cycles: 598353103 heartbeat IPC: 0.715523 cumulative IPC: 0.727554 (Simulation time: 0 hr 18 min 35 sec) 
Heartbeat CPU 0 instructions: 510000002 cycles: 611802468 heartbeat IPC: 0.74353 cumulative IPC: 0.727936 (Simulation time: 0 hr 18 min 57 sec) 
Heartbeat CPU 0 instructions: 520000000 cycles: 625542211 heartbeat IPC: 0.727816 cumulative IPC: 0.727933 (Simulation time: 0 hr 19 min 21 sec) 
Heartbeat CPU 0 instructions: 530000003 cycles: 639271969 heartbeat IPC: 0.728345 cumulative IPC: 0.727943 (Simulation time: 0 hr 19 min 45 sec) 
Heartbeat CPU 0 instructions: 540000000 cycles: 653266789 heartbeat IPC: 0.71455 cumulative IPC: 0.727633 (Simulation time: 0 hr 20 min 9 sec) 
Heartbeat CPU 0 instructions: 550000003 cycles: 666731972 heartbeat IPC: 0.742656 cumulative IPC: 0.72796 (Simulation time: 0 hr 20 min 32 sec) 
Heartbeat CPU 0 instructions: 560000000 cycles: 680454459 heartbeat IPC: 0.728731 cumulative IPC: 0.727977 (Simulation time: 0 hr 20 min 56 sec) 
Heartbeat CPU 0 instructions: 570000001 cycles: 694215974 heartbeat IPC: 0.726664 cumulative IPC: 0.727949 (Simulation time: 0 hr 21 min 20 sec) 
Heartbeat CPU 0 instructions: 580000000 cycles: 708236288 heartbeat IPC: 0.713251 cumulative IPC: 0.727636 (Simulation time: 0 hr 21 min 44 sec) 
Heartbeat CPU 0 instructions: 590000000 cycles: 721591067 heartbeat IPC: 0.748796 cumulative IPC: 0.728056 (Simulation time: 0 hr 22 min 6 sec) 
Heartbeat CPU 0 instructions: 600000000 cycles: 735318479 heartbeat IPC: 0.728469 cumulative IPC: 0.728064 (Simulation time: 0 hr 22 min 30 sec) 
Finished CPU 0 instructions: 500000001 cycles: 686752502 cumulative IPC: 0.728064 (Simulation time: 0 hr 22 min 30 sec) 

CPU 0 Branch Prediction Accuracy: 97.5275% MPKI: 2.1997
Number of Branches: 44482865 Number of Mispredictions: 1099852
Number of LOAD Instructions: 144955155
Number of LOAD Instructions (ROI): 144955155
Number of STORE Instructions: 55921098
Number of STORE Instructions (ROI): 55921098
Total Destination Memory Operands: 57111147
Total Destination Memory Operands (ROI): 57111147
Total Source Memory Operands: 144955155
Total Source Memory Operands (ROI): 144955155
Number of DEPENDED LOADS: 13455015
Number of DEPENDED LOADS (ROI): 13455015
Number of SQ_ADDED: 57111126
Number of SQ_ADDED (ROI): 57111126
Number of LQ_ADDED: 174538059
Number of LQ_ADDED (ROI): 174538059
Number of Instructions read from trace: 600000256

ChampSim completed all CPUs

Region of Interest Statistics

CPU 0 cumulative IPC: 0.728064 instructions: 500000001 cycles: 686752502
ITLB TOTAL     ACCESS:  136063777  HIT:  136061224  MISS:       2553
ITLB LOAD      ACCESS:  136063777  HIT:  136061224  MISS:       2553
ITLB RFO       ACCESS:          0  HIT:          0  MISS:          0
ITLB PREFETCH  ACCESS:          0  HIT:          0  MISS:          0
ITLB WRITEBACK ACCESS:          0  HIT:          0  MISS:          0
ITLB PREFETCH  REQUESTED:          0  ISSUED:          0  USEFUL:          0  USELESS:          0
ITLB TOTAL MSHR MERGED:       4394
ITLB LOAD MSHR MERGED:       4394
ITLB RFO MSHR MERGED:          0
ITLB PREFETCH MSHR MERGED:          0
ITLB WRITEBACK MSHR MERGED:          0
ITLB TOTAL ACCESSES:  136068171 HITS:  136061224 MISSES:       6947
ITLB LOAD ACCESSES:  136068171 HITS:  136061224 MISSES:       6947
ITLB RFO ACCESSES:          0 HITS:          0 MISSES:          0
ITLB PREFETCH ACCESSES:          0 HITS:          0 MISSES:          0
ITLB WRITEBACK ACCESSES:          0 HITS:          0 MISSES:          0
ITLB RQ ACCESS:  500000202
ITLB RQ TO_CACHE:  136068171
ITLB RQ MERGED:  363932031
ITLB RQ FORWARD:          0
ITLB WQ ACCESS:          0
ITLB WQ TO_CACHE:          0
ITLB WQ MERGED:          0
ITLB WQ FORWARD:          0
DTLB TOTAL     ACCESS:  111536281  HIT:  111400089  MISS:     136192
DTLB LOAD      ACCESS:   78942649  HIT:   78817026  MISS:     125623
DTLB RFO       ACCESS:   32593632  HIT:   32583063  MISS:      10569
DTLB PREFETCH  ACCESS:          0  HIT:          0  MISS:          0
DTLB WRITEBACK ACCESS:          0  HIT:          0  MISS:          0
DTLB PREFETCH  REQUESTED:          0  ISSUED:          0  USEFUL:          0  USELESS:          0
DTLB TOTAL MSHR MERGED:      63591
DTLB LOAD MSHR MERGED:      51001
DTLB RFO MSHR MERGED:      12590
DTLB PREFETCH MSHR MERGED:          0
DTLB WRITEBACK MSHR MERGED:          0
DTLB TOTAL ACCESSES:  111599872 HITS:  111400089 MISSES:     199783
DTLB LOAD ACCESSES:   78993650 HITS:   78817026 MISSES:     176624
DTLB RFO ACCESSES:   32606222 HITS:   32583063 MISSES:      23159
DTLB PREFETCH ACCESSES:          0 HITS:          0 MISSES:          0
DTLB WRITEBACK ACCESSES:          0 HITS:          0 MISSES:          0
DTLB RQ ACCESS:  157180444
DTLB RQ TO_CACHE:  111599872
DTLB RQ MERGED:   45580572
DTLB RQ FORWARD:          0
DTLB WQ ACCESS:          0
DTLB WQ TO_CACHE:          0
DTLB WQ MERGED:          0
DTLB WQ FORWARD:          0
L1D TOTAL     ACCESS:  198149900  HIT:  188308943  MISS:    9840957
L1D LOAD      ACCESS:   79937329  HIT:   75668892  MISS:    4268437
L1D RFO       ACCESS:   44492817  HIT:   43592339  MISS:     900478
L1D PREFETCH  ACCESS:   73719754  HIT:   69047712  MISS:    4672042
L1D WRITEBACK ACCESS:          0  HIT:          0  MISS:          0
L1D PREFETCH  REQUESTED:   80338672  ISSUED:   79882692  USEFUL:    1813791  USELESS:    2858160
L1D TOTAL MSHR MERGED:    2567709
L1D LOAD MSHR MERGED:     530648
L1D RFO MSHR MERGED:    1459903
L1D PREFETCH MSHR MERGED:     577158
L1D WRITEBACK MSHR MERGED:          0
L1D TOTAL ACCESSES:  200739304 HITS:  188330638 MISSES:   12408666
L1D LOAD ACCESSES:   80351770 HITS:   75681990 MISSES:    4669780
L1D RFO ACCESSES:   45949632 HITS:   43592339 MISSES:    2357293
L1D PREFETCH ACCESSES:   74437902 HITS:   69056309 MISSES:    5381593
L1D WRITEBACK ACCESSES:          0 HITS:          0 MISSES:          0
L1D RQ ACCESS:  109538474
L1D RQ TO_CACHE:   80338672
L1D RQ MERGED:   29186704
L1D RQ FORWARD:          0
L1D WQ ACCESS:   47641970
L1D WQ TO_CACHE:   45949632
L1D WQ MERGED:    1692338
L1D WQ FORWARD:      21695
L1I TOTAL     ACCESS:  161537273  HIT:  161273298  MISS:     263975
L1I LOAD      ACCESS:  161537273  HIT:  161273298  MISS:     263975
L1I RFO       ACCESS:          0  HIT:          0  MISS:          0
L1I PREFETCH  ACCESS:          0  HIT:          0  MISS:          0
L1I WRITEBACK ACCESS:          0  HIT:          0  MISS:          0
L1I PREFETCH  REQUESTED:          0  ISSUED:          0  USEFUL:          0  USELESS:          0
L1I TOTAL MSHR MERGED:     259243
L1I LOAD MSHR MERGED:     259243
L1I RFO MSHR MERGED:          0
L1I PREFETCH MSHR MERGED:          0
L1I WRITEBACK MSHR MERGED:          0
L1I TOTAL ACCESSES:  161796516 HITS:  161273298 MISSES:     523218
L1I LOAD ACCESSES:  161796516 HITS:  161273298 MISSES:     523218
L1I RFO ACCESSES:          0 HITS:          0 MISSES:          0
L1I PREFETCH ACCESSES:          0 HITS:          0 MISSES:          0
L1I WRITEBACK ACCESSES:          0 HITS:          0 MISSES:          0
L1I RQ ACCESS:  500000202
L1I RQ TO_CACHE:  161796516
L1I RQ MERGED:  338203686
L1I RQ FORWARD:          0
L1I WQ ACCESS:          0
L1I WQ TO_CACHE:          0
L1I WQ MERGED:          0
L1I WQ FORWARD:          0
L2C TOTAL     ACCESS:   11771375  HIT:   10382097  MISS:    1389278
L2C LOAD      ACCESS:    4403041  HIT:    3906166  MISS:     496875
L2C RFO       ACCESS:     897322  HIT:     536240  MISS:     361082
L2C PREFETCH  ACCESS:    5283520  HIT:    4755137  MISS:     528383
L2C WRITEBACK ACCESS:    1187492  HIT:    1184554  MISS:       2938
L2C PREFETCH  REQUESTED:     504636  ISSUED:     504636  USEFUL:     114861  USELESS:     413715
L2C TOTAL MSHR MERGED:       2168
L2C LOAD MSHR MERGED:        419
L2C RFO MSHR MERGED:          0
L2C PREFETCH MSHR MERGED:       1749
L2C WRITEBACK MSHR MERGED:          0
L2C TOTAL ACCESSES:   11776407 HITS:   10382314 MISSES:    1394093
L2C LOAD ACCESSES:    4403107 HITS:    3906232 MISSES:     496875
L2C RFO ACCESSES:     897390 HITS:     536308 MISSES:     361082
L2C PREFETCH ACCESSES:    5288418 HITS:    4755220 MISSES:     533198
L2C WRITEBACK ACCESSES:    1187492 HITS:    1184554 MISSES:       2938
L2C RQ ACCESS:    5300497
L2C RQ TO_CACHE:    5300363
L2C RQ MERGED:          0
L2C RQ FORWARD:          0
L2C WQ ACCESS:    1187492
L2C WQ TO_CACHE:    1187492
L2C WQ MERGED:          0
L2C WQ FORWARD:        217
LLC TOTAL     ACCESS:    1849593  HIT:    1020837  MISS:     828756
LLC LOAD      ACCESS:     496454  HIT:     301642  MISS:     194812
LLC RFO       ACCESS:     361076  HIT:     152606  MISS:     208470
LLC PREFETCH  ACCESS:     531339  HIT:     299365  MISS:     231974
LLC WRITEBACK ACCESS:     460724  HIT:     267224  MISS:     193500
LLC PREFETCH  REQUESTED:          0  ISSUED:          0  USEFUL:       4358  USELESS:     227701
LLC TOTAL MSHR MERGED:         76
LLC LOAD MSHR MERGED:         29
LLC RFO MSHR MERGED:          0
LLC PREFETCH MSHR MERGED:         47
LLC WRITEBACK MSHR MERGED:          0
LLC TOTAL ACCESSES:    1849696 HITS:    1020864 MISSES:     828832
LLC LOAD ACCESSES:     496456 HITS:     301644 MISSES:     194812
LLC RFO ACCESSES:     361082 HITS:     152612 MISSES:     208470
LLC PREFETCH ACCESSES:     531434 HITS:     299384 MISSES:     232050
LLC WRITEBACK ACCESSES:     460724 HITS:     267224 MISSES:     193500
LLC 0 RQ ACCESS:     857538
LLC 0 RQ TO_CACHE:     857530
LLC 0 RQ MERGED:          0
LLC 0 RQ FORWARD:          0
LLC WQ ACCESS:     460724
LLC WQ TO_CACHE:     460724
LLC WQ MERGED:          0
LLC WQ FORWARD:         27
Major fault: 0 Minor fault: 3073
CPU 0 L1D next line prefetcher final stats
CPU 0 L2C PC-based stride prefetcher final stats
All Misses: 1000059
All Hits: 1176225
SD Algo Stats - Switches: 0 SRR-Repls: 233225 BRR-Repls: 0

DRAM Statistics
 CHANNEL 0
 RQ ROW_BUFFER_HIT:     382143  ROW_BUFFER_MISS:     252644
 DBUS_CONGESTED:     508053
 WQ ROW_BUFFER_HIT:      38467  ROW_BUFFER_MISS:     189717  FULL:          0

 AVG_CONGESTED_CYCLE: 13
LOADS RETIRED: 120673965
INSTR RETIRED: 500000000
