
*** ChampSim Multicore Out-of-Order Simulator ***

Warmup Instructions: 100000000
Simulation Instructions: 500000000
Number of CPUs: 1
LLC sets: 2048
LLC ways: 16
Clean RRIP Policies: 1213230112132301 Dirty RRIP Policies: 2213031122130311 PSEL Width: 10 Track Set: 4294967295 PSEL Mask: 1 Demote Mask: 1340013113400131DS Algo: 0Window size: 0
Off-chip DRAM Size: 4096 MB Channels: 1 Width: 64-bit Data Rate: 1600 MT/s

CPU 0 runs /mnt/beegfs/iconst01/spec2017/Gcc.trace.gz
NOT SORTED
TRACE STRING: /mnt/beegfs/iconst01/spec2017/Gcc.trace.gz
SORTED
TRACE STRING: /mnt/beegfs/iconst01/spec2017/Gcc.trace.gz
INITIAL
TRACE STRING: /mnt/beegfs/iconst01/spec2017/Gcc.trace.gz

champsim_seed used: 269

CPU 0 L1D next line prefetcher
CPU 0 L2C IP-based stride prefetcher
Initialize DRRIP state
Assign rand_sets[0]: 454  LLC: 2048
rand_sets[0]: 454
Assign rand_sets[1]: 1662  LLC: 2048
rand_sets[1]: 1662
Assign rand_sets[2]: 1921  LLC: 2048
rand_sets[2]: 1921
Assign rand_sets[3]: 1131  LLC: 2048
rand_sets[3]: 1131
Assign rand_sets[4]: 331  LLC: 2048
rand_sets[4]: 331
Assign rand_sets[5]: 1531  LLC: 2048
rand_sets[5]: 1531
Assign rand_sets[6]: 482  LLC: 2048
rand_sets[6]: 482
Assign rand_sets[7]: 1275  LLC: 2048
rand_sets[7]: 1275
Assign rand_sets[8]: 1876  LLC: 2048
rand_sets[8]: 1876
Assign rand_sets[9]: 2038  LLC: 2048
rand_sets[9]: 2038
Assign rand_sets[10]: 701  LLC: 2048
rand_sets[10]: 701
Assign rand_sets[11]: 479  LLC: 2048
rand_sets[11]: 479
Assign rand_sets[12]: 892  LLC: 2048
rand_sets[12]: 892
Assign rand_sets[13]: 1820  LLC: 2048
rand_sets[13]: 1820
Assign rand_sets[14]: 1505  LLC: 2048
rand_sets[14]: 1505
Assign rand_sets[15]: 1159  LLC: 2048
rand_sets[15]: 1159
Assign rand_sets[16]: 513  LLC: 2048
rand_sets[16]: 513
Assign rand_sets[17]: 703  LLC: 2048
rand_sets[17]: 703
Assign rand_sets[18]: 561  LLC: 2048
rand_sets[18]: 561
Assign rand_sets[19]: 990  LLC: 2048
rand_sets[19]: 990
Assign rand_sets[20]: 342  LLC: 2048
rand_sets[20]: 342
Assign rand_sets[21]: 882  LLC: 2048
rand_sets[21]: 882
Assign rand_sets[22]: 15  LLC: 2048
rand_sets[22]: 15
Assign rand_sets[23]: 71  LLC: 2048
rand_sets[23]: 71
Assign rand_sets[24]: 1127  LLC: 2048
rand_sets[24]: 1127
Assign rand_sets[25]: 1382  LLC: 2048
rand_sets[25]: 1382
Assign rand_sets[26]: 647  LLC: 2048
rand_sets[26]: 647
Assign rand_sets[27]: 857  LLC: 2048
rand_sets[27]: 857
Assign rand_sets[28]: 1450  LLC: 2048
rand_sets[28]: 1450
Assign rand_sets[29]: 1160  LLC: 2048
rand_sets[29]: 1160
Assign rand_sets[30]: 1852  LLC: 2048
rand_sets[30]: 1852
Assign rand_sets[31]: 1881  LLC: 2048
rand_sets[31]: 1881
Assign rand_sets[32]: 1770  LLC: 2048
rand_sets[32]: 1770
Assign rand_sets[33]: 1622  LLC: 2048
rand_sets[33]: 1622
Assign rand_sets[34]: 275  LLC: 2048
rand_sets[34]: 275
Assign rand_sets[35]: 635  LLC: 2048
rand_sets[35]: 635
Assign rand_sets[36]: 466  LLC: 2048
rand_sets[36]: 466
Assign rand_sets[37]: 1413  LLC: 2048
rand_sets[37]: 1413
Assign rand_sets[38]: 417  LLC: 2048
rand_sets[38]: 417
Assign rand_sets[39]: 472  LLC: 2048
rand_sets[39]: 472
Assign rand_sets[40]: 1340  LLC: 2048
rand_sets[40]: 1340
Assign rand_sets[41]: 852  LLC: 2048
rand_sets[41]: 852
Assign rand_sets[42]: 1365  LLC: 2048
rand_sets[42]: 1365
Assign rand_sets[43]: 47  LLC: 2048
rand_sets[43]: 47
Assign rand_sets[44]: 823  LLC: 2048
rand_sets[44]: 823
Assign rand_sets[45]: 686  LLC: 2048
rand_sets[45]: 686
Assign rand_sets[46]: 1637  LLC: 2048
rand_sets[46]: 1637
Assign rand_sets[47]: 1115  LLC: 2048
rand_sets[47]: 1115
Assign rand_sets[48]: 986  LLC: 2048
rand_sets[48]: 986
Assign rand_sets[49]: 258  LLC: 2048
rand_sets[49]: 258
Assign rand_sets[50]: 633  LLC: 2048
rand_sets[50]: 633
Assign rand_sets[51]: 920  LLC: 2048
rand_sets[51]: 920
Assign rand_sets[52]: 204  LLC: 2048
rand_sets[52]: 204
Assign rand_sets[53]: 227  LLC: 2048
rand_sets[53]: 227
Assign rand_sets[54]: 1818  LLC: 2048
rand_sets[54]: 1818
Assign rand_sets[55]: 886  LLC: 2048
rand_sets[55]: 886
Assign rand_sets[56]: 1422  LLC: 2048
rand_sets[56]: 1422
Assign rand_sets[57]: 607  LLC: 2048
rand_sets[57]: 607
Assign rand_sets[58]: 217  LLC: 2048
rand_sets[58]: 217
Assign rand_sets[59]: 1945  LLC: 2048
rand_sets[59]: 1945
Assign rand_sets[60]: 143  LLC: 2048
rand_sets[60]: 143
Assign rand_sets[61]: 1311  LLC: 2048
rand_sets[61]: 1311
Assign rand_sets[62]: 319  LLC: 2048
rand_sets[62]: 319
Assign rand_sets[63]: 1846  LLC: 2048
rand_sets[63]: 1846
 CLEAN-RRIP-POLICY-1: 1-2-1-3-2-3-0-1- CLEAN-RRIP-POLICY-2: 1-2-1-3-2-3-0-1-
 DIRTY-RRIP-POLICY-1: 2-2-1-3-0-3-1-1- DIRTY-RRIP-POLICY-2: 2-2-1-3-0-3-1-1-
 PSEL width: 10
Heartbeat CPU 0 instructions: 10000001 cycles: 7315983 heartbeat IPC: 1.36687 cumulative IPC: 1.36687 (Simulation time: 0 hr 0 min 13 sec) 
Heartbeat CPU 0 instructions: 20000000 cycles: 14307414 heartbeat IPC: 1.43032 cumulative IPC: 1.39788 (Simulation time: 0 hr 0 min 27 sec) 
Heartbeat CPU 0 instructions: 30000001 cycles: 21020290 heartbeat IPC: 1.48967 cumulative IPC: 1.42719 (Simulation time: 0 hr 0 min 42 sec) 
Heartbeat CPU 0 instructions: 40000000 cycles: 27481101 heartbeat IPC: 1.54779 cumulative IPC: 1.45555 (Simulation time: 0 hr 0 min 57 sec) 
Heartbeat CPU 0 instructions: 50000001 cycles: 33582822 heartbeat IPC: 1.63888 cumulative IPC: 1.48886 (Simulation time: 0 hr 1 min 11 sec) 
Heartbeat CPU 0 instructions: 60000000 cycles: 40063963 heartbeat IPC: 1.54294 cumulative IPC: 1.49761 (Simulation time: 0 hr 1 min 26 sec) 
Heartbeat CPU 0 instructions: 70000000 cycles: 47102223 heartbeat IPC: 1.42081 cumulative IPC: 1.48613 (Simulation time: 0 hr 1 min 40 sec) 
Heartbeat CPU 0 instructions: 80000000 cycles: 54191730 heartbeat IPC: 1.41054 cumulative IPC: 1.47624 (Simulation time: 0 hr 1 min 53 sec) 
Heartbeat CPU 0 instructions: 90000003 cycles: 61196045 heartbeat IPC: 1.42769 cumulative IPC: 1.47068 (Simulation time: 0 hr 2 min 7 sec) 
Heartbeat CPU 0 instructions: 100000000 cycles: 68363142 heartbeat IPC: 1.39526 cumulative IPC: 1.46278 (Simulation time: 0 hr 2 min 21 sec) 

Warmup complete CPU 0 instructions: 100000004 cycles: 68363143 (Simulation time: 0 hr 2 min 21 sec) 

Heartbeat CPU 0 instructions: 110000003 cycles: 95985225 heartbeat IPC: 0.362029 cumulative IPC: 0.362029 (Simulation time: 0 hr 2 min 46 sec) 
Heartbeat CPU 0 instructions: 120000000 cycles: 123437244 heartbeat IPC: 0.364272 cumulative IPC: 0.363147 (Simulation time: 0 hr 3 min 12 sec) 
Heartbeat CPU 0 instructions: 130000000 cycles: 148412638 heartbeat IPC: 0.400394 cumulative IPC: 0.374768 (Simulation time: 0 hr 3 min 38 sec) 
Heartbeat CPU 0 instructions: 140000000 cycles: 177866450 heartbeat IPC: 0.339515 cumulative IPC: 0.365286 (Simulation time: 0 hr 4 min 3 sec) 
Heartbeat CPU 0 instructions: 150000000 cycles: 207694150 heartbeat IPC: 0.335259 cumulative IPC: 0.358858 (Simulation time: 0 hr 4 min 29 sec) 
Heartbeat CPU 0 instructions: 160000000 cycles: 235098009 heartbeat IPC: 0.364912 cumulative IPC: 0.359853 (Simulation time: 0 hr 4 min 54 sec) 
Heartbeat CPU 0 instructions: 170000001 cycles: 263100074 heartbeat IPC: 0.357117 cumulative IPC: 0.359459 (Simulation time: 0 hr 5 min 21 sec) 
Heartbeat CPU 0 instructions: 180000000 cycles: 291537475 heartbeat IPC: 0.35165 cumulative IPC: 0.358464 (Simulation time: 0 hr 5 min 48 sec) 
Heartbeat CPU 0 instructions: 190000002 cycles: 319532657 heartbeat IPC: 0.357204 cumulative IPC: 0.358324 (Simulation time: 0 hr 6 min 13 sec) 
Heartbeat CPU 0 instructions: 200000000 cycles: 347843985 heartbeat IPC: 0.353215 cumulative IPC: 0.357806 (Simulation time: 0 hr 6 min 40 sec) 
Heartbeat CPU 0 instructions: 210000002 cycles: 375652487 heartbeat IPC: 0.359602 cumulative IPC: 0.357969 (Simulation time: 0 hr 7 min 6 sec) 
Heartbeat CPU 0 instructions: 220000000 cycles: 404719684 heartbeat IPC: 0.34403 cumulative IPC: 0.356764 (Simulation time: 0 hr 7 min 31 sec) 
Heartbeat CPU 0 instructions: 230000000 cycles: 432234486 heartbeat IPC: 0.363441 cumulative IPC: 0.357269 (Simulation time: 0 hr 7 min 56 sec) 
Heartbeat CPU 0 instructions: 240000000 cycles: 458170338 heartbeat IPC: 0.385567 cumulative IPC: 0.359152 (Simulation time: 0 hr 8 min 21 sec) 
Heartbeat CPU 0 instructions: 250000000 cycles: 488282406 heartbeat IPC: 0.332093 cumulative IPC: 0.357212 (Simulation time: 0 hr 8 min 48 sec) 
Heartbeat CPU 0 instructions: 260000000 cycles: 515386915 heartbeat IPC: 0.368942 cumulative IPC: 0.357923 (Simulation time: 0 hr 9 min 13 sec) 
Heartbeat CPU 0 instructions: 270000003 cycles: 543793582 heartbeat IPC: 0.35203 cumulative IPC: 0.357571 (Simulation time: 0 hr 9 min 40 sec) 
Heartbeat CPU 0 instructions: 280000000 cycles: 571950922 heartbeat IPC: 0.355147 cumulative IPC: 0.357435 (Simulation time: 0 hr 10 min 7 sec) 
Heartbeat CPU 0 instructions: 290000000 cycles: 600815094 heartbeat IPC: 0.34645 cumulative IPC: 0.35684 (Simulation time: 0 hr 10 min 35 sec) 
Heartbeat CPU 0 instructions: 300000000 cycles: 630651478 heartbeat IPC: 0.335161 cumulative IPC: 0.355689 (Simulation time: 0 hr 11 min 0 sec) 
Heartbeat CPU 0 instructions: 310000001 cycles: 659985292 heartbeat IPC: 0.340904 cumulative IPC: 0.354956 (Simulation time: 0 hr 11 min 26 sec) 
Heartbeat CPU 0 instructions: 320000000 cycles: 688137177 heartbeat IPC: 0.355216 cumulative IPC: 0.354968 (Simulation time: 0 hr 11 min 51 sec) 
Heartbeat CPU 0 instructions: 330000000 cycles: 716723654 heartbeat IPC: 0.349816 cumulative IPC: 0.354741 (Simulation time: 0 hr 12 min 16 sec) 
Heartbeat CPU 0 instructions: 340000000 cycles: 745957556 heartbeat IPC: 0.342069 cumulative IPC: 0.354194 (Simulation time: 0 hr 12 min 42 sec) 
Heartbeat CPU 0 instructions: 350000003 cycles: 772954723 heartbeat IPC: 0.370409 cumulative IPC: 0.354815 (Simulation time: 0 hr 13 min 6 sec) 
Heartbeat CPU 0 instructions: 360000000 cycles: 801035666 heartbeat IPC: 0.356113 cumulative IPC: 0.354865 (Simulation time: 0 hr 13 min 31 sec) 
Heartbeat CPU 0 instructions: 370000000 cycles: 829226531 heartbeat IPC: 0.354725 cumulative IPC: 0.35486 (Simulation time: 0 hr 13 min 55 sec) 
Heartbeat CPU 0 instructions: 380000000 cycles: 857733729 heartbeat IPC: 0.350789 cumulative IPC: 0.354713 (Simulation time: 0 hr 14 min 19 sec) 
Heartbeat CPU 0 instructions: 390000001 cycles: 885346350 heartbeat IPC: 0.362153 cumulative IPC: 0.354964 (Simulation time: 0 hr 14 min 43 sec) 
Heartbeat CPU 0 instructions: 400000000 cycles: 913978627 heartbeat IPC: 0.349256 cumulative IPC: 0.354771 (Simulation time: 0 hr 15 min 7 sec) 
Heartbeat CPU 0 instructions: 410000001 cycles: 941290240 heartbeat IPC: 0.366145 cumulative IPC: 0.355127 (Simulation time: 0 hr 15 min 31 sec) 
Heartbeat CPU 0 instructions: 420000000 cycles: 968614202 heartbeat IPC: 0.365979 cumulative IPC: 0.355456 (Simulation time: 0 hr 15 min 55 sec) 
Heartbeat CPU 0 instructions: 430000002 cycles: 996298950 heartbeat IPC: 0.36121 cumulative IPC: 0.355628 (Simulation time: 0 hr 16 min 19 sec) 
Heartbeat CPU 0 instructions: 440000000 cycles: 1025784743 heartbeat IPC: 0.339146 cumulative IPC: 0.35512 (Simulation time: 0 hr 16 min 43 sec) 
Heartbeat CPU 0 instructions: 450000002 cycles: 1055010996 heartbeat IPC: 0.342158 cumulative IPC: 0.354736 (Simulation time: 0 hr 17 min 8 sec) 
Heartbeat CPU 0 instructions: 460000000 cycles: 1082711474 heartbeat IPC: 0.361005 cumulative IPC: 0.354908 (Simulation time: 0 hr 17 min 32 sec) 
Heartbeat CPU 0 instructions: 470000000 cycles: 1110351102 heartbeat IPC: 0.361799 cumulative IPC: 0.35509 (Simulation time: 0 hr 17 min 55 sec) 
Heartbeat CPU 0 instructions: 480000000 cycles: 1138240132 heartbeat IPC: 0.358564 cumulative IPC: 0.355181 (Simulation time: 0 hr 18 min 19 sec) 
Heartbeat CPU 0 instructions: 490000000 cycles: 1165835241 heartbeat IPC: 0.362383 cumulative IPC: 0.355362 (Simulation time: 0 hr 18 min 43 sec) 
Heartbeat CPU 0 instructions: 500000000 cycles: 1194104881 heartbeat IPC: 0.353736 cumulative IPC: 0.355321 (Simulation time: 0 hr 19 min 7 sec) 
Heartbeat CPU 0 instructions: 510000000 cycles: 1229130571 heartbeat IPC: 0.285505 cumulative IPC: 0.353215 (Simulation time: 0 hr 19 min 35 sec) 
Heartbeat CPU 0 instructions: 520000000 cycles: 1257106436 heartbeat IPC: 0.357451 cumulative IPC: 0.353314 (Simulation time: 0 hr 20 min 0 sec) 
Heartbeat CPU 0 instructions: 530000001 cycles: 1286433062 heartbeat IPC: 0.340987 cumulative IPC: 0.353018 (Simulation time: 0 hr 20 min 25 sec) 
Heartbeat CPU 0 instructions: 540000000 cycles: 1314461616 heartbeat IPC: 0.356779 cumulative IPC: 0.353102 (Simulation time: 0 hr 20 min 50 sec) 
Heartbeat CPU 0 instructions: 550000001 cycles: 1343657150 heartbeat IPC: 0.342518 cumulative IPC: 0.35286 (Simulation time: 0 hr 21 min 16 sec) 
Heartbeat CPU 0 instructions: 560000000 cycles: 1369039415 heartbeat IPC: 0.393976 cumulative IPC: 0.353662 (Simulation time: 0 hr 21 min 41 sec) 
Heartbeat CPU 0 instructions: 570000000 cycles: 1398484362 heartbeat IPC: 0.339617 cumulative IPC: 0.353351 (Simulation time: 0 hr 22 min 6 sec) 
Heartbeat CPU 0 instructions: 580000000 cycles: 1426421786 heartbeat IPC: 0.357943 cumulative IPC: 0.353446 (Simulation time: 0 hr 22 min 31 sec) 
Heartbeat CPU 0 instructions: 590000001 cycles: 1451193843 heartbeat IPC: 0.403681 cumulative IPC: 0.354346 (Simulation time: 0 hr 22 min 55 sec) 
Heartbeat CPU 0 instructions: 600000000 cycles: 1477299599 heartbeat IPC: 0.383057 cumulative IPC: 0.354878 (Simulation time: 0 hr 23 min 19 sec) 
Finished CPU 0 instructions: 500000000 cycles: 1408936478 cumulative IPC: 0.354878 (Simulation time: 0 hr 23 min 19 sec) 

CPU 0 Branch Prediction Accuracy: 86.4311% MPKI: 26.2662
Number of Branches: 96788573 Number of Mispredictions: 13133102
Number of LOAD Instructions: 164682285
Number of LOAD Instructions (ROI): 164682285
Number of STORE Instructions: 78194750
Number of STORE Instructions (ROI): 78194750
Total Destination Memory Operands: 83268534
Total Destination Memory Operands (ROI): 83268534
Total Source Memory Operands: 164712438
Total Source Memory Operands (ROI): 164712438
Number of DEPENDED LOADS: 7061069
Number of DEPENDED LOADS (ROI): 7061069
Number of SQ_ADDED: 83268522
Number of SQ_ADDED (ROI): 83268522
Number of LQ_ADDED: 236760612
Number of LQ_ADDED (ROI): 236760612
Number of Instructions read from trace: 600000066

ChampSim completed all CPUs

Region of Interest Statistics

CPU 0 cumulative IPC: 0.354878 instructions: 500000000 cycles: 1408936478
ITLB TOTAL     ACCESS:  100512125  HIT:  100307679  MISS:     204446
ITLB LOAD      ACCESS:  100512125  HIT:  100307679  MISS:     204446
ITLB RFO       ACCESS:          0  HIT:          0  MISS:          0
ITLB PREFETCH  ACCESS:          0  HIT:          0  MISS:          0
ITLB WRITEBACK ACCESS:          0  HIT:          0  MISS:          0
ITLB PREFETCH  REQUESTED:          0  ISSUED:          0  USEFUL:          0  USELESS:          0
ITLB TOTAL MSHR MERGED:     172426
ITLB LOAD MSHR MERGED:     172426
ITLB RFO MSHR MERGED:          0
ITLB PREFETCH MSHR MERGED:          0
ITLB WRITEBACK MSHR MERGED:          0
ITLB TOTAL ACCESSES:  100684551 HITS:  100307679 MISSES:     376872
ITLB LOAD ACCESSES:  100684551 HITS:  100307679 MISSES:     376872
ITLB RFO ACCESSES:          0 HITS:          0 MISSES:          0
ITLB PREFETCH ACCESSES:          0 HITS:          0 MISSES:          0
ITLB WRITEBACK ACCESSES:          0 HITS:          0 MISSES:          0
ITLB RQ ACCESS:  500000057
ITLB RQ TO_CACHE:  100684551
ITLB RQ MERGED:  399315506
ITLB RQ FORWARD:          0
ITLB WQ ACCESS:          0
ITLB WQ TO_CACHE:          0
ITLB WQ MERGED:          0
ITLB WQ FORWARD:          0
DTLB TOTAL     ACCESS:  165335083  HIT:  164700736  MISS:     634347
DTLB LOAD      ACCESS:  106291103  HIT:  105721107  MISS:     569996
DTLB RFO       ACCESS:   59043980  HIT:   58979629  MISS:      64351
DTLB PREFETCH  ACCESS:          0  HIT:          0  MISS:          0
DTLB WRITEBACK ACCESS:          0  HIT:          0  MISS:          0
DTLB PREFETCH  REQUESTED:          0  ISSUED:          0  USEFUL:          0  USELESS:          0
DTLB TOTAL MSHR MERGED:     100005
DTLB LOAD MSHR MERGED:      59459
DTLB RFO MSHR MERGED:      40546
DTLB PREFETCH MSHR MERGED:          0
DTLB WRITEBACK MSHR MERGED:          0
DTLB TOTAL ACCESSES:  165435088 HITS:  164700736 MISSES:     734352
DTLB LOAD ACCESSES:  106350562 HITS:  105721107 MISSES:     629455
DTLB RFO ACCESSES:   59084526 HITS:   58979629 MISSES:     104897
DTLB PREFETCH ACCESSES:          0 HITS:          0 MISSES:          0
DTLB WRITEBACK ACCESSES:          0 HITS:          0 MISSES:          0
DTLB RQ ACCESS:  200309837
DTLB RQ TO_CACHE:  165435088
DTLB RQ MERGED:   34874749
DTLB RQ FORWARD:          0
DTLB WQ ACCESS:          0
DTLB WQ TO_CACHE:          0
DTLB WQ MERGED:          0
DTLB WQ FORWARD:          0
L1D TOTAL     ACCESS:  281808167  HIT:  273898882  MISS:    7909285
L1D LOAD      ACCESS:  110414098  HIT:  107135574  MISS:    3278524
L1D RFO       ACCESS:   67105249  HIT:   66214120  MISS:     891129
L1D PREFETCH  ACCESS:  104288820  HIT:  100549188  MISS:    3739632
L1D WRITEBACK ACCESS:          0  HIT:          0  MISS:          0
L1D PREFETCH  REQUESTED:  110815495  ISSUED:  109116204  USEFUL:    1660434  USELESS:    2079162
L1D TOTAL MSHR MERGED:    2892741
L1D LOAD MSHR MERGED:     499369
L1D RFO MSHR MERGED:    1881100
L1D PREFETCH MSHR MERGED:     512272
L1D WRITEBACK MSHR MERGED:          0
L1D TOTAL ACCESSES:  284728434 HITS:  273926408 MISSES:   10802026
L1D LOAD ACCESSES:  110817011 HITS:  107137090 MISSES:    3679921
L1D RFO ACCESSES:   68974018 HITS:   66214120 MISSES:    2759898
L1D PREFETCH ACCESSES:  104937405 HITS:  100575198 MISSES:    4362207
L1D WRITEBACK ACCESSES:          0 HITS:          0 MISSES:          0
L1D RQ ACCESS:  130757234
L1D RQ TO_CACHE:  110815498
L1D RQ MERGED:   19940220
L1D RQ FORWARD:          0
L1D WQ ACCESS:   69552603
L1D WQ TO_CACHE:   68974019
L1D WQ MERGED:     578584
L1D WQ FORWARD:      27526
L1I TOTAL     ACCESS:  126559841  HIT:  122321288  MISS:    4238553
L1I LOAD      ACCESS:  126559841  HIT:  122321288  MISS:    4238553
L1I RFO       ACCESS:          0  HIT:          0  MISS:          0
L1I PREFETCH  ACCESS:          0  HIT:          0  MISS:          0
L1I WRITEBACK ACCESS:          0  HIT:          0  MISS:          0
L1I PREFETCH  REQUESTED:          0  ISSUED:          0  USEFUL:          0  USELESS:          0
L1I TOTAL MSHR MERGED:    1834554
L1I LOAD MSHR MERGED:    1834554
L1I RFO MSHR MERGED:          0
L1I PREFETCH MSHR MERGED:          0
L1I WRITEBACK MSHR MERGED:          0
L1I TOTAL ACCESSES:  128394398 HITS:  122321288 MISSES:    6073110
L1I LOAD ACCESSES:  128394398 HITS:  122321288 MISSES:    6073110
L1I RFO ACCESSES:          0 HITS:          0 MISSES:          0
L1I PREFETCH ACCESSES:          0 HITS:          0 MISSES:          0
L1I WRITEBACK ACCESSES:          0 HITS:          0 MISSES:          0
L1I RQ ACCESS:  500000057
L1I RQ TO_CACHE:  128394398
L1I RQ MERGED:  371605659
L1I RQ FORWARD:          0
L1I WQ ACCESS:          0
L1I WQ TO_CACHE:          0
L1I WQ MERGED:          0
L1I WQ FORWARD:          0
L2C TOTAL     ACCESS:   14904483  HIT:   11158008  MISS:    3746475
L2C LOAD      ACCESS:    7418898  HIT:    5098653  MISS:    2320245
L2C RFO       ACCESS:     878701  HIT:     409901  MISS:     468800
L2C PREFETCH  ACCESS:    4567655  HIT:    3627482  MISS:     940173
L2C WRITEBACK ACCESS:    2039229  HIT:    2021972  MISS:      17257
L2C PREFETCH  REQUESTED:     842739  ISSUED:     842739  USEFUL:     203163  USELESS:     736716
L2C TOTAL MSHR MERGED:       7710
L2C LOAD MSHR MERGED:        990
L2C RFO MSHR MERGED:          1
L2C PREFETCH MSHR MERGED:       6719
L2C WRITEBACK MSHR MERGED:          0
L2C TOTAL ACCESSES:   14913079 HITS:   11158455 MISSES:    3754624
L2C LOAD ACCESSES:    7419105 HITS:    5098860 MISSES:    2320245
L2C RFO ACCESSES:     878798 HITS:     409998 MISSES:     468800
L2C PREFETCH ACCESSES:    4575947 HITS:    3627625 MISSES:     948322
L2C WRITEBACK ACCESSES:    2039229 HITS:    2021972 MISSES:      17257
L2C RQ ACCESS:    8297906
L2C RQ TO_CACHE:    8297602
L2C RQ MERGED:          0
L2C RQ FORWARD:          0
L2C WQ ACCESS:    2039229
L2C WQ TO_CACHE:    2039229
L2C WQ MERGED:          0
L2C WQ FORWARD:        447
LLC TOTAL     ACCESS:    4609802  HIT:    3915541  MISS:     694261
LLC LOAD      ACCESS:    2319241  HIT:    2087075  MISS:     232166
LLC RFO       ACCESS:     468789  HIT:     380933  MISS:      87856
LLC PREFETCH  ACCESS:     941486  HIT:     637894  MISS:     303592
LLC WRITEBACK ACCESS:     880286  HIT:     809639  MISS:      70647
LLC PREFETCH  REQUESTED:          0  ISSUED:          0  USEFUL:      16563  USELESS:     287482
LLC TOTAL MSHR MERGED:         99
LLC LOAD MSHR MERGED:         35
LLC RFO MSHR MERGED:          0
LLC PREFETCH MSHR MERGED:         64
LLC WRITEBACK MSHR MERGED:          0
LLC TOTAL ACCESSES:    4609936 HITS:    3915576 MISSES:     694360
LLC LOAD ACCESSES:    2319255 HITS:    2087089 MISSES:     232166
LLC RFO ACCESSES:     468799 HITS:     380943 MISSES:      87856
LLC PREFETCH ACCESSES:     941596 HITS:     637905 MISSES:     303691
LLC WRITEBACK ACCESSES:     880286 HITS:     809639 MISSES:      70647
LLC 0 RQ ACCESS:    2788054
LLC 0 RQ TO_CACHE:    2788030
LLC 0 RQ MERGED:          0
LLC 0 RQ FORWARD:          0
LLC WQ ACCESS:     880286
LLC WQ TO_CACHE:     880286
LLC WQ MERGED:          0
LLC WQ FORWARD:         35
Major fault: 0 Minor fault: 12862
CPU 0 L1D next line prefetcher final stats
CPU 0 L2C PC-based stride prefetcher final stats
All Misses: 821528
All Hits: 4605280
SD Algo Stats - Switches: 0 SRR-Repls: 271831 BRR-Repls: 0

DRAM Statistics
 CHANNEL 0
 RQ ROW_BUFFER_HIT:     124043  ROW_BUFFER_MISS:     497493
 DBUS_CONGESTED:     386148
 WQ ROW_BUFFER_HIT:      18187  ROW_BUFFER_MISS:     203213  FULL:          0

 AVG_CONGESTED_CYCLE: 13
LOADS RETIRED: 136549171
INSTR RETIRED: 500000000
