
*** ChampSim Multicore Out-of-Order Simulator ***

Warmup Instructions: 100000000
Simulation Instructions: 500000000
Number of CPUs: 1
LLC sets: 2048
LLC ways: 16
Clean RRIP Policies: 1213230112132301 Dirty RRIP Policies: 2213031122130311 PSEL Width: 10 Track Set: 4294967295 PSEL Mask: 1 Demote Mask: 1340013113400131DS Algo: 0Window size: 0
Off-chip DRAM Size: 4096 MB Channels: 1 Width: 64-bit Data Rate: 1600 MT/s

CPU 0 runs /mnt/beegfs/iconst01/spec2017/Mcf.trace.gz
NOT SORTED
TRACE STRING: /mnt/beegfs/iconst01/spec2017/Mcf.trace.gz
SORTED
TRACE STRING: /mnt/beegfs/iconst01/spec2017/Mcf.trace.gz
INITIAL
TRACE STRING: /mnt/beegfs/iconst01/spec2017/Mcf.trace.gz

champsim_seed used: 278

CPU 0 L1D next line prefetcher
CPU 0 L2C IP-based stride prefetcher
Initialize DRRIP state
Assign rand_sets[0]: 454  LLC: 2048
rand_sets[0]: 454
Assign rand_sets[1]: 1662  LLC: 2048
rand_sets[1]: 1662
Assign rand_sets[2]: 1921  LLC: 2048
rand_sets[2]: 1921
Assign rand_sets[3]: 1131  LLC: 2048
rand_sets[3]: 1131
Assign rand_sets[4]: 331  LLC: 2048
rand_sets[4]: 331
Assign rand_sets[5]: 1531  LLC: 2048
rand_sets[5]: 1531
Assign rand_sets[6]: 482  LLC: 2048
rand_sets[6]: 482
Assign rand_sets[7]: 1275  LLC: 2048
rand_sets[7]: 1275
Assign rand_sets[8]: 1876  LLC: 2048
rand_sets[8]: 1876
Assign rand_sets[9]: 2038  LLC: 2048
rand_sets[9]: 2038
Assign rand_sets[10]: 701  LLC: 2048
rand_sets[10]: 701
Assign rand_sets[11]: 479  LLC: 2048
rand_sets[11]: 479
Assign rand_sets[12]: 892  LLC: 2048
rand_sets[12]: 892
Assign rand_sets[13]: 1820  LLC: 2048
rand_sets[13]: 1820
Assign rand_sets[14]: 1505  LLC: 2048
rand_sets[14]: 1505
Assign rand_sets[15]: 1159  LLC: 2048
rand_sets[15]: 1159
Assign rand_sets[16]: 513  LLC: 2048
rand_sets[16]: 513
Assign rand_sets[17]: 703  LLC: 2048
rand_sets[17]: 703
Assign rand_sets[18]: 561  LLC: 2048
rand_sets[18]: 561
Assign rand_sets[19]: 990  LLC: 2048
rand_sets[19]: 990
Assign rand_sets[20]: 342  LLC: 2048
rand_sets[20]: 342
Assign rand_sets[21]: 882  LLC: 2048
rand_sets[21]: 882
Assign rand_sets[22]: 15  LLC: 2048
rand_sets[22]: 15
Assign rand_sets[23]: 71  LLC: 2048
rand_sets[23]: 71
Assign rand_sets[24]: 1127  LLC: 2048
rand_sets[24]: 1127
Assign rand_sets[25]: 1382  LLC: 2048
rand_sets[25]: 1382
Assign rand_sets[26]: 647  LLC: 2048
rand_sets[26]: 647
Assign rand_sets[27]: 857  LLC: 2048
rand_sets[27]: 857
Assign rand_sets[28]: 1450  LLC: 2048
rand_sets[28]: 1450
Assign rand_sets[29]: 1160  LLC: 2048
rand_sets[29]: 1160
Assign rand_sets[30]: 1852  LLC: 2048
rand_sets[30]: 1852
Assign rand_sets[31]: 1881  LLC: 2048
rand_sets[31]: 1881
Assign rand_sets[32]: 1770  LLC: 2048
rand_sets[32]: 1770
Assign rand_sets[33]: 1622  LLC: 2048
rand_sets[33]: 1622
Assign rand_sets[34]: 275  LLC: 2048
rand_sets[34]: 275
Assign rand_sets[35]: 635  LLC: 2048
rand_sets[35]: 635
Assign rand_sets[36]: 466  LLC: 2048
rand_sets[36]: 466
Assign rand_sets[37]: 1413  LLC: 2048
rand_sets[37]: 1413
Assign rand_sets[38]: 417  LLC: 2048
rand_sets[38]: 417
Assign rand_sets[39]: 472  LLC: 2048
rand_sets[39]: 472
Assign rand_sets[40]: 1340  LLC: 2048
rand_sets[40]: 1340
Assign rand_sets[41]: 852  LLC: 2048
rand_sets[41]: 852
Assign rand_sets[42]: 1365  LLC: 2048
rand_sets[42]: 1365
Assign rand_sets[43]: 47  LLC: 2048
rand_sets[43]: 47
Assign rand_sets[44]: 823  LLC: 2048
rand_sets[44]: 823
Assign rand_sets[45]: 686  LLC: 2048
rand_sets[45]: 686
Assign rand_sets[46]: 1637  LLC: 2048
rand_sets[46]: 1637
Assign rand_sets[47]: 1115  LLC: 2048
rand_sets[47]: 1115
Assign rand_sets[48]: 986  LLC: 2048
rand_sets[48]: 986
Assign rand_sets[49]: 258  LLC: 2048
rand_sets[49]: 258
Assign rand_sets[50]: 633  LLC: 2048
rand_sets[50]: 633
Assign rand_sets[51]: 920  LLC: 2048
rand_sets[51]: 920
Assign rand_sets[52]: 204  LLC: 2048
rand_sets[52]: 204
Assign rand_sets[53]: 227  LLC: 2048
rand_sets[53]: 227
Assign rand_sets[54]: 1818  LLC: 2048
rand_sets[54]: 1818
Assign rand_sets[55]: 886  LLC: 2048
rand_sets[55]: 886
Assign rand_sets[56]: 1422  LLC: 2048
rand_sets[56]: 1422
Assign rand_sets[57]: 607  LLC: 2048
rand_sets[57]: 607
Assign rand_sets[58]: 217  LLC: 2048
rand_sets[58]: 217
Assign rand_sets[59]: 1945  LLC: 2048
rand_sets[59]: 1945
Assign rand_sets[60]: 143  LLC: 2048
rand_sets[60]: 143
Assign rand_sets[61]: 1311  LLC: 2048
rand_sets[61]: 1311
Assign rand_sets[62]: 319  LLC: 2048
rand_sets[62]: 319
Assign rand_sets[63]: 1846  LLC: 2048
rand_sets[63]: 1846
 CLEAN-RRIP-POLICY-1: 1-2-1-3-2-3-0-1- CLEAN-RRIP-POLICY-2: 1-2-1-3-2-3-0-1-
 DIRTY-RRIP-POLICY-1: 2-2-1-3-0-3-1-1- DIRTY-RRIP-POLICY-2: 2-2-1-3-0-3-1-1-
 PSEL width: 10
Heartbeat CPU 0 instructions: 10000002 cycles: 6248546 heartbeat IPC: 1.60037 cumulative IPC: 1.60037 (Simulation time: 0 hr 0 min 12 sec) 
Heartbeat CPU 0 instructions: 20000000 cycles: 12469543 heartbeat IPC: 1.60746 cumulative IPC: 1.60391 (Simulation time: 0 hr 0 min 24 sec) 
Heartbeat CPU 0 instructions: 30000000 cycles: 18680119 heartbeat IPC: 1.61016 cumulative IPC: 1.60599 (Simulation time: 0 hr 0 min 37 sec) 
Heartbeat CPU 0 instructions: 40000000 cycles: 24890978 heartbeat IPC: 1.61008 cumulative IPC: 1.60701 (Simulation time: 0 hr 0 min 49 sec) 
Heartbeat CPU 0 instructions: 50000003 cycles: 31103565 heartbeat IPC: 1.60964 cumulative IPC: 1.60753 (Simulation time: 0 hr 1 min 2 sec) 
Heartbeat CPU 0 instructions: 60000000 cycles: 37299809 heartbeat IPC: 1.61388 cumulative IPC: 1.60859 (Simulation time: 0 hr 1 min 14 sec) 
Heartbeat CPU 0 instructions: 70000003 cycles: 43518448 heartbeat IPC: 1.60807 cumulative IPC: 1.60851 (Simulation time: 0 hr 1 min 26 sec) 
Heartbeat CPU 0 instructions: 80000000 cycles: 49749054 heartbeat IPC: 1.60498 cumulative IPC: 1.60807 (Simulation time: 0 hr 1 min 39 sec) 
Heartbeat CPU 0 instructions: 90000000 cycles: 55978091 heartbeat IPC: 1.60538 cumulative IPC: 1.60777 (Simulation time: 0 hr 1 min 51 sec) 
Heartbeat CPU 0 instructions: 100000000 cycles: 62197234 heartbeat IPC: 1.60794 cumulative IPC: 1.60779 (Simulation time: 0 hr 2 min 3 sec) 

Warmup complete CPU 0 instructions: 100000001 cycles: 62197235 (Simulation time: 0 hr 2 min 3 sec) 

Heartbeat CPU 0 instructions: 110000000 cycles: 87099777 heartbeat IPC: 0.401565 cumulative IPC: 0.401565 (Simulation time: 0 hr 2 min 27 sec) 
Heartbeat CPU 0 instructions: 120000000 cycles: 112152361 heartbeat IPC: 0.39916 cumulative IPC: 0.400359 (Simulation time: 0 hr 2 min 50 sec) 
Heartbeat CPU 0 instructions: 130000000 cycles: 137299456 heartbeat IPC: 0.39766 cumulative IPC: 0.399456 (Simulation time: 0 hr 3 min 14 sec) 
Heartbeat CPU 0 instructions: 140000000 cycles: 162377940 heartbeat IPC: 0.398748 cumulative IPC: 0.399278 (Simulation time: 0 hr 3 min 37 sec) 
Heartbeat CPU 0 instructions: 150000003 cycles: 187343446 heartbeat IPC: 0.400553 cumulative IPC: 0.399533 (Simulation time: 0 hr 4 min 1 sec) 
Heartbeat CPU 0 instructions: 160000000 cycles: 212603587 heartbeat IPC: 0.39588 cumulative IPC: 0.398919 (Simulation time: 0 hr 4 min 24 sec) 
Heartbeat CPU 0 instructions: 170000001 cycles: 237701710 heartbeat IPC: 0.398436 cumulative IPC: 0.39885 (Simulation time: 0 hr 4 min 48 sec) 
Heartbeat CPU 0 instructions: 180000000 cycles: 262814290 heartbeat IPC: 0.398207 cumulative IPC: 0.39877 (Simulation time: 0 hr 5 min 12 sec) 
Heartbeat CPU 0 instructions: 190000003 cycles: 287868377 heartbeat IPC: 0.399137 cumulative IPC: 0.39881 (Simulation time: 0 hr 5 min 35 sec) 
Heartbeat CPU 0 instructions: 200000000 cycles: 312970260 heartbeat IPC: 0.398376 cumulative IPC: 0.398767 (Simulation time: 0 hr 5 min 59 sec) 
Heartbeat CPU 0 instructions: 210000003 cycles: 338117822 heartbeat IPC: 0.397653 cumulative IPC: 0.398665 (Simulation time: 0 hr 6 min 22 sec) 
Heartbeat CPU 0 instructions: 220000000 cycles: 363492801 heartbeat IPC: 0.394089 cumulative IPC: 0.39828 (Simulation time: 0 hr 6 min 46 sec) 
Heartbeat CPU 0 instructions: 230000002 cycles: 388502508 heartbeat IPC: 0.399845 cumulative IPC: 0.3984 (Simulation time: 0 hr 7 min 10 sec) 
Heartbeat CPU 0 instructions: 240000000 cycles: 413827859 heartbeat IPC: 0.394861 cumulative IPC: 0.398145 (Simulation time: 0 hr 7 min 34 sec) 
Heartbeat CPU 0 instructions: 250000000 cycles: 438969638 heartbeat IPC: 0.397744 cumulative IPC: 0.398118 (Simulation time: 0 hr 7 min 58 sec) 
Heartbeat CPU 0 instructions: 260000000 cycles: 464098325 heartbeat IPC: 0.397952 cumulative IPC: 0.398108 (Simulation time: 0 hr 8 min 22 sec) 
Heartbeat CPU 0 instructions: 270000001 cycles: 489309222 heartbeat IPC: 0.396654 cumulative IPC: 0.398022 (Simulation time: 0 hr 8 min 45 sec) 
Heartbeat CPU 0 instructions: 280000000 cycles: 514434196 heartbeat IPC: 0.39801 cumulative IPC: 0.398021 (Simulation time: 0 hr 9 min 9 sec) 
Heartbeat CPU 0 instructions: 290000001 cycles: 539639913 heartbeat IPC: 0.396735 cumulative IPC: 0.397954 (Simulation time: 0 hr 9 min 33 sec) 
Heartbeat CPU 0 instructions: 300000000 cycles: 565025326 heartbeat IPC: 0.393927 cumulative IPC: 0.39775 (Simulation time: 0 hr 9 min 57 sec) 
Heartbeat CPU 0 instructions: 310000003 cycles: 590044550 heartbeat IPC: 0.399693 cumulative IPC: 0.397842 (Simulation time: 0 hr 10 min 21 sec) 
Heartbeat CPU 0 instructions: 320000000 cycles: 615434351 heartbeat IPC: 0.393859 cumulative IPC: 0.39766 (Simulation time: 0 hr 10 min 45 sec) 
Heartbeat CPU 0 instructions: 330000003 cycles: 640556535 heartbeat IPC: 0.398055 cumulative IPC: 0.397677 (Simulation time: 0 hr 11 min 9 sec) 
Heartbeat CPU 0 instructions: 340000000 cycles: 665989183 heartbeat IPC: 0.393195 cumulative IPC: 0.397488 (Simulation time: 0 hr 11 min 33 sec) 
Heartbeat CPU 0 instructions: 350000002 cycles: 691404265 heartbeat IPC: 0.393467 cumulative IPC: 0.397326 (Simulation time: 0 hr 11 min 57 sec) 
Heartbeat CPU 0 instructions: 360000000 cycles: 717005506 heartbeat IPC: 0.390606 cumulative IPC: 0.397063 (Simulation time: 0 hr 12 min 20 sec) 
Heartbeat CPU 0 instructions: 370000000 cycles: 742329116 heartbeat IPC: 0.394888 cumulative IPC: 0.396982 (Simulation time: 0 hr 12 min 44 sec) 
Heartbeat CPU 0 instructions: 380000000 cycles: 767451823 heartbeat IPC: 0.398046 cumulative IPC: 0.39702 (Simulation time: 0 hr 13 min 8 sec) 
Heartbeat CPU 0 instructions: 390000002 cycles: 792595447 heartbeat IPC: 0.397715 cumulative IPC: 0.397044 (Simulation time: 0 hr 13 min 31 sec) 
Heartbeat CPU 0 instructions: 400000000 cycles: 817927252 heartbeat IPC: 0.394761 cumulative IPC: 0.396967 (Simulation time: 0 hr 13 min 55 sec) 
Heartbeat CPU 0 instructions: 410000002 cycles: 843159002 heartbeat IPC: 0.396326 cumulative IPC: 0.396946 (Simulation time: 0 hr 14 min 18 sec) 
Heartbeat CPU 0 instructions: 420000000 cycles: 868218064 heartbeat IPC: 0.399057 cumulative IPC: 0.397012 (Simulation time: 0 hr 14 min 42 sec) 
Heartbeat CPU 0 instructions: 430000000 cycles: 893509980 heartbeat IPC: 0.395383 cumulative IPC: 0.396963 (Simulation time: 0 hr 15 min 6 sec) 
Heartbeat CPU 0 instructions: 440000000 cycles: 918482212 heartbeat IPC: 0.400445 cumulative IPC: 0.397064 (Simulation time: 0 hr 15 min 30 sec) 
Heartbeat CPU 0 instructions: 450000000 cycles: 944057907 heartbeat IPC: 0.390996 cumulative IPC: 0.396888 (Simulation time: 0 hr 15 min 54 sec) 
Heartbeat CPU 0 instructions: 460000000 cycles: 969469696 heartbeat IPC: 0.393518 cumulative IPC: 0.396794 (Simulation time: 0 hr 16 min 19 sec) 
Heartbeat CPU 0 instructions: 470000001 cycles: 994678837 heartbeat IPC: 0.396682 cumulative IPC: 0.396791 (Simulation time: 0 hr 16 min 44 sec) 
Heartbeat CPU 0 instructions: 480000000 cycles: 1020042086 heartbeat IPC: 0.394271 cumulative IPC: 0.396724 (Simulation time: 0 hr 17 min 8 sec) 
Heartbeat CPU 0 instructions: 490000000 cycles: 1045515434 heartbeat IPC: 0.392567 cumulative IPC: 0.396616 (Simulation time: 0 hr 17 min 33 sec) 
Heartbeat CPU 0 instructions: 500000000 cycles: 1071284195 heartbeat IPC: 0.388067 cumulative IPC: 0.396398 (Simulation time: 0 hr 17 min 58 sec) 
Heartbeat CPU 0 instructions: 510000003 cycles: 1096927973 heartbeat IPC: 0.389958 cumulative IPC: 0.396238 (Simulation time: 0 hr 18 min 22 sec) 
Heartbeat CPU 0 instructions: 520000000 cycles: 1122738707 heartbeat IPC: 0.387436 cumulative IPC: 0.396024 (Simulation time: 0 hr 18 min 47 sec) 
Heartbeat CPU 0 instructions: 530000003 cycles: 1148564577 heartbeat IPC: 0.387209 cumulative IPC: 0.395815 (Simulation time: 0 hr 19 min 12 sec) 
Heartbeat CPU 0 instructions: 540000000 cycles: 1174319660 heartbeat IPC: 0.388273 cumulative IPC: 0.39564 (Simulation time: 0 hr 19 min 36 sec) 
Heartbeat CPU 0 instructions: 550000000 cycles: 1200059396 heartbeat IPC: 0.388504 cumulative IPC: 0.395478 (Simulation time: 0 hr 20 min 1 sec) 
Heartbeat CPU 0 instructions: 560000000 cycles: 1226146909 heartbeat IPC: 0.383325 cumulative IPC: 0.395206 (Simulation time: 0 hr 20 min 26 sec) 
Heartbeat CPU 0 instructions: 570000001 cycles: 1252157099 heartbeat IPC: 0.384465 cumulative IPC: 0.394971 (Simulation time: 0 hr 20 min 51 sec) 
Heartbeat CPU 0 instructions: 580000000 cycles: 1278156797 heartbeat IPC: 0.38462 cumulative IPC: 0.39475 (Simulation time: 0 hr 21 min 15 sec) 
Heartbeat CPU 0 instructions: 590000000 cycles: 1304336158 heartbeat IPC: 0.38198 cumulative IPC: 0.394481 (Simulation time: 0 hr 21 min 40 sec) 
Heartbeat CPU 0 instructions: 600000000 cycles: 1330605235 heartbeat IPC: 0.380676 cumulative IPC: 0.394195 (Simulation time: 0 hr 22 min 5 sec) 
Finished CPU 0 instructions: 500000003 cycles: 1268408013 cumulative IPC: 0.394195 (Simulation time: 0 hr 22 min 5 sec) 

CPU 0 Branch Prediction Accuracy: 91.1342% MPKI: 18.7968
Number of Branches: 106006945 Number of Mispredictions: 9398408
Number of LOAD Instructions: 207894007
Number of LOAD Instructions (ROI): 207894007
Number of STORE Instructions: 54285997
Number of STORE Instructions (ROI): 54285997
Total Destination Memory Operands: 57463404
Total Destination Memory Operands (ROI): 57463404
Total Source Memory Operands: 207894007
Total Source Memory Operands (ROI): 207894007
Number of DEPENDED LOADS: 18135397
Number of DEPENDED LOADS (ROI): 18135397
Number of SQ_ADDED: 57463404
Number of SQ_ADDED (ROI): 57463404
Number of LQ_ADDED: 209302578
Number of LQ_ADDED (ROI): 209302578
Number of Instructions read from trace: 600000039

ChampSim completed all CPUs

Region of Interest Statistics

CPU 0 cumulative IPC: 0.394195 instructions: 500000003 cycles: 1268408013
ITLB TOTAL     ACCESS:   96346419  HIT:   96346419  MISS:          0
ITLB LOAD      ACCESS:   96346419  HIT:   96346419  MISS:          0
ITLB RFO       ACCESS:          0  HIT:          0  MISS:          0
ITLB PREFETCH  ACCESS:          0  HIT:          0  MISS:          0
ITLB WRITEBACK ACCESS:          0  HIT:          0  MISS:          0
ITLB PREFETCH  REQUESTED:          0  ISSUED:          0  USEFUL:          0  USELESS:          0
ITLB TOTAL MSHR MERGED:          0
ITLB LOAD MSHR MERGED:          0
ITLB RFO MSHR MERGED:          0
ITLB PREFETCH MSHR MERGED:          0
ITLB WRITEBACK MSHR MERGED:          0
ITLB TOTAL ACCESSES:   96346419 HITS:   96346419 MISSES:          0
ITLB LOAD ACCESSES:   96346419 HITS:   96346419 MISSES:          0
ITLB RFO ACCESSES:          0 HITS:          0 MISSES:          0
ITLB PREFETCH ACCESSES:          0 HITS:          0 MISSES:          0
ITLB WRITEBACK ACCESSES:          0 HITS:          0 MISSES:          0
ITLB RQ ACCESS:  499999980
ITLB RQ TO_CACHE:   96346419
ITLB RQ MERGED:  403653561
ITLB RQ FORWARD:          0
ITLB WQ ACCESS:          0
ITLB WQ TO_CACHE:          0
ITLB WQ MERGED:          0
ITLB WQ FORWARD:          0
DTLB TOTAL     ACCESS:  155140906  HIT:  150228823  MISS:    4912083
DTLB LOAD      ACCESS:  117688289  HIT:  113297875  MISS:    4390414
DTLB RFO       ACCESS:   37452617  HIT:   36930948  MISS:     521669
DTLB PREFETCH  ACCESS:          0  HIT:          0  MISS:          0
DTLB WRITEBACK ACCESS:          0  HIT:          0  MISS:          0
DTLB PREFETCH  REQUESTED:          0  ISSUED:          0  USEFUL:          0  USELESS:          0
DTLB TOTAL MSHR MERGED:     451733
DTLB LOAD MSHR MERGED:     160381
DTLB RFO MSHR MERGED:     291352
DTLB PREFETCH MSHR MERGED:          0
DTLB WRITEBACK MSHR MERGED:          0
DTLB TOTAL ACCESSES:  155592639 HITS:  150228823 MISSES:    5363816
DTLB LOAD ACCESSES:  117848670 HITS:  113297875 MISSES:    4550795
DTLB RFO ACCESSES:   37743969 HITS:   36930948 MISSES:     813021
DTLB PREFETCH ACCESSES:          0 HITS:          0 MISSES:          0
DTLB WRITEBACK ACCESSES:          0 HITS:          0 MISSES:          0
DTLB RQ ACCESS:  205948280
DTLB RQ TO_CACHE:  155592639
DTLB RQ MERGED:   50355641
DTLB RQ FORWARD:          0
DTLB WQ ACCESS:          0
DTLB WQ TO_CACHE:          0
DTLB WQ MERGED:          0
DTLB WQ FORWARD:          0
L1D TOTAL     ACCESS:  276968746  HIT:  242147541  MISS:   34821205
L1D LOAD      ACCESS:  125370477  HIT:  107718204  MISS:   17652273
L1D RFO       ACCESS:   41118251  HIT:   38806543  MISS:    2311708
L1D PREFETCH  ACCESS:  110480018  HIT:   95622794  MISS:   14857224
L1D WRITEBACK ACCESS:          0  HIT:          0  MISS:          0
L1D PREFETCH  REQUESTED:  126228417  ISSUED:  124709420  USEFUL:    2691611  USELESS:   12165639
L1D TOTAL MSHR MERGED:    8586454
L1D LOAD MSHR MERGED:    1556086
L1D RFO MSHR MERGED:    3782119
L1D PREFETCH MSHR MERGED:    3248249
L1D WRITEBACK MSHR MERGED:          0
L1D TOTAL ACCESSES:  285642528 HITS:  242234865 MISSES:   43407663
L1D LOAD ACCESSES:  126228466 HITS:  107718253 MISSES:   18510213
L1D RFO ACCESSES:   44899877 HITS:   38806543 MISSES:    6093334
L1D PREFETCH ACCESSES:  114514185 HITS:   95710069 MISSES:   18804116
L1D WRITEBACK ACCESSES:          0 HITS:          0 MISSES:          0
L1D RQ ACCESS:  158401399
L1D RQ TO_CACHE:  126228417
L1D RQ MERGED:   32172933
L1D RQ FORWARD:          0
L1D WQ ACCESS:   47546882
L1D WQ TO_CACHE:   44899877
L1D WQ MERGED:    2647005
L1D WQ FORWARD:      87324
L1I TOTAL     ACCESS:  132737941  HIT:  132737941  MISS:          0
L1I LOAD      ACCESS:  132737941  HIT:  132737941  MISS:          0
L1I RFO       ACCESS:          0  HIT:          0  MISS:          0
L1I PREFETCH  ACCESS:          0  HIT:          0  MISS:          0
L1I WRITEBACK ACCESS:          0  HIT:          0  MISS:          0
L1I PREFETCH  REQUESTED:          0  ISSUED:          0  USEFUL:          0  USELESS:          0
L1I TOTAL MSHR MERGED:          0
L1I LOAD MSHR MERGED:          0
L1I RFO MSHR MERGED:          0
L1I PREFETCH MSHR MERGED:          0
L1I WRITEBACK MSHR MERGED:          0
L1I TOTAL ACCESSES:  132737941 HITS:  132737941 MISSES:          0
L1I LOAD ACCESSES:  132737941 HITS:  132737941 MISSES:          0
L1I RFO ACCESSES:          0 HITS:          0 MISSES:          0
L1I PREFETCH ACCESSES:          0 HITS:          0 MISSES:          0
L1I WRITEBACK ACCESSES:          0 HITS:          0 MISSES:          0
L1I RQ ACCESS:  499999980
L1I RQ TO_CACHE:  132737941
L1I RQ MERGED:  367262039
L1I RQ FORWARD:          0
L1I WQ ACCESS:          0
L1I WQ TO_CACHE:          0
L1I WQ MERGED:          0
L1I WQ FORWARD:          0
L2C TOTAL     ACCESS:   39592225  HIT:   20623437  MISS:   18968788
L2C LOAD      ACCESS:   16954061  HIT:    8564932  MISS:    8389129
L2C RFO       ACCESS:    2311164  HIT:     630807  MISS:    1680357
L2C PREFETCH  ACCESS:   17104697  HIT:    8209146  MISS:    8895551
L2C WRITEBACK ACCESS:    3222303  HIT:    3218552  MISS:       3751
L2C PREFETCH  REQUESTED:    2901101  ISSUED:    2901101  USEFUL:    1304812  USELESS:    7590484
L2C TOTAL MSHR MERGED:     545657
L2C LOAD MSHR MERGED:      96556
L2C RFO MSHR MERGED:          0
L2C PREFETCH MSHR MERGED:     449101
L2C WRITEBACK MSHR MERGED:          0
L2C TOTAL ACCESSES:   40274533 HITS:   20623600 MISSES:   19650933
L2C LOAD ACCESSES:   16954127 HITS:    8564998 MISSES:    8389129
L2C RFO ACCESSES:    2311215 HITS:     630857 MISSES:    1680358
L2C PREFETCH ACCESSES:   17786888 HITS:    8209193 MISSES:    9577695
L2C WRITEBACK ACCESSES:    3222303 HITS:    3218552 MISSES:       3751
L2C RQ ACCESS:   19265342
L2C RQ TO_CACHE:   19265226
L2C RQ MERGED:          0
L2C RQ FORWARD:          0
L2C WQ ACCESS:    3222303
L2C WQ TO_CACHE:    3222303
L2C WQ MERGED:          0
L2C WQ FORWARD:        163
LLC TOTAL     ACCESS:   21207532  HIT:   13048453  MISS:    8159079
LLC LOAD      ACCESS:    8292546  HIT:    5660889  MISS:    2631657
LLC RFO       ACCESS:    1680273  HIT:    1418724  MISS:     261549
LLC PREFETCH  ACCESS:    9059150  HIT:    4036024  MISS:    5023126
LLC WRITEBACK ACCESS:    2175563  HIT:    1932816  MISS:     242747
LLC PREFETCH  REQUESTED:          0  ISSUED:          0  USEFUL:     179262  USELESS:    4845664
LLC TOTAL MSHR MERGED:      58641
LLC LOAD MSHR MERGED:      18598
LLC RFO MSHR MERGED:          0
LLC PREFETCH MSHR MERGED:      40043
LLC WRITEBACK MSHR MERGED:          0
LLC TOTAL ACCESSES:   21266313 HITS:   13048590 MISSES:    8217723
LLC LOAD ACCESSES:    8292573 HITS:    5660916 MISSES:    2631657
LLC RFO ACCESSES:    1680358 HITS:    1418808 MISSES:     261550
LLC PREFETCH ACCESSES:    9117819 HITS:    4036050 MISSES:    5081769
LLC WRITEBACK ACCESSES:    2175563 HITS:    1932816 MISSES:     242747
LLC 0 RQ ACCESS:    9972931
LLC 0 RQ TO_CACHE:    9972820
LLC 0 RQ MERGED:          0
LLC 0 RQ FORWARD:          0
LLC WQ ACCESS:    2175565
LLC WQ TO_CACHE:    2175565
LLC WQ MERGED:          0
LLC WQ FORWARD:        137
Major fault: 0 Minor fault: 56391
CPU 0 L1D next line prefetcher final stats
CPU 0 L2C PC-based stride prefetcher final stats
All Misses: 9522396
All Hits: 15061982
SD Algo Stats - Switches: 0 SRR-Repls: 2761522 BRR-Repls: 0

DRAM Statistics
 CHANNEL 0
 RQ ROW_BUFFER_HIT:    4667248  ROW_BUFFER_MISS:    3195372
 DBUS_CONGESTED:    3959108
 WQ ROW_BUFFER_HIT:      80844  ROW_BUFFER_MISS:     371208  FULL:          0

 AVG_CONGESTED_CYCLE: 13
LOADS RETIRED: 173631671
INSTR RETIRED: 500000000
