
*** ChampSim Multicore Out-of-Order Simulator ***

Warmup Instructions: 100000000
Simulation Instructions: 500000000
Number of CPUs: 1
LLC sets: 2048
LLC ways: 16
Clean RRIP Policies: 2101030121010301 Dirty RRIP Policies: 1101130111011301 PSEL Width: 10 Track Set: 4294967295 PSEL Mask: 1 Demote Mask: 2143211021432110DS Algo: 0Window size: 0
Off-chip DRAM Size: 4096 MB Channels: 1 Width: 64-bit Data Rate: 1600 MT/s

CPU 0 runs /mnt/beegfs/iconst01/spec2017/Fotonik3d.trace.gz
NOT SORTED
TRACE STRING: /mnt/beegfs/iconst01/spec2017/Fotonik3d.trace.gz
SORTED
TRACE STRING: /mnt/beegfs/iconst01/spec2017/Fotonik3d.trace.gz
INITIAL
TRACE STRING: /mnt/beegfs/iconst01/spec2017/Fotonik3d.trace.gz

champsim_seed used: 881

CPU 0 L1D next line prefetcher
CPU 0 L2C IP-based stride prefetcher
Initialize DRRIP state
Assign rand_sets[0]: 454  LLC: 2048
rand_sets[0]: 454
Assign rand_sets[1]: 1662  LLC: 2048
rand_sets[1]: 1662
Assign rand_sets[2]: 1921  LLC: 2048
rand_sets[2]: 1921
Assign rand_sets[3]: 1131  LLC: 2048
rand_sets[3]: 1131
Assign rand_sets[4]: 331  LLC: 2048
rand_sets[4]: 331
Assign rand_sets[5]: 1531  LLC: 2048
rand_sets[5]: 1531
Assign rand_sets[6]: 482  LLC: 2048
rand_sets[6]: 482
Assign rand_sets[7]: 1275  LLC: 2048
rand_sets[7]: 1275
Assign rand_sets[8]: 1876  LLC: 2048
rand_sets[8]: 1876
Assign rand_sets[9]: 2038  LLC: 2048
rand_sets[9]: 2038
Assign rand_sets[10]: 701  LLC: 2048
rand_sets[10]: 701
Assign rand_sets[11]: 479  LLC: 2048
rand_sets[11]: 479
Assign rand_sets[12]: 892  LLC: 2048
rand_sets[12]: 892
Assign rand_sets[13]: 1820  LLC: 2048
rand_sets[13]: 1820
Assign rand_sets[14]: 1505  LLC: 2048
rand_sets[14]: 1505
Assign rand_sets[15]: 1159  LLC: 2048
rand_sets[15]: 1159
Assign rand_sets[16]: 513  LLC: 2048
rand_sets[16]: 513
Assign rand_sets[17]: 703  LLC: 2048
rand_sets[17]: 703
Assign rand_sets[18]: 561  LLC: 2048
rand_sets[18]: 561
Assign rand_sets[19]: 990  LLC: 2048
rand_sets[19]: 990
Assign rand_sets[20]: 342  LLC: 2048
rand_sets[20]: 342
Assign rand_sets[21]: 882  LLC: 2048
rand_sets[21]: 882
Assign rand_sets[22]: 15  LLC: 2048
rand_sets[22]: 15
Assign rand_sets[23]: 71  LLC: 2048
rand_sets[23]: 71
Assign rand_sets[24]: 1127  LLC: 2048
rand_sets[24]: 1127
Assign rand_sets[25]: 1382  LLC: 2048
rand_sets[25]: 1382
Assign rand_sets[26]: 647  LLC: 2048
rand_sets[26]: 647
Assign rand_sets[27]: 857  LLC: 2048
rand_sets[27]: 857
Assign rand_sets[28]: 1450  LLC: 2048
rand_sets[28]: 1450
Assign rand_sets[29]: 1160  LLC: 2048
rand_sets[29]: 1160
Assign rand_sets[30]: 1852  LLC: 2048
rand_sets[30]: 1852
Assign rand_sets[31]: 1881  LLC: 2048
rand_sets[31]: 1881
Assign rand_sets[32]: 1770  LLC: 2048
rand_sets[32]: 1770
Assign rand_sets[33]: 1622  LLC: 2048
rand_sets[33]: 1622
Assign rand_sets[34]: 275  LLC: 2048
rand_sets[34]: 275
Assign rand_sets[35]: 635  LLC: 2048
rand_sets[35]: 635
Assign rand_sets[36]: 466  LLC: 2048
rand_sets[36]: 466
Assign rand_sets[37]: 1413  LLC: 2048
rand_sets[37]: 1413
Assign rand_sets[38]: 417  LLC: 2048
rand_sets[38]: 417
Assign rand_sets[39]: 472  LLC: 2048
rand_sets[39]: 472
Assign rand_sets[40]: 1340  LLC: 2048
rand_sets[40]: 1340
Assign rand_sets[41]: 852  LLC: 2048
rand_sets[41]: 852
Assign rand_sets[42]: 1365  LLC: 2048
rand_sets[42]: 1365
Assign rand_sets[43]: 47  LLC: 2048
rand_sets[43]: 47
Assign rand_sets[44]: 823  LLC: 2048
rand_sets[44]: 823
Assign rand_sets[45]: 686  LLC: 2048
rand_sets[45]: 686
Assign rand_sets[46]: 1637  LLC: 2048
rand_sets[46]: 1637
Assign rand_sets[47]: 1115  LLC: 2048
rand_sets[47]: 1115
Assign rand_sets[48]: 986  LLC: 2048
rand_sets[48]: 986
Assign rand_sets[49]: 258  LLC: 2048
rand_sets[49]: 258
Assign rand_sets[50]: 633  LLC: 2048
rand_sets[50]: 633
Assign rand_sets[51]: 920  LLC: 2048
rand_sets[51]: 920
Assign rand_sets[52]: 204  LLC: 2048
rand_sets[52]: 204
Assign rand_sets[53]: 227  LLC: 2048
rand_sets[53]: 227
Assign rand_sets[54]: 1818  LLC: 2048
rand_sets[54]: 1818
Assign rand_sets[55]: 886  LLC: 2048
rand_sets[55]: 886
Assign rand_sets[56]: 1422  LLC: 2048
rand_sets[56]: 1422
Assign rand_sets[57]: 607  LLC: 2048
rand_sets[57]: 607
Assign rand_sets[58]: 217  LLC: 2048
rand_sets[58]: 217
Assign rand_sets[59]: 1945  LLC: 2048
rand_sets[59]: 1945
Assign rand_sets[60]: 143  LLC: 2048
rand_sets[60]: 143
Assign rand_sets[61]: 1311  LLC: 2048
rand_sets[61]: 1311
Assign rand_sets[62]: 319  LLC: 2048
rand_sets[62]: 319
Assign rand_sets[63]: 1846  LLC: 2048
rand_sets[63]: 1846
 CLEAN-RRIP-POLICY-1: 2-1-0-1-0-3-0-1- CLEAN-RRIP-POLICY-2: 2-1-0-1-0-3-0-1-
 DIRTY-RRIP-POLICY-1: 1-1-0-1-1-3-0-1- DIRTY-RRIP-POLICY-2: 1-1-0-1-1-3-0-1-
 PSEL width: 10
Heartbeat CPU 0 instructions: 10000002 cycles: 7306864 heartbeat IPC: 1.36858 cumulative IPC: 1.36858 (Simulation time: 0 hr 0 min 29 sec) 
Heartbeat CPU 0 instructions: 20000000 cycles: 14613940 heartbeat IPC: 1.36854 cumulative IPC: 1.36856 (Simulation time: 0 hr 0 min 58 sec) 
Heartbeat CPU 0 instructions: 30000001 cycles: 21920886 heartbeat IPC: 1.36856 cumulative IPC: 1.36856 (Simulation time: 0 hr 1 min 30 sec) 
Heartbeat CPU 0 instructions: 40000000 cycles: 29227706 heartbeat IPC: 1.36858 cumulative IPC: 1.36856 (Simulation time: 0 hr 1 min 59 sec) 
Heartbeat CPU 0 instructions: 50000001 cycles: 36534470 heartbeat IPC: 1.3686 cumulative IPC: 1.36857 (Simulation time: 0 hr 2 min 28 sec) 
Heartbeat CPU 0 instructions: 60000000 cycles: 43841509 heartbeat IPC: 1.36854 cumulative IPC: 1.36857 (Simulation time: 0 hr 2 min 57 sec) 
Heartbeat CPU 0 instructions: 70000002 cycles: 51148359 heartbeat IPC: 1.36858 cumulative IPC: 1.36857 (Simulation time: 0 hr 3 min 32 sec) 
Heartbeat CPU 0 instructions: 80000000 cycles: 58455161 heartbeat IPC: 1.36859 cumulative IPC: 1.36857 (Simulation time: 0 hr 4 min 6 sec) 
Heartbeat CPU 0 instructions: 90000003 cycles: 65765787 heartbeat IPC: 1.36787 cumulative IPC: 1.36849 (Simulation time: 0 hr 4 min 36 sec) 
Heartbeat CPU 0 instructions: 100000000 cycles: 73076469 heartbeat IPC: 1.36786 cumulative IPC: 1.36843 (Simulation time: 0 hr 5 min 4 sec) 

Warmup complete CPU 0 instructions: 100000002 cycles: 73076481 (Simulation time: 0 hr 5 min 4 sec) 

Heartbeat CPU 0 instructions: 110000001 cycles: 85608796 heartbeat IPC: 0.797936 cumulative IPC: 0.797937 (Simulation time: 0 hr 5 min 41 sec) 
Heartbeat CPU 0 instructions: 120000000 cycles: 98085304 heartbeat IPC: 0.801506 cumulative IPC: 0.799718 (Simulation time: 0 hr 6 min 15 sec) 
Heartbeat CPU 0 instructions: 130000000 cycles: 110622222 heartbeat IPC: 0.797644 cumulative IPC: 0.799025 (Simulation time: 0 hr 6 min 53 sec) 
Heartbeat CPU 0 instructions: 140000000 cycles: 123131283 heartbeat IPC: 0.799421 cumulative IPC: 0.799124 (Simulation time: 0 hr 7 min 27 sec) 
Heartbeat CPU 0 instructions: 150000000 cycles: 135595910 heartbeat IPC: 0.80227 cumulative IPC: 0.799751 (Simulation time: 0 hr 8 min 9 sec) 
Heartbeat CPU 0 instructions: 160000000 cycles: 148089250 heartbeat IPC: 0.800426 cumulative IPC: 0.799864 (Simulation time: 0 hr 8 min 46 sec) 
Heartbeat CPU 0 instructions: 170000001 cycles: 160600861 heartbeat IPC: 0.799258 cumulative IPC: 0.799777 (Simulation time: 0 hr 9 min 18 sec) 
Heartbeat CPU 0 instructions: 180000000 cycles: 173106340 heartbeat IPC: 0.799649 cumulative IPC: 0.799761 (Simulation time: 0 hr 9 min 56 sec) 
Heartbeat CPU 0 instructions: 190000000 cycles: 185626530 heartbeat IPC: 0.79871 cumulative IPC: 0.799644 (Simulation time: 0 hr 10 min 30 sec) 
Heartbeat CPU 0 instructions: 200000000 cycles: 198123279 heartbeat IPC: 0.800208 cumulative IPC: 0.799701 (Simulation time: 0 hr 11 min 7 sec) 
Heartbeat CPU 0 instructions: 210000002 cycles: 210665944 heartbeat IPC: 0.797279 cumulative IPC: 0.79948 (Simulation time: 0 hr 11 min 41 sec) 
Heartbeat CPU 0 instructions: 220000000 cycles: 223216611 heartbeat IPC: 0.79677 cumulative IPC: 0.799253 (Simulation time: 0 hr 12 min 25 sec) 
Heartbeat CPU 0 instructions: 230000002 cycles: 235718996 heartbeat IPC: 0.799848 cumulative IPC: 0.799299 (Simulation time: 0 hr 13 min 0 sec) 
Heartbeat CPU 0 instructions: 240000000 cycles: 248692773 heartbeat IPC: 0.770785 cumulative IPC: 0.797193 (Simulation time: 0 hr 13 min 37 sec) 
Heartbeat CPU 0 instructions: 250000001 cycles: 265860175 heartbeat IPC: 0.582499 cumulative IPC: 0.778074 (Simulation time: 0 hr 14 min 13 sec) 
Heartbeat CPU 0 instructions: 260000000 cycles: 283278209 heartbeat IPC: 0.574118 cumulative IPC: 0.761174 (Simulation time: 0 hr 14 min 52 sec) 
Heartbeat CPU 0 instructions: 270000000 cycles: 300777153 heartbeat IPC: 0.571463 cumulative IPC: 0.746594 (Simulation time: 0 hr 15 min 25 sec) 
Heartbeat CPU 0 instructions: 280000000 cycles: 318215599 heartbeat IPC: 0.573446 cumulative IPC: 0.734277 (Simulation time: 0 hr 16 min 8 sec) 
Heartbeat CPU 0 instructions: 290000000 cycles: 346476226 heartbeat IPC: 0.353849 cumulative IPC: 0.694953 (Simulation time: 0 hr 16 min 56 sec) 
Heartbeat CPU 0 instructions: 300000000 cycles: 383559607 heartbeat IPC: 0.269663 cumulative IPC: 0.644157 (Simulation time: 0 hr 17 min 52 sec) 
Heartbeat CPU 0 instructions: 310000000 cycles: 400445643 heartbeat IPC: 0.592205 cumulative IPC: 0.641478 (Simulation time: 0 hr 18 min 26 sec) 
Heartbeat CPU 0 instructions: 320000000 cycles: 417276101 heartbeat IPC: 0.594161 cumulative IPC: 0.639164 (Simulation time: 0 hr 19 min 5 sec) 
Heartbeat CPU 0 instructions: 330000003 cycles: 434207183 heartbeat IPC: 0.59063 cumulative IPC: 0.636889 (Simulation time: 0 hr 19 min 39 sec) 
Heartbeat CPU 0 instructions: 340000000 cycles: 451029846 heartbeat IPC: 0.594436 cumulative IPC: 0.634999 (Simulation time: 0 hr 20 min 17 sec) 
Heartbeat CPU 0 instructions: 350000001 cycles: 466369832 heartbeat IPC: 0.651891 cumulative IPC: 0.635658 (Simulation time: 0 hr 20 min 55 sec) 
Heartbeat CPU 0 instructions: 360000000 cycles: 478419715 heartbeat IPC: 0.829884 cumulative IPC: 0.641432 (Simulation time: 0 hr 21 min 28 sec) 
Heartbeat CPU 0 instructions: 370000002 cycles: 490329366 heartbeat IPC: 0.839655 cumulative IPC: 0.64709 (Simulation time: 0 hr 21 min 59 sec) 
Heartbeat CPU 0 instructions: 380000000 cycles: 502316599 heartbeat IPC: 0.834221 cumulative IPC: 0.652316 (Simulation time: 0 hr 22 min 32 sec) 
Heartbeat CPU 0 instructions: 390000003 cycles: 515771635 heartbeat IPC: 0.743216 cumulative IPC: 0.655078 (Simulation time: 0 hr 23 min 8 sec) 
Heartbeat CPU 0 instructions: 400000000 cycles: 528132873 heartbeat IPC: 0.80898 cumulative IPC: 0.659259 (Simulation time: 0 hr 23 min 42 sec) 
Heartbeat CPU 0 instructions: 410000003 cycles: 540239945 heartbeat IPC: 0.825964 cumulative IPC: 0.663579 (Simulation time: 0 hr 24 min 9 sec) 
Heartbeat CPU 0 instructions: 420000000 cycles: 552919852 heartbeat IPC: 0.788649 cumulative IPC: 0.666884 (Simulation time: 0 hr 24 min 35 sec) 
Heartbeat CPU 0 instructions: 430000003 cycles: 570814030 heartbeat IPC: 0.558841 cumulative IPC: 0.663 (Simulation time: 0 hr 24 min 59 sec) 
Heartbeat CPU 0 instructions: 440000000 cycles: 589190245 heartbeat IPC: 0.544182 cumulative IPC: 0.658769 (Simulation time: 0 hr 25 min 23 sec) 
Heartbeat CPU 0 instructions: 450000003 cycles: 607553467 heartbeat IPC: 0.544567 cumulative IPC: 0.654846 (Simulation time: 0 hr 25 min 47 sec) 
Heartbeat CPU 0 instructions: 460000000 cycles: 625914713 heartbeat IPC: 0.544625 cumulative IPC: 0.651185 (Simulation time: 0 hr 26 min 11 sec) 
Heartbeat CPU 0 instructions: 470000003 cycles: 644278632 heartbeat IPC: 0.544546 cumulative IPC: 0.647757 (Simulation time: 0 hr 26 min 35 sec) 
Heartbeat CPU 0 instructions: 480000000 cycles: 662631232 heartbeat IPC: 0.544882 cumulative IPC: 0.644554 (Simulation time: 0 hr 26 min 59 sec) 
Heartbeat CPU 0 instructions: 490000003 cycles: 681034348 heartbeat IPC: 0.543386 cumulative IPC: 0.641492 (Simulation time: 0 hr 27 min 23 sec) 
Heartbeat CPU 0 instructions: 500000000 cycles: 699417792 heartbeat IPC: 0.543968 cumulative IPC: 0.638629 (Simulation time: 0 hr 27 min 47 sec) 
Heartbeat CPU 0 instructions: 510000003 cycles: 717793220 heartbeat IPC: 0.544205 cumulative IPC: 0.635938 (Simulation time: 0 hr 28 min 11 sec) 
Heartbeat CPU 0 instructions: 520000000 cycles: 736144871 heartbeat IPC: 0.54491 cumulative IPC: 0.633419 (Simulation time: 0 hr 28 min 35 sec) 
Heartbeat CPU 0 instructions: 530000001 cycles: 754537543 heartbeat IPC: 0.543695 cumulative IPC: 0.630997 (Simulation time: 0 hr 28 min 59 sec) 
Heartbeat CPU 0 instructions: 540000000 cycles: 772856468 heartbeat IPC: 0.545883 cumulative IPC: 0.628769 (Simulation time: 0 hr 29 min 23 sec) 
Heartbeat CPU 0 instructions: 550000001 cycles: 791158827 heartbeat IPC: 0.546378 cumulative IPC: 0.626669 (Simulation time: 0 hr 29 min 47 sec) 
Heartbeat CPU 0 instructions: 560000000 cycles: 809467532 heartbeat IPC: 0.546188 cumulative IPC: 0.624668 (Simulation time: 0 hr 30 min 11 sec) 
Heartbeat CPU 0 instructions: 570000001 cycles: 827724825 heartbeat IPC: 0.547726 cumulative IPC: 0.622807 (Simulation time: 0 hr 30 min 35 sec) 
Heartbeat CPU 0 instructions: 580000000 cycles: 846053965 heartbeat IPC: 0.545579 cumulative IPC: 0.620975 (Simulation time: 0 hr 30 min 59 sec) 
Heartbeat CPU 0 instructions: 590000001 cycles: 864368537 heartbeat IPC: 0.546013 cumulative IPC: 0.61924 (Simulation time: 0 hr 31 min 23 sec) 
Heartbeat CPU 0 instructions: 600000000 cycles: 882665631 heartbeat IPC: 0.546535 cumulative IPC: 0.617597 (Simulation time: 0 hr 31 min 47 sec) 
Finished CPU 0 instructions: 500000002 cycles: 809589164 cumulative IPC: 0.617597 (Simulation time: 0 hr 31 min 47 sec) 

CPU 0 Branch Prediction Accuracy: 99.5931% MPKI: 0.08288
Number of Branches: 10184133 Number of Mispredictions: 41440
Number of LOAD Instructions: 261155957
Number of LOAD Instructions (ROI): 261155957
Number of STORE Instructions: 57884062
Number of STORE Instructions (ROI): 57884062
Total Destination Memory Operands: 83293336
Total Destination Memory Operands (ROI): 83293336
Total Source Memory Operands: 261155957
Total Source Memory Operands (ROI): 261155957
Number of DEPENDED LOADS: 22257264
Number of DEPENDED LOADS (ROI): 22257264
Number of SQ_ADDED: 83293300
Number of SQ_ADDED (ROI): 83293300
Number of LQ_ADDED: 1778153180
Number of LQ_ADDED (ROI): 1778153180
Number of Instructions read from trace: 600000257

ChampSim completed all CPUs

Region of Interest Statistics

CPU 0 cumulative IPC: 0.617597 instructions: 500000002 cycles: 809589164
ITLB TOTAL     ACCESS:   94733011  HIT:   94732973  MISS:         38
ITLB LOAD      ACCESS:   94733011  HIT:   94732973  MISS:         38
ITLB RFO       ACCESS:          0  HIT:          0  MISS:          0
ITLB PREFETCH  ACCESS:          0  HIT:          0  MISS:          0
ITLB WRITEBACK ACCESS:          0  HIT:          0  MISS:          0
ITLB PREFETCH  REQUESTED:          0  ISSUED:          0  USEFUL:          0  USELESS:          0
ITLB TOTAL MSHR MERGED:         93
ITLB LOAD MSHR MERGED:         93
ITLB RFO MSHR MERGED:          0
ITLB PREFETCH MSHR MERGED:          0
ITLB WRITEBACK MSHR MERGED:          0
ITLB TOTAL ACCESSES:   94733104 HITS:   94732973 MISSES:        131
ITLB LOAD ACCESSES:   94733104 HITS:   94732973 MISSES:        131
ITLB RFO ACCESSES:          0 HITS:          0 MISSES:          0
ITLB PREFETCH ACCESSES:          0 HITS:          0 MISSES:          0
ITLB WRITEBACK ACCESSES:          0 HITS:          0 MISSES:          0
ITLB RQ ACCESS:  500000001
ITLB RQ TO_CACHE:   94733105
ITLB RQ MERGED:  405266896
ITLB RQ FORWARD:          0
ITLB WQ ACCESS:          0
ITLB WQ TO_CACHE:          0
ITLB WQ MERGED:          0
ITLB WQ FORWARD:          0
DTLB TOTAL     ACCESS:  149192128  HIT:  148595168  MISS:     596960
DTLB LOAD      ACCESS:  107319349  HIT:  106722400  MISS:     596949
DTLB RFO       ACCESS:   41872779  HIT:   41872768  MISS:         11
DTLB PREFETCH  ACCESS:          0  HIT:          0  MISS:          0
DTLB WRITEBACK ACCESS:          0  HIT:          0  MISS:          0
DTLB PREFETCH  REQUESTED:          0  ISSUED:          0  USEFUL:          0  USELESS:          0
DTLB TOTAL MSHR MERGED:     134334
DTLB LOAD MSHR MERGED:     134334
DTLB RFO MSHR MERGED:          0
DTLB PREFETCH MSHR MERGED:          0
DTLB WRITEBACK MSHR MERGED:          0
DTLB TOTAL ACCESSES:  149326462 HITS:  148595168 MISSES:     731294
DTLB LOAD ACCESSES:  107453683 HITS:  106722400 MISSES:     731283
DTLB RFO ACCESSES:   41872779 HITS:   41872768 MISSES:         11
DTLB PREFETCH ACCESSES:          0 HITS:          0 MISSES:          0
DTLB WRITEBACK ACCESSES:          0 HITS:          0 MISSES:          0
DTLB RQ ACCESS:  259758630
DTLB RQ TO_CACHE:  149326462
DTLB RQ MERGED:  110432168
DTLB RQ FORWARD:          0
DTLB WQ ACCESS:          0
DTLB WQ TO_CACHE:          0
DTLB WQ MERGED:          0
DTLB WQ FORWARD:          0
L1D TOTAL     ACCESS:  261384155  HIT:  245937205  MISS:   15446950
L1D LOAD      ACCESS:  118061855  HIT:  112596380  MISS:    5465475
L1D RFO       ACCESS:   68946657  HIT:   68932250  MISS:      14407
L1D PREFETCH  ACCESS:   74375643  HIT:   64408575  MISS:    9967068
L1D WRITEBACK ACCESS:          0  HIT:          0  MISS:          0
L1D PREFETCH  REQUESTED:  120646704  ISSUED:  119298486  USEFUL:    8047156  USELESS:    1919934
L1D TOTAL MSHR MERGED:   16370435
L1D LOAD MSHR MERGED:    4976137
L1D RFO MSHR MERGED:      21909
L1D PREFETCH MSHR MERGED:   11372389
L1D WRITEBACK MSHR MERGED:          0
L1D TOTAL ACCESSES:  277864629 HITS:  246047244 MISSES:   31817385
L1D LOAD ACCESSES:  120654227 HITS:  112603903 MISSES:    8050324
L1D RFO ACCESSES:   68968566 HITS:   68932250 MISSES:      36316
L1D PREFETCH ACCESSES:   88241836 HITS:   64511091 MISSES:   23730745
L1D WRITEBACK ACCESSES:          0 HITS:          0 MISSES:          0
L1D RQ ACCESS:  190684314
L1D RQ TO_CACHE:  120646704
L1D RQ MERGED:   70030087
L1D RQ FORWARD:          0
L1D WQ ACCESS:   69074336
L1D WQ TO_CACHE:   68968568
L1D WQ MERGED:     105768
L1D WQ FORWARD:     110039
L1I TOTAL     ACCESS:  121630549  HIT:  121629476  MISS:       1073
L1I LOAD      ACCESS:  121630549  HIT:  121629476  MISS:       1073
L1I RFO       ACCESS:          0  HIT:          0  MISS:          0
L1I PREFETCH  ACCESS:          0  HIT:          0  MISS:          0
L1I WRITEBACK ACCESS:          0  HIT:          0  MISS:          0
L1I PREFETCH  REQUESTED:          0  ISSUED:          0  USEFUL:          0  USELESS:          0
L1I TOTAL MSHR MERGED:       1105
L1I LOAD MSHR MERGED:       1105
L1I RFO MSHR MERGED:          0
L1I PREFETCH MSHR MERGED:          0
L1I WRITEBACK MSHR MERGED:          0
L1I TOTAL ACCESSES:  121631654 HITS:  121629476 MISSES:       2178
L1I LOAD ACCESSES:  121631654 HITS:  121629476 MISSES:       2178
L1I RFO ACCESSES:          0 HITS:          0 MISSES:          0
L1I PREFETCH ACCESSES:          0 HITS:          0 MISSES:          0
L1I WRITEBACK ACCESSES:          0 HITS:          0 MISSES:          0
L1I RQ ACCESS:  500000000
L1I RQ TO_CACHE:  121631654
L1I RQ MERGED:  378368346
L1I RQ FORWARD:          0
L1I WQ ACCESS:          0
L1I WQ TO_CACHE:          0
L1I WQ MERGED:          0
L1I WQ FORWARD:          0
L2C TOTAL     ACCESS:   22504915  HIT:    9137549  MISS:   13367366
L2C LOAD      ACCESS:    3075234  HIT:     407022  MISS:    2668212
L2C RFO       ACCESS:      14407  HIT:      13992  MISS:        415
L2C PREFETCH  ACCESS:   12785292  HIT:    2088363  MISS:   10696929
L2C WRITEBACK ACCESS:    6629982  HIT:    6628172  MISS:       1810
L2C PREFETCH  REQUESTED:     664004  ISSUED:     664004  USEFUL:     179758  USELESS:   10517968
L2C TOTAL MSHR MERGED:      67553
L2C LOAD MSHR MERGED:      21728
L2C RFO MSHR MERGED:          0
L2C PREFETCH MSHR MERGED:      45825
L2C WRITEBACK MSHR MERGED:          0
L2C TOTAL ACCESSES:   22702833 HITS:    9137585 MISSES:   13565248
L2C LOAD ACCESSES:    3075260 HITS:     407048 MISSES:    2668212
L2C RFO ACCESSES:      14407 HITS:      13992 MISSES:        415
L2C PREFETCH ACCESSES:   12983184 HITS:    2088373 MISSES:   10894811
L2C WRITEBACK ACCESSES:    6629982 HITS:    6628172 MISSES:       1810
L2C RQ ACCESS:    3089667
L2C RQ TO_CACHE:    3089641
L2C RQ MERGED:          0
L2C RQ FORWARD:          0
L2C WQ ACCESS:    6629982
L2C WQ TO_CACHE:    6629982
L2C WQ MERGED:          0
L2C WQ FORWARD:         36
LLC TOTAL     ACCESS:   20066707  HIT:    6274537  MISS:   13792170
LLC LOAD      ACCESS:    2646484  HIT:     325065  MISS:    2321419
LLC RFO       ACCESS:        415  HIT:         25  MISS:        390
LLC PREFETCH  ACCESS:   10828553  HIT:     506779  MISS:   10321774
LLC WRITEBACK ACCESS:    6591255  HIT:    5442668  MISS:    1148587
LLC PREFETCH  REQUESTED:          0  ISSUED:          0  USEFUL:      63332  USELESS:   10264295
LLC TOTAL MSHR MERGED:      19125
LLC LOAD MSHR MERGED:       8848
LLC RFO MSHR MERGED:          0
LLC PREFETCH MSHR MERGED:      10277
LLC WRITEBACK MSHR MERGED:          0
LLC TOTAL ACCESSES:   20085833 HITS:    6274538 MISSES:   13811295
LLC LOAD ACCESSES:    2646484 HITS:     325065 MISSES:    2321419
LLC RFO ACCESSES:        415 HITS:         25 MISSES:        390
LLC PREFETCH ACCESSES:   10847679 HITS:     506780 MISSES:   10340899
LLC WRITEBACK ACCESSES:    6591255 HITS:    5442668 MISSES:    1148587
LLC 0 RQ ACCESS:    2646899
LLC 0 RQ TO_CACHE:    2646899
LLC 0 RQ MERGED:          0
LLC 0 RQ FORWARD:          0
LLC WQ ACCESS:    6591255
LLC WQ TO_CACHE:    6591255
LLC WQ MERGED:          0
LLC WQ FORWARD:          1
Major fault: 0 Minor fault: 183991
CPU 0 L1D next line prefetcher final stats
CPU 0 L2C PC-based stride prefetcher final stats
All Misses: 16043031
All Hits: 6954721
SD Algo Stats - Switches: 26 SRR-Repls: 2379836 BRR-Repls: 5723

DRAM Statistics
 CHANNEL 0
 RQ ROW_BUFFER_HIT:    7067001  ROW_BUFFER_MISS:    5576581
 DBUS_CONGESTED:   11448921
 WQ ROW_BUFFER_HIT:    1946111  ROW_BUFFER_MISS:    4612597  FULL:          0

 AVG_CONGESTED_CYCLE: 13
LOADS RETIRED: 204440772
INSTR RETIRED: 500000000
