
*** ChampSim Multicore Out-of-Order Simulator ***

Warmup Instructions: 100000000
Simulation Instructions: 500000000
Number of CPUs: 1
LLC sets: 2048
LLC ways: 16
Clean RRIP Policies: 2213230222132302 Dirty RRIP Policies: 1203130212031302 PSEL Width: 10 Track Set: 4294967295 PSEL Mask: 1 Demote Mask: 1040100410401004DS Algo: 0Window size: 0
Off-chip DRAM Size: 4096 MB Channels: 1 Width: 64-bit Data Rate: 1600 MT/s

CPU 0 runs /mnt/beegfs/iconst01/spec2017/Roms.trace.gz
NOT SORTED
TRACE STRING: /mnt/beegfs/iconst01/spec2017/Roms.trace.gz
SORTED
TRACE STRING: /mnt/beegfs/iconst01/spec2017/Roms.trace.gz
INITIAL
TRACE STRING: /mnt/beegfs/iconst01/spec2017/Roms.trace.gz

champsim_seed used: 417

CPU 0 L1D next line prefetcher
CPU 0 L2C IP-based stride prefetcher
Initialize DRRIP state
Assign rand_sets[0]: 454  LLC: 2048
rand_sets[0]: 454
Assign rand_sets[1]: 1662  LLC: 2048
rand_sets[1]: 1662
Assign rand_sets[2]: 1921  LLC: 2048
rand_sets[2]: 1921
Assign rand_sets[3]: 1131  LLC: 2048
rand_sets[3]: 1131
Assign rand_sets[4]: 331  LLC: 2048
rand_sets[4]: 331
Assign rand_sets[5]: 1531  LLC: 2048
rand_sets[5]: 1531
Assign rand_sets[6]: 482  LLC: 2048
rand_sets[6]: 482
Assign rand_sets[7]: 1275  LLC: 2048
rand_sets[7]: 1275
Assign rand_sets[8]: 1876  LLC: 2048
rand_sets[8]: 1876
Assign rand_sets[9]: 2038  LLC: 2048
rand_sets[9]: 2038
Assign rand_sets[10]: 701  LLC: 2048
rand_sets[10]: 701
Assign rand_sets[11]: 479  LLC: 2048
rand_sets[11]: 479
Assign rand_sets[12]: 892  LLC: 2048
rand_sets[12]: 892
Assign rand_sets[13]: 1820  LLC: 2048
rand_sets[13]: 1820
Assign rand_sets[14]: 1505  LLC: 2048
rand_sets[14]: 1505
Assign rand_sets[15]: 1159  LLC: 2048
rand_sets[15]: 1159
Assign rand_sets[16]: 513  LLC: 2048
rand_sets[16]: 513
Assign rand_sets[17]: 703  LLC: 2048
rand_sets[17]: 703
Assign rand_sets[18]: 561  LLC: 2048
rand_sets[18]: 561
Assign rand_sets[19]: 990  LLC: 2048
rand_sets[19]: 990
Assign rand_sets[20]: 342  LLC: 2048
rand_sets[20]: 342
Assign rand_sets[21]: 882  LLC: 2048
rand_sets[21]: 882
Assign rand_sets[22]: 15  LLC: 2048
rand_sets[22]: 15
Assign rand_sets[23]: 71  LLC: 2048
rand_sets[23]: 71
Assign rand_sets[24]: 1127  LLC: 2048
rand_sets[24]: 1127
Assign rand_sets[25]: 1382  LLC: 2048
rand_sets[25]: 1382
Assign rand_sets[26]: 647  LLC: 2048
rand_sets[26]: 647
Assign rand_sets[27]: 857  LLC: 2048
rand_sets[27]: 857
Assign rand_sets[28]: 1450  LLC: 2048
rand_sets[28]: 1450
Assign rand_sets[29]: 1160  LLC: 2048
rand_sets[29]: 1160
Assign rand_sets[30]: 1852  LLC: 2048
rand_sets[30]: 1852
Assign rand_sets[31]: 1881  LLC: 2048
rand_sets[31]: 1881
Assign rand_sets[32]: 1770  LLC: 2048
rand_sets[32]: 1770
Assign rand_sets[33]: 1622  LLC: 2048
rand_sets[33]: 1622
Assign rand_sets[34]: 275  LLC: 2048
rand_sets[34]: 275
Assign rand_sets[35]: 635  LLC: 2048
rand_sets[35]: 635
Assign rand_sets[36]: 466  LLC: 2048
rand_sets[36]: 466
Assign rand_sets[37]: 1413  LLC: 2048
rand_sets[37]: 1413
Assign rand_sets[38]: 417  LLC: 2048
rand_sets[38]: 417
Assign rand_sets[39]: 472  LLC: 2048
rand_sets[39]: 472
Assign rand_sets[40]: 1340  LLC: 2048
rand_sets[40]: 1340
Assign rand_sets[41]: 852  LLC: 2048
rand_sets[41]: 852
Assign rand_sets[42]: 1365  LLC: 2048
rand_sets[42]: 1365
Assign rand_sets[43]: 47  LLC: 2048
rand_sets[43]: 47
Assign rand_sets[44]: 823  LLC: 2048
rand_sets[44]: 823
Assign rand_sets[45]: 686  LLC: 2048
rand_sets[45]: 686
Assign rand_sets[46]: 1637  LLC: 2048
rand_sets[46]: 1637
Assign rand_sets[47]: 1115  LLC: 2048
rand_sets[47]: 1115
Assign rand_sets[48]: 986  LLC: 2048
rand_sets[48]: 986
Assign rand_sets[49]: 258  LLC: 2048
rand_sets[49]: 258
Assign rand_sets[50]: 633  LLC: 2048
rand_sets[50]: 633
Assign rand_sets[51]: 920  LLC: 2048
rand_sets[51]: 920
Assign rand_sets[52]: 204  LLC: 2048
rand_sets[52]: 204
Assign rand_sets[53]: 227  LLC: 2048
rand_sets[53]: 227
Assign rand_sets[54]: 1818  LLC: 2048
rand_sets[54]: 1818
Assign rand_sets[55]: 886  LLC: 2048
rand_sets[55]: 886
Assign rand_sets[56]: 1422  LLC: 2048
rand_sets[56]: 1422
Assign rand_sets[57]: 607  LLC: 2048
rand_sets[57]: 607
Assign rand_sets[58]: 217  LLC: 2048
rand_sets[58]: 217
Assign rand_sets[59]: 1945  LLC: 2048
rand_sets[59]: 1945
Assign rand_sets[60]: 143  LLC: 2048
rand_sets[60]: 143
Assign rand_sets[61]: 1311  LLC: 2048
rand_sets[61]: 1311
Assign rand_sets[62]: 319  LLC: 2048
rand_sets[62]: 319
Assign rand_sets[63]: 1846  LLC: 2048
rand_sets[63]: 1846
 CLEAN-RRIP-POLICY-1: 2-2-1-3-2-3-0-2- CLEAN-RRIP-POLICY-2: 2-2-1-3-2-3-0-2-
 DIRTY-RRIP-POLICY-1: 1-2-0-3-1-3-0-2- DIRTY-RRIP-POLICY-2: 1-2-0-3-1-3-0-2-
 PSEL width: 10
Heartbeat CPU 0 instructions: 10000000 cycles: 4688066 heartbeat IPC: 2.13308 cumulative IPC: 2.13308 (Simulation time: 0 hr 0 min 17 sec) 
Heartbeat CPU 0 instructions: 20000000 cycles: 9325334 heartbeat IPC: 2.15644 cumulative IPC: 2.1447 (Simulation time: 0 hr 0 min 35 sec) 
Heartbeat CPU 0 instructions: 30000003 cycles: 14019722 heartbeat IPC: 2.1302 cumulative IPC: 2.13984 (Simulation time: 0 hr 0 min 52 sec) 
Heartbeat CPU 0 instructions: 40000000 cycles: 18670140 heartbeat IPC: 2.15034 cumulative IPC: 2.14246 (Simulation time: 0 hr 1 min 9 sec) 
Heartbeat CPU 0 instructions: 50000003 cycles: 23323497 heartbeat IPC: 2.14899 cumulative IPC: 2.14376 (Simulation time: 0 hr 1 min 26 sec) 
Heartbeat CPU 0 instructions: 60000000 cycles: 27976128 heartbeat IPC: 2.14932 cumulative IPC: 2.14469 (Simulation time: 0 hr 1 min 43 sec) 
Heartbeat CPU 0 instructions: 70000002 cycles: 32367272 heartbeat IPC: 2.27731 cumulative IPC: 2.16268 (Simulation time: 0 hr 1 min 58 sec) 
Heartbeat CPU 0 instructions: 80000000 cycles: 36304071 heartbeat IPC: 2.54013 cumulative IPC: 2.20361 (Simulation time: 0 hr 2 min 9 sec) 
Heartbeat CPU 0 instructions: 90000000 cycles: 40249343 heartbeat IPC: 2.53468 cumulative IPC: 2.23606 (Simulation time: 0 hr 2 min 21 sec) 
Heartbeat CPU 0 instructions: 100000000 cycles: 44211654 heartbeat IPC: 2.52378 cumulative IPC: 2.26185 (Simulation time: 0 hr 2 min 33 sec) 

Warmup complete CPU 0 instructions: 100000002 cycles: 44211655 (Simulation time: 0 hr 2 min 33 sec) 

Heartbeat CPU 0 instructions: 110000000 cycles: 52803870 heartbeat IPC: 1.16384 cumulative IPC: 1.16384 (Simulation time: 0 hr 2 min 52 sec) 
Heartbeat CPU 0 instructions: 120000000 cycles: 61443968 heartbeat IPC: 1.15739 cumulative IPC: 1.16061 (Simulation time: 0 hr 3 min 11 sec) 
Heartbeat CPU 0 instructions: 130000002 cycles: 70131008 heartbeat IPC: 1.15114 cumulative IPC: 1.15744 (Simulation time: 0 hr 3 min 30 sec) 
Heartbeat CPU 0 instructions: 140000000 cycles: 78689280 heartbeat IPC: 1.16846 cumulative IPC: 1.16017 (Simulation time: 0 hr 3 min 48 sec) 
Heartbeat CPU 0 instructions: 150000003 cycles: 87400782 heartbeat IPC: 1.14791 cumulative IPC: 1.1577 (Simulation time: 0 hr 4 min 7 sec) 
Heartbeat CPU 0 instructions: 160000000 cycles: 97673590 heartbeat IPC: 0.973443 cumulative IPC: 1.12229 (Simulation time: 0 hr 4 min 28 sec) 
Heartbeat CPU 0 instructions: 170000000 cycles: 110162829 heartbeat IPC: 0.800689 cumulative IPC: 1.06139 (Simulation time: 0 hr 4 min 52 sec) 
Heartbeat CPU 0 instructions: 180000000 cycles: 122668923 heartbeat IPC: 0.79961 cumulative IPC: 1.01966 (Simulation time: 0 hr 5 min 16 sec) 
Heartbeat CPU 0 instructions: 190000000 cycles: 135438782 heartbeat IPC: 0.783094 cumulative IPC: 0.986549 (Simulation time: 0 hr 5 min 39 sec) 
Heartbeat CPU 0 instructions: 200000000 cycles: 149311547 heartbeat IPC: 0.720837 cumulative IPC: 0.951476 (Simulation time: 0 hr 6 min 3 sec) 
Heartbeat CPU 0 instructions: 210000001 cycles: 163234633 heartbeat IPC: 0.718232 cumulative IPC: 0.924191 (Simulation time: 0 hr 6 min 27 sec) 
Heartbeat CPU 0 instructions: 220000000 cycles: 176963049 heartbeat IPC: 0.728416 cumulative IPC: 0.903945 (Simulation time: 0 hr 6 min 51 sec) 
Heartbeat CPU 0 instructions: 230000000 cycles: 190505691 heartbeat IPC: 0.738408 cumulative IPC: 0.888621 (Simulation time: 0 hr 7 min 16 sec) 
Heartbeat CPU 0 instructions: 240000000 cycles: 204131392 heartbeat IPC: 0.733907 cumulative IPC: 0.875439 (Simulation time: 0 hr 7 min 41 sec) 
Heartbeat CPU 0 instructions: 250000003 cycles: 215206912 heartbeat IPC: 0.902892 cumulative IPC: 0.877217 (Simulation time: 0 hr 8 min 4 sec) 
Heartbeat CPU 0 instructions: 260000000 cycles: 223039926 heartbeat IPC: 1.27665 cumulative IPC: 0.894713 (Simulation time: 0 hr 8 min 23 sec) 
Heartbeat CPU 0 instructions: 270000003 cycles: 231338708 heartbeat IPC: 1.205 cumulative IPC: 0.908474 (Simulation time: 0 hr 8 min 43 sec) 
Heartbeat CPU 0 instructions: 280000000 cycles: 239795462 heartbeat IPC: 1.18249 cumulative IPC: 0.920322 (Simulation time: 0 hr 9 min 4 sec) 
Heartbeat CPU 0 instructions: 290000000 cycles: 248421540 heartbeat IPC: 1.15928 cumulative IPC: 0.930415 (Simulation time: 0 hr 9 min 24 sec) 
Heartbeat CPU 0 instructions: 300000000 cycles: 257059490 heartbeat IPC: 1.15768 cumulative IPC: 0.939638 (Simulation time: 0 hr 9 min 45 sec) 
Heartbeat CPU 0 instructions: 310000000 cycles: 265773687 heartbeat IPC: 1.14755 cumulative IPC: 0.947816 (Simulation time: 0 hr 10 min 6 sec) 
Heartbeat CPU 0 instructions: 320000000 cycles: 274542497 heartbeat IPC: 1.14041 cumulative IPC: 0.955148 (Simulation time: 0 hr 10 min 28 sec) 
Heartbeat CPU 0 instructions: 330000002 cycles: 283256269 heartbeat IPC: 1.14761 cumulative IPC: 0.962164 (Simulation time: 0 hr 10 min 49 sec) 
Heartbeat CPU 0 instructions: 340000000 cycles: 293188097 heartbeat IPC: 1.00686 cumulative IPC: 0.963947 (Simulation time: 0 hr 11 min 12 sec) 
Heartbeat CPU 0 instructions: 350000001 cycles: 301569718 heartbeat IPC: 1.19309 cumulative IPC: 0.971409 (Simulation time: 0 hr 11 min 33 sec) 
Heartbeat CPU 0 instructions: 360000000 cycles: 309978546 heartbeat IPC: 1.18923 cumulative IPC: 0.978301 (Simulation time: 0 hr 11 min 53 sec) 
Heartbeat CPU 0 instructions: 370000001 cycles: 318379307 heartbeat IPC: 1.19037 cumulative IPC: 0.984799 (Simulation time: 0 hr 12 min 14 sec) 
Heartbeat CPU 0 instructions: 380000000 cycles: 326748090 heartbeat IPC: 1.19492 cumulative IPC: 0.991023 (Simulation time: 0 hr 12 min 34 sec) 
Heartbeat CPU 0 instructions: 390000001 cycles: 334949025 heartbeat IPC: 1.21937 cumulative IPC: 0.997464 (Simulation time: 0 hr 12 min 55 sec) 
Heartbeat CPU 0 instructions: 400000000 cycles: 343224629 heartbeat IPC: 1.20837 cumulative IPC: 1.0033 (Simulation time: 0 hr 13 min 15 sec) 
Heartbeat CPU 0 instructions: 410000003 cycles: 351434907 heartbeat IPC: 1.21799 cumulative IPC: 1.00904 (Simulation time: 0 hr 13 min 35 sec) 
Heartbeat CPU 0 instructions: 420000000 cycles: 359722002 heartbeat IPC: 1.2067 cumulative IPC: 1.01423 (Simulation time: 0 hr 13 min 56 sec) 
Heartbeat CPU 0 instructions: 430000001 cycles: 367933901 heartbeat IPC: 1.21775 cumulative IPC: 1.01939 (Simulation time: 0 hr 14 min 16 sec) 
Heartbeat CPU 0 instructions: 440000000 cycles: 376103077 heartbeat IPC: 1.22411 cumulative IPC: 1.02443 (Simulation time: 0 hr 14 min 36 sec) 
Heartbeat CPU 0 instructions: 450000001 cycles: 385532780 heartbeat IPC: 1.06048 cumulative IPC: 1.02543 (Simulation time: 0 hr 14 min 58 sec) 
Heartbeat CPU 0 instructions: 460000000 cycles: 393744903 heartbeat IPC: 1.21771 cumulative IPC: 1.02994 (Simulation time: 0 hr 15 min 19 sec) 
Heartbeat CPU 0 instructions: 470000003 cycles: 401826876 heartbeat IPC: 1.23732 cumulative IPC: 1.03463 (Simulation time: 0 hr 15 min 39 sec) 
Heartbeat CPU 0 instructions: 480000000 cycles: 409953105 heartbeat IPC: 1.23058 cumulative IPC: 1.03899 (Simulation time: 0 hr 15 min 59 sec) 
Heartbeat CPU 0 instructions: 490000000 cycles: 418052171 heartbeat IPC: 1.23471 cumulative IPC: 1.04323 (Simulation time: 0 hr 16 min 19 sec) 
Heartbeat CPU 0 instructions: 500000000 cycles: 426162406 heartbeat IPC: 1.23301 cumulative IPC: 1.04726 (Simulation time: 0 hr 16 min 39 sec) 
Heartbeat CPU 0 instructions: 510000001 cycles: 434220795 heartbeat IPC: 1.24094 cumulative IPC: 1.05126 (Simulation time: 0 hr 17 min 0 sec) 
Heartbeat CPU 0 instructions: 520000000 cycles: 442313214 heartbeat IPC: 1.23572 cumulative IPC: 1.05501 (Simulation time: 0 hr 17 min 20 sec) 
Heartbeat CPU 0 instructions: 530000001 cycles: 450426274 heartbeat IPC: 1.23258 cumulative IPC: 1.05855 (Simulation time: 0 hr 17 min 40 sec) 
Heartbeat CPU 0 instructions: 540000000 cycles: 458691336 heartbeat IPC: 1.20991 cumulative IPC: 1.06157 (Simulation time: 0 hr 18 min 0 sec) 
Heartbeat CPU 0 instructions: 550000001 cycles: 467022707 heartbeat IPC: 1.20028 cumulative IPC: 1.06431 (Simulation time: 0 hr 18 min 21 sec) 
Heartbeat CPU 0 instructions: 560000000 cycles: 475124213 heartbeat IPC: 1.23434 cumulative IPC: 1.0675 (Simulation time: 0 hr 18 min 41 sec) 
Heartbeat CPU 0 instructions: 570000000 cycles: 486160687 heartbeat IPC: 0.906087 cumulative IPC: 1.06347 (Simulation time: 0 hr 19 min 3 sec) 
Heartbeat CPU 0 instructions: 580000000 cycles: 496875539 heartbeat IPC: 0.933284 cumulative IPC: 1.06039 (Simulation time: 0 hr 19 min 25 sec) 
Heartbeat CPU 0 instructions: 590000001 cycles: 507850235 heartbeat IPC: 0.911187 cumulative IPC: 1.05686 (Simulation time: 0 hr 19 min 47 sec) 
Heartbeat CPU 0 instructions: 600000000 cycles: 518554690 heartbeat IPC: 0.93419 cumulative IPC: 1.05409 (Simulation time: 0 hr 20 min 9 sec) 
Finished CPU 0 instructions: 500000001 cycles: 474343048 cumulative IPC: 1.05409 (Simulation time: 0 hr 20 min 9 sec) 

CPU 0 Branch Prediction Accuracy: 99.7422% MPKI: 0.173296
Number of Branches: 33608403 Number of Mispredictions: 86648
Number of LOAD Instructions: 180215231
Number of LOAD Instructions (ROI): 180215231
Number of STORE Instructions: 36067263
Number of STORE Instructions (ROI): 36067263
Total Destination Memory Operands: 38428915
Total Destination Memory Operands (ROI): 38428915
Total Source Memory Operands: 180215231
Total Source Memory Operands (ROI): 180215231
Number of DEPENDED LOADS: 3041309
Number of DEPENDED LOADS (ROI): 3041309
Number of SQ_ADDED: 38428892
Number of SQ_ADDED (ROI): 38428892
Number of LQ_ADDED: 207520598
Number of LQ_ADDED (ROI): 207520598
Number of Instructions read from trace: 600000257

ChampSim completed all CPUs

Region of Interest Statistics

CPU 0 cumulative IPC: 1.05409 instructions: 500000001 cycles: 474343048
ITLB TOTAL     ACCESS:   91781121  HIT:   91781102  MISS:         19
ITLB LOAD      ACCESS:   91781121  HIT:   91781102  MISS:         19
ITLB RFO       ACCESS:          0  HIT:          0  MISS:          0
ITLB PREFETCH  ACCESS:          0  HIT:          0  MISS:          0
ITLB WRITEBACK ACCESS:          0  HIT:          0  MISS:          0
ITLB PREFETCH  REQUESTED:          0  ISSUED:          0  USEFUL:          0  USELESS:          0
ITLB TOTAL MSHR MERGED:         40
ITLB LOAD MSHR MERGED:         40
ITLB RFO MSHR MERGED:          0
ITLB PREFETCH MSHR MERGED:          0
ITLB WRITEBACK MSHR MERGED:          0
ITLB TOTAL ACCESSES:   91781161 HITS:   91781102 MISSES:         59
ITLB LOAD ACCESSES:   91781161 HITS:   91781102 MISSES:         59
ITLB RFO ACCESSES:          0 HITS:          0 MISSES:          0
ITLB PREFETCH ACCESSES:          0 HITS:          0 MISSES:          0
ITLB WRITEBACK ACCESSES:          0 HITS:          0 MISSES:          0
ITLB RQ ACCESS:  500000003
ITLB RQ TO_CACHE:   91781161
ITLB RQ MERGED:  408218842
ITLB RQ FORWARD:          0
ITLB WQ ACCESS:          0
ITLB WQ TO_CACHE:          0
ITLB WQ MERGED:          0
ITLB WQ FORWARD:          0
DTLB TOTAL     ACCESS:  142068417  HIT:  141701955  MISS:     366462
DTLB LOAD      ACCESS:  119426656  HIT:  119113070  MISS:     313586
DTLB RFO       ACCESS:   22641761  HIT:   22588885  MISS:      52876
DTLB PREFETCH  ACCESS:          0  HIT:          0  MISS:          0
DTLB WRITEBACK ACCESS:          0  HIT:          0  MISS:          0
DTLB PREFETCH  REQUESTED:          0  ISSUED:          0  USEFUL:          0  USELESS:          0
DTLB TOTAL MSHR MERGED:     288411
DTLB LOAD MSHR MERGED:     240647
DTLB RFO MSHR MERGED:      47764
DTLB PREFETCH MSHR MERGED:          0
DTLB WRITEBACK MSHR MERGED:          0
DTLB TOTAL ACCESSES:  142356828 HITS:  141701955 MISSES:     654873
DTLB LOAD ACCESSES:  119667303 HITS:  119113070 MISSES:     554233
DTLB RFO ACCESSES:   22689525 HITS:   22588885 MISSES:     100640
DTLB PREFETCH ACCESSES:          0 HITS:          0 MISSES:          0
DTLB WRITEBACK ACCESSES:          0 HITS:          0 MISSES:          0
DTLB RQ ACCESS:  184791668
DTLB RQ TO_CACHE:  142356828
DTLB RQ MERGED:   42434840
DTLB RQ FORWARD:          0
DTLB WQ ACCESS:          0
DTLB WQ TO_CACHE:          0
DTLB WQ MERGED:          0
DTLB WQ FORWARD:          0
L1D TOTAL     ACCESS:  190514995  HIT:  177062687  MISS:   13452308
L1D LOAD      ACCESS:  111987920  HIT:  108756794  MISS:    3231126
L1D RFO       ACCESS:   19151576  HIT:   16369836  MISS:    2781740
L1D PREFETCH  ACCESS:   59375499  HIT:   51936057  MISS:    7439442
L1D WRITEBACK ACCESS:          0  HIT:          0  MISS:          0
L1D PREFETCH  REQUESTED:  116519859  ISSUED:  115161274  USEFUL:    7229666  USELESS:     209776
L1D TOTAL MSHR MERGED:   31120312
L1D LOAD MSHR MERGED:    7206807
L1D RFO MSHR MERGED:    9101184
L1D PREFETCH MSHR MERGED:   14812321
L1D WRITEBACK MSHR MERGED:          0
L1D TOTAL ACCESSES:  221635724 HITS:  177063103 MISSES:   44572621
L1D LOAD ACCESSES:  116519880 HITS:  108756815 MISSES:    7763065
L1D RFO ACCESSES:   28252714 HITS:   16369836 MISSES:   11882878
L1D PREFETCH ACCESSES:   76863130 HITS:   51936452 MISSES:   24926678
L1D WRITEBACK ACCESSES:          0 HITS:          0 MISSES:          0
L1D RQ ACCESS:  156535602
L1D RQ TO_CACHE:  116519862
L1D RQ MERGED:   40015719
L1D RQ FORWARD:          0
L1D WQ ACCESS:   28256066
L1D WQ TO_CACHE:   28252714
L1D WQ MERGED:       3352
L1D WQ FORWARD:        416
L1I TOTAL     ACCESS:  115772947  HIT:  115771999  MISS:        948
L1I LOAD      ACCESS:  115772947  HIT:  115771999  MISS:        948
L1I RFO       ACCESS:          0  HIT:          0  MISS:          0
L1I PREFETCH  ACCESS:          0  HIT:          0  MISS:          0
L1I WRITEBACK ACCESS:          0  HIT:          0  MISS:          0
L1I PREFETCH  REQUESTED:          0  ISSUED:          0  USEFUL:          0  USELESS:          0
L1I TOTAL MSHR MERGED:       1576
L1I LOAD MSHR MERGED:       1576
L1I RFO MSHR MERGED:          0
L1I PREFETCH MSHR MERGED:          0
L1I WRITEBACK MSHR MERGED:          0
L1I TOTAL ACCESSES:  115774523 HITS:  115771999 MISSES:       2524
L1I LOAD ACCESSES:  115774523 HITS:  115771999 MISSES:       2524
L1I RFO ACCESSES:          0 HITS:          0 MISSES:          0
L1I PREFETCH ACCESSES:          0 HITS:          0 MISSES:          0
L1I WRITEBACK ACCESSES:          0 HITS:          0 MISSES:          0
L1I RQ ACCESS:  500000007
L1I RQ TO_CACHE:  115774523
L1I RQ MERGED:  384225484
L1I RQ FORWARD:          0
L1I WQ ACCESS:          0
L1I WQ TO_CACHE:          0
L1I WQ MERGED:          0
L1I WQ FORWARD:          0
L2C TOTAL     ACCESS:   16698047  HIT:    4853828  MISS:   11844219
L2C LOAD      ACCESS:     557172  HIT:      95654  MISS:     461518
L2C RFO       ACCESS:    2781694  HIT:     266789  MISS:    2514905
L2C PREFETCH  ACCESS:   10138531  HIT:    1273009  MISS:    8865522
L2C WRITEBACK ACCESS:    3220650  HIT:    3218376  MISS:       2274
L2C PREFETCH  REQUESTED:      26152  ISSUED:      26152  USEFUL:      93170  USELESS:    8770401
L2C TOTAL MSHR MERGED:        481
L2C LOAD MSHR MERGED:          6
L2C RFO MSHR MERGED:          0
L2C PREFETCH MSHR MERGED:        475
L2C WRITEBACK MSHR MERGED:          0
L2C TOTAL ACCESSES:   16698661 HITS:    4853883 MISSES:   11844778
L2C LOAD ACCESSES:     557206 HITS:      95688 MISSES:     461518
L2C RFO ACCESSES:    2781694 HITS:     266789 MISSES:    2514905
L2C PREFETCH ACCESSES:   10139111 HITS:    1273030 MISSES:    8866081
L2C WRITEBACK ACCESSES:    3220650 HITS:    3218376 MISSES:       2274
L2C RQ ACCESS:    3338900
L2C RQ TO_CACHE:    3338866
L2C RQ MERGED:          0
L2C RQ FORWARD:          0
L2C WQ ACCESS:    3220650
L2C WQ TO_CACHE:    3220650
L2C WQ MERGED:          0
L2C WQ FORWARD:         55
LLC TOTAL     ACCESS:   14742335  HIT:    7734417  MISS:    7007918
LLC LOAD      ACCESS:     461509  HIT:     226830  MISS:     234679
LLC RFO       ACCESS:    2514887  HIT:    1925654  MISS:     589233
LLC PREFETCH  ACCESS:    8865543  HIT:    3345161  MISS:    5520382
LLC WRITEBACK ACCESS:    2900396  HIT:    2236772  MISS:     663624
LLC PREFETCH  REQUESTED:          0  ISSUED:          0  USEFUL:       3156  USELESS:    5523574
LLC TOTAL MSHR MERGED:          1
LLC LOAD MSHR MERGED:          0
LLC RFO MSHR MERGED:          0
LLC PREFETCH MSHR MERGED:          1
LLC WRITEBACK MSHR MERGED:          0
LLC TOTAL ACCESSES:   14742405 HITS:    7734485 MISSES:    7007920
LLC LOAD ACCESSES:     461512 HITS:     226833 MISSES:     234679
LLC RFO ACCESSES:    2514905 HITS:    1925672 MISSES:     589233
LLC PREFETCH ACCESSES:    8865592 HITS:    3345208 MISSES:    5520384
LLC WRITEBACK ACCESSES:    2900396 HITS:    2236772 MISSES:     663624
LLC 0 RQ ACCESS:    2976417
LLC 0 RQ TO_CACHE:    2976396
LLC 0 RQ MERGED:          0
LLC 0 RQ FORWARD:          0
LLC WQ ACCESS:    2900396
LLC WQ TO_CACHE:    2900396
LLC WQ MERGED:          0
LLC WQ FORWARD:         68
Major fault: 0 Minor fault: 57518
CPU 0 L1D next line prefetcher final stats
CPU 0 L2C PC-based stride prefetcher final stats
All Misses: 7601893
All Hits: 8636623
SD Algo Stats - Switches: 0 SRR-Repls: 241393 BRR-Repls: 0

DRAM Statistics
 CHANNEL 0
 RQ ROW_BUFFER_HIT:    3649028  ROW_BUFFER_MISS:    2692479
 DBUS_CONGESTED:    2844957
 WQ ROW_BUFFER_HIT:      87766  ROW_BUFFER_MISS:     771578  FULL:          0

 AVG_CONGESTED_CYCLE: 12
LOADS RETIRED: 157818985
INSTR RETIRED: 500000000
