
*** ChampSim Multicore Out-of-Order Simulator ***

Warmup Instructions: 100000000
Simulation Instructions: 500000000
Number of CPUs: 1
LLC sets: 2048
LLC ways: 16
Clean RRIP Policies: 2213230222132302 Dirty RRIP Policies: 2203130222031302 PSEL Width: 10 Track Set: 4294967295 PSEL Mask: 1 Demote Mask: 40400000404000DS Algo: 0Window size: 0
Off-chip DRAM Size: 4096 MB Channels: 1 Width: 64-bit Data Rate: 1600 MT/s

CPU 0 runs /mnt/beegfs/iconst01/spec2017/Xalancbmk.trace.gz
NOT SORTED
TRACE STRING: /mnt/beegfs/iconst01/spec2017/Xalancbmk.trace.gz
SORTED
TRACE STRING: /mnt/beegfs/iconst01/spec2017/Xalancbmk.trace.gz
INITIAL
TRACE STRING: /mnt/beegfs/iconst01/spec2017/Xalancbmk.trace.gz

champsim_seed used: 913

CPU 0 L1D next line prefetcher
CPU 0 L2C IP-based stride prefetcher
Initialize DRRIP state
Assign rand_sets[0]: 454  LLC: 2048
rand_sets[0]: 454
Assign rand_sets[1]: 1662  LLC: 2048
rand_sets[1]: 1662
Assign rand_sets[2]: 1921  LLC: 2048
rand_sets[2]: 1921
Assign rand_sets[3]: 1131  LLC: 2048
rand_sets[3]: 1131
Assign rand_sets[4]: 331  LLC: 2048
rand_sets[4]: 331
Assign rand_sets[5]: 1531  LLC: 2048
rand_sets[5]: 1531
Assign rand_sets[6]: 482  LLC: 2048
rand_sets[6]: 482
Assign rand_sets[7]: 1275  LLC: 2048
rand_sets[7]: 1275
Assign rand_sets[8]: 1876  LLC: 2048
rand_sets[8]: 1876
Assign rand_sets[9]: 2038  LLC: 2048
rand_sets[9]: 2038
Assign rand_sets[10]: 701  LLC: 2048
rand_sets[10]: 701
Assign rand_sets[11]: 479  LLC: 2048
rand_sets[11]: 479
Assign rand_sets[12]: 892  LLC: 2048
rand_sets[12]: 892
Assign rand_sets[13]: 1820  LLC: 2048
rand_sets[13]: 1820
Assign rand_sets[14]: 1505  LLC: 2048
rand_sets[14]: 1505
Assign rand_sets[15]: 1159  LLC: 2048
rand_sets[15]: 1159
Assign rand_sets[16]: 513  LLC: 2048
rand_sets[16]: 513
Assign rand_sets[17]: 703  LLC: 2048
rand_sets[17]: 703
Assign rand_sets[18]: 561  LLC: 2048
rand_sets[18]: 561
Assign rand_sets[19]: 990  LLC: 2048
rand_sets[19]: 990
Assign rand_sets[20]: 342  LLC: 2048
rand_sets[20]: 342
Assign rand_sets[21]: 882  LLC: 2048
rand_sets[21]: 882
Assign rand_sets[22]: 15  LLC: 2048
rand_sets[22]: 15
Assign rand_sets[23]: 71  LLC: 2048
rand_sets[23]: 71
Assign rand_sets[24]: 1127  LLC: 2048
rand_sets[24]: 1127
Assign rand_sets[25]: 1382  LLC: 2048
rand_sets[25]: 1382
Assign rand_sets[26]: 647  LLC: 2048
rand_sets[26]: 647
Assign rand_sets[27]: 857  LLC: 2048
rand_sets[27]: 857
Assign rand_sets[28]: 1450  LLC: 2048
rand_sets[28]: 1450
Assign rand_sets[29]: 1160  LLC: 2048
rand_sets[29]: 1160
Assign rand_sets[30]: 1852  LLC: 2048
rand_sets[30]: 1852
Assign rand_sets[31]: 1881  LLC: 2048
rand_sets[31]: 1881
Assign rand_sets[32]: 1770  LLC: 2048
rand_sets[32]: 1770
Assign rand_sets[33]: 1622  LLC: 2048
rand_sets[33]: 1622
Assign rand_sets[34]: 275  LLC: 2048
rand_sets[34]: 275
Assign rand_sets[35]: 635  LLC: 2048
rand_sets[35]: 635
Assign rand_sets[36]: 466  LLC: 2048
rand_sets[36]: 466
Assign rand_sets[37]: 1413  LLC: 2048
rand_sets[37]: 1413
Assign rand_sets[38]: 417  LLC: 2048
rand_sets[38]: 417
Assign rand_sets[39]: 472  LLC: 2048
rand_sets[39]: 472
Assign rand_sets[40]: 1340  LLC: 2048
rand_sets[40]: 1340
Assign rand_sets[41]: 852  LLC: 2048
rand_sets[41]: 852
Assign rand_sets[42]: 1365  LLC: 2048
rand_sets[42]: 1365
Assign rand_sets[43]: 47  LLC: 2048
rand_sets[43]: 47
Assign rand_sets[44]: 823  LLC: 2048
rand_sets[44]: 823
Assign rand_sets[45]: 686  LLC: 2048
rand_sets[45]: 686
Assign rand_sets[46]: 1637  LLC: 2048
rand_sets[46]: 1637
Assign rand_sets[47]: 1115  LLC: 2048
rand_sets[47]: 1115
Assign rand_sets[48]: 986  LLC: 2048
rand_sets[48]: 986
Assign rand_sets[49]: 258  LLC: 2048
rand_sets[49]: 258
Assign rand_sets[50]: 633  LLC: 2048
rand_sets[50]: 633
Assign rand_sets[51]: 920  LLC: 2048
rand_sets[51]: 920
Assign rand_sets[52]: 204  LLC: 2048
rand_sets[52]: 204
Assign rand_sets[53]: 227  LLC: 2048
rand_sets[53]: 227
Assign rand_sets[54]: 1818  LLC: 2048
rand_sets[54]: 1818
Assign rand_sets[55]: 886  LLC: 2048
rand_sets[55]: 886
Assign rand_sets[56]: 1422  LLC: 2048
rand_sets[56]: 1422
Assign rand_sets[57]: 607  LLC: 2048
rand_sets[57]: 607
Assign rand_sets[58]: 217  LLC: 2048
rand_sets[58]: 217
Assign rand_sets[59]: 1945  LLC: 2048
rand_sets[59]: 1945
Assign rand_sets[60]: 143  LLC: 2048
rand_sets[60]: 143
Assign rand_sets[61]: 1311  LLC: 2048
rand_sets[61]: 1311
Assign rand_sets[62]: 319  LLC: 2048
rand_sets[62]: 319
Assign rand_sets[63]: 1846  LLC: 2048
rand_sets[63]: 1846
 CLEAN-RRIP-POLICY-1: 2-2-1-3-2-3-0-2- CLEAN-RRIP-POLICY-2: 2-2-1-3-2-3-0-2-
 DIRTY-RRIP-POLICY-1: 2-2-0-3-1-3-0-2- DIRTY-RRIP-POLICY-2: 2-2-0-3-1-3-0-2-
 PSEL width: 10
Heartbeat CPU 0 instructions: 10000003 cycles: 4592544 heartbeat IPC: 2.17744 cumulative IPC: 2.17744 (Simulation time: 0 hr 0 min 15 sec) 
Heartbeat CPU 0 instructions: 20000000 cycles: 8984820 heartbeat IPC: 2.27672 cumulative IPC: 2.22598 (Simulation time: 0 hr 0 min 28 sec) 
Heartbeat CPU 0 instructions: 30000000 cycles: 13393677 heartbeat IPC: 2.26816 cumulative IPC: 2.23986 (Simulation time: 0 hr 0 min 42 sec) 
Heartbeat CPU 0 instructions: 40000000 cycles: 18021942 heartbeat IPC: 2.16064 cumulative IPC: 2.21952 (Simulation time: 0 hr 0 min 57 sec) 
Heartbeat CPU 0 instructions: 50000002 cycles: 22438155 heartbeat IPC: 2.26438 cumulative IPC: 2.22835 (Simulation time: 0 hr 1 min 11 sec) 
Heartbeat CPU 0 instructions: 60000000 cycles: 27093538 heartbeat IPC: 2.14805 cumulative IPC: 2.21455 (Simulation time: 0 hr 1 min 27 sec) 
Heartbeat CPU 0 instructions: 70000003 cycles: 31498308 heartbeat IPC: 2.27027 cumulative IPC: 2.22234 (Simulation time: 0 hr 1 min 41 sec) 
Heartbeat CPU 0 instructions: 80000000 cycles: 35918695 heartbeat IPC: 2.26224 cumulative IPC: 2.22725 (Simulation time: 0 hr 1 min 54 sec) 
Heartbeat CPU 0 instructions: 90000002 cycles: 40373675 heartbeat IPC: 2.24468 cumulative IPC: 2.22918 (Simulation time: 0 hr 2 min 8 sec) 
Heartbeat CPU 0 instructions: 100000000 cycles: 44845120 heartbeat IPC: 2.23641 cumulative IPC: 2.2299 (Simulation time: 0 hr 2 min 22 sec) 

Warmup complete CPU 0 instructions: 100000003 cycles: 44845121 (Simulation time: 0 hr 2 min 22 sec) 

Heartbeat CPU 0 instructions: 110000000 cycles: 71868427 heartbeat IPC: 0.370051 cumulative IPC: 0.370051 (Simulation time: 0 hr 2 min 52 sec) 
Heartbeat CPU 0 instructions: 120000000 cycles: 100443456 heartbeat IPC: 0.349956 cumulative IPC: 0.359723 (Simulation time: 0 hr 3 min 24 sec) 
Heartbeat CPU 0 instructions: 130000000 cycles: 123835444 heartbeat IPC: 0.427497 cumulative IPC: 0.379793 (Simulation time: 0 hr 3 min 51 sec) 
Heartbeat CPU 0 instructions: 140000000 cycles: 146474919 heartbeat IPC: 0.441706 cumulative IPC: 0.393585 (Simulation time: 0 hr 4 min 18 sec) 
Heartbeat CPU 0 instructions: 150000000 cycles: 170870879 heartbeat IPC: 0.409904 cumulative IPC: 0.396744 (Simulation time: 0 hr 4 min 47 sec) 
Heartbeat CPU 0 instructions: 160000000 cycles: 195828096 heartbeat IPC: 0.400686 cumulative IPC: 0.397396 (Simulation time: 0 hr 5 min 15 sec) 
Heartbeat CPU 0 instructions: 170000002 cycles: 217191001 heartbeat IPC: 0.468101 cumulative IPC: 0.40616 (Simulation time: 0 hr 5 min 41 sec) 
Heartbeat CPU 0 instructions: 180000000 cycles: 239645020 heartbeat IPC: 0.445354 cumulative IPC: 0.410678 (Simulation time: 0 hr 6 min 9 sec) 
Heartbeat CPU 0 instructions: 190000000 cycles: 258595872 heartbeat IPC: 0.527681 cumulative IPC: 0.421051 (Simulation time: 0 hr 6 min 33 sec) 
Heartbeat CPU 0 instructions: 200000000 cycles: 279545676 heartbeat IPC: 0.477331 cumulative IPC: 0.426075 (Simulation time: 0 hr 6 min 59 sec) 
Heartbeat CPU 0 instructions: 210000001 cycles: 306005439 heartbeat IPC: 0.377932 cumulative IPC: 0.421197 (Simulation time: 0 hr 7 min 29 sec) 
Heartbeat CPU 0 instructions: 220000000 cycles: 331818040 heartbeat IPC: 0.387408 cumulative IPC: 0.418158 (Simulation time: 0 hr 7 min 58 sec) 
Heartbeat CPU 0 instructions: 230000000 cycles: 354133547 heartbeat IPC: 0.448119 cumulative IPC: 0.42032 (Simulation time: 0 hr 8 min 26 sec) 
Heartbeat CPU 0 instructions: 240000000 cycles: 379970060 heartbeat IPC: 0.387049 cumulative IPC: 0.417755 (Simulation time: 0 hr 8 min 55 sec) 
Heartbeat CPU 0 instructions: 250000001 cycles: 404936598 heartbeat IPC: 0.400536 cumulative IPC: 0.416561 (Simulation time: 0 hr 9 min 24 sec) 
Heartbeat CPU 0 instructions: 260000000 cycles: 425839798 heartbeat IPC: 0.478396 cumulative IPC: 0.419953 (Simulation time: 0 hr 9 min 50 sec) 
Heartbeat CPU 0 instructions: 270000000 cycles: 447358571 heartbeat IPC: 0.464711 cumulative IPC: 0.422346 (Simulation time: 0 hr 10 min 16 sec) 
Heartbeat CPU 0 instructions: 280000000 cycles: 475275388 heartbeat IPC: 0.358207 cumulative IPC: 0.418186 (Simulation time: 0 hr 10 min 47 sec) 
Heartbeat CPU 0 instructions: 290000000 cycles: 496380108 heartbeat IPC: 0.473828 cumulative IPC: 0.420787 (Simulation time: 0 hr 11 min 13 sec) 
Heartbeat CPU 0 instructions: 300000000 cycles: 516802385 heartbeat IPC: 0.489661 cumulative IPC: 0.423767 (Simulation time: 0 hr 11 min 38 sec) 
Heartbeat CPU 0 instructions: 310000000 cycles: 535942897 heartbeat IPC: 0.522452 cumulative IPC: 0.427613 (Simulation time: 0 hr 12 min 3 sec) 
Heartbeat CPU 0 instructions: 320000000 cycles: 565482710 heartbeat IPC: 0.338526 cumulative IPC: 0.422559 (Simulation time: 0 hr 12 min 35 sec) 
Heartbeat CPU 0 instructions: 330000001 cycles: 584901018 heartbeat IPC: 0.514978 cumulative IPC: 0.425882 (Simulation time: 0 hr 13 min 0 sec) 
Heartbeat CPU 0 instructions: 340000000 cycles: 604155415 heartbeat IPC: 0.519362 cumulative IPC: 0.4291 (Simulation time: 0 hr 13 min 25 sec) 
Heartbeat CPU 0 instructions: 350000001 cycles: 629403299 heartbeat IPC: 0.396073 cumulative IPC: 0.427673 (Simulation time: 0 hr 13 min 54 sec) 
Heartbeat CPU 0 instructions: 360000000 cycles: 651721159 heartbeat IPC: 0.448072 cumulative IPC: 0.428424 (Simulation time: 0 hr 14 min 21 sec) 
Heartbeat CPU 0 instructions: 370000001 cycles: 676861824 heartbeat IPC: 0.397762 cumulative IPC: 0.427204 (Simulation time: 0 hr 14 min 50 sec) 
Heartbeat CPU 0 instructions: 380000000 cycles: 700048875 heartbeat IPC: 0.431275 cumulative IPC: 0.427348 (Simulation time: 0 hr 15 min 17 sec) 
Heartbeat CPU 0 instructions: 390000000 cycles: 718826734 heartbeat IPC: 0.532542 cumulative IPC: 0.430279 (Simulation time: 0 hr 15 min 42 sec) 
Heartbeat CPU 0 instructions: 400000000 cycles: 738629527 heartbeat IPC: 0.504979 cumulative IPC: 0.432411 (Simulation time: 0 hr 16 min 7 sec) 
Heartbeat CPU 0 instructions: 410000001 cycles: 764954068 heartbeat IPC: 0.379874 cumulative IPC: 0.43049 (Simulation time: 0 hr 16 min 37 sec) 
Heartbeat CPU 0 instructions: 420000000 cycles: 789609574 heartbeat IPC: 0.405589 cumulative IPC: 0.429666 (Simulation time: 0 hr 17 min 5 sec) 
Heartbeat CPU 0 instructions: 430000002 cycles: 810774142 heartbeat IPC: 0.472488 cumulative IPC: 0.430849 (Simulation time: 0 hr 17 min 31 sec) 
Heartbeat CPU 0 instructions: 440000000 cycles: 830925435 heartbeat IPC: 0.496246 cumulative IPC: 0.432526 (Simulation time: 0 hr 17 min 57 sec) 
Heartbeat CPU 0 instructions: 450000002 cycles: 857801092 heartbeat IPC: 0.372084 cumulative IPC: 0.430528 (Simulation time: 0 hr 18 min 26 sec) 
Heartbeat CPU 0 instructions: 460000000 cycles: 883882067 heartbeat IPC: 0.383421 cumulative IPC: 0.429063 (Simulation time: 0 hr 18 min 56 sec) 
Heartbeat CPU 0 instructions: 470000002 cycles: 909857715 heartbeat IPC: 0.384976 cumulative IPC: 0.427739 (Simulation time: 0 hr 19 min 25 sec) 
Heartbeat CPU 0 instructions: 480000000 cycles: 934147187 heartbeat IPC: 0.411701 cumulative IPC: 0.427301 (Simulation time: 0 hr 19 min 53 sec) 
Heartbeat CPU 0 instructions: 490000000 cycles: 954994202 heartbeat IPC: 0.479685 cumulative IPC: 0.428501 (Simulation time: 0 hr 20 min 19 sec) 
Heartbeat CPU 0 instructions: 500000000 cycles: 979868371 heartbeat IPC: 0.402023 cumulative IPC: 0.427797 (Simulation time: 0 hr 20 min 48 sec) 
Heartbeat CPU 0 instructions: 510000000 cycles: 1004929170 heartbeat IPC: 0.39903 cumulative IPC: 0.427046 (Simulation time: 0 hr 21 min 16 sec) 
Heartbeat CPU 0 instructions: 520000000 cycles: 1025922460 heartbeat IPC: 0.476343 cumulative IPC: 0.428101 (Simulation time: 0 hr 21 min 42 sec) 
Heartbeat CPU 0 instructions: 530000003 cycles: 1051656198 heartbeat IPC: 0.388595 cumulative IPC: 0.427091 (Simulation time: 0 hr 22 min 11 sec) 
Heartbeat CPU 0 instructions: 540000000 cycles: 1074609379 heartbeat IPC: 0.435669 cumulative IPC: 0.427282 (Simulation time: 0 hr 22 min 39 sec) 
Heartbeat CPU 0 instructions: 550000000 cycles: 1100183477 heartbeat IPC: 0.391021 cumulative IPC: 0.426404 (Simulation time: 0 hr 23 min 7 sec) 
Heartbeat CPU 0 instructions: 560000000 cycles: 1123278017 heartbeat IPC: 0.433003 cumulative IPC: 0.426545 (Simulation time: 0 hr 23 min 35 sec) 
Heartbeat CPU 0 instructions: 570000002 cycles: 1146737509 heartbeat IPC: 0.426267 cumulative IPC: 0.426539 (Simulation time: 0 hr 24 min 3 sec) 
Heartbeat CPU 0 instructions: 580000000 cycles: 1167655526 heartbeat IPC: 0.478057 cumulative IPC: 0.427499 (Simulation time: 0 hr 24 min 29 sec) 
Heartbeat CPU 0 instructions: 590000001 cycles: 1191620763 heartbeat IPC: 0.417271 cumulative IPC: 0.427285 (Simulation time: 0 hr 24 min 57 sec) 
Heartbeat CPU 0 instructions: 600000000 cycles: 1210757374 heartbeat IPC: 0.522559 cumulative IPC: 0.428849 (Simulation time: 0 hr 25 min 22 sec) 
Finished CPU 0 instructions: 500000000 cycles: 1165912274 cumulative IPC: 0.428849 (Simulation time: 0 hr 25 min 22 sec) 

CPU 0 Branch Prediction Accuracy: 99.5434% MPKI: 1.33026
Number of Branches: 145676990 Number of Mispredictions: 665128
Number of LOAD Instructions: 188863207
Number of LOAD Instructions (ROI): 188863207
Number of STORE Instructions: 7332002
Number of STORE Instructions (ROI): 7332002
Total Destination Memory Operands: 10029285
Total Destination Memory Operands (ROI): 10029285
Total Source Memory Operands: 188863207
Total Source Memory Operands (ROI): 188863207
Number of DEPENDED LOADS: 291473
Number of DEPENDED LOADS (ROI): 291473
Number of SQ_ADDED: 10029285
Number of SQ_ADDED (ROI): 10029285
Number of LQ_ADDED: 200649598
Number of LQ_ADDED (ROI): 200649598
Number of Instructions read from trace: 600000010

ChampSim completed all CPUs

Region of Interest Statistics

CPU 0 cumulative IPC: 0.428849 instructions: 500000000 cycles: 1165912274
ITLB TOTAL     ACCESS:  145824111  HIT:  145784584  MISS:      39527
ITLB LOAD      ACCESS:  145824111  HIT:  145784584  MISS:      39527
ITLB RFO       ACCESS:          0  HIT:          0  MISS:          0
ITLB PREFETCH  ACCESS:          0  HIT:          0  MISS:          0
ITLB WRITEBACK ACCESS:          0  HIT:          0  MISS:          0
ITLB PREFETCH  REQUESTED:          0  ISSUED:          0  USEFUL:          0  USELESS:          0
ITLB TOTAL MSHR MERGED:      57360
ITLB LOAD MSHR MERGED:      57360
ITLB RFO MSHR MERGED:          0
ITLB PREFETCH MSHR MERGED:          0
ITLB WRITEBACK MSHR MERGED:          0
ITLB TOTAL ACCESSES:  145881471 HITS:  145784584 MISSES:      96887
ITLB LOAD ACCESSES:  145881471 HITS:  145784584 MISSES:      96887
ITLB RFO ACCESSES:          0 HITS:          0 MISSES:          0
ITLB PREFETCH ACCESSES:          0 HITS:          0 MISSES:          0
ITLB WRITEBACK ACCESSES:          0 HITS:          0 MISSES:          0
ITLB RQ ACCESS:  499999754
ITLB RQ TO_CACHE:  145881471
ITLB RQ MERGED:  354118283
ITLB RQ FORWARD:          0
ITLB WQ ACCESS:          0
ITLB WQ TO_CACHE:          0
ITLB WQ MERGED:          0
ITLB WQ FORWARD:          0
DTLB TOTAL     ACCESS:  135199302  HIT:  134030941  MISS:    1168361
DTLB LOAD      ACCESS:  127158491  HIT:  125999236  MISS:    1159255
DTLB RFO       ACCESS:    8040811  HIT:    8031705  MISS:       9106
DTLB PREFETCH  ACCESS:          0  HIT:          0  MISS:          0
DTLB WRITEBACK ACCESS:          0  HIT:          0  MISS:          0
DTLB PREFETCH  REQUESTED:          0  ISSUED:          0  USEFUL:          0  USELESS:          0
DTLB TOTAL MSHR MERGED:     579221
DTLB LOAD MSHR MERGED:     574843
DTLB RFO MSHR MERGED:       4378
DTLB PREFETCH MSHR MERGED:          0
DTLB WRITEBACK MSHR MERGED:          0
DTLB TOTAL ACCESSES:  135778523 HITS:  134030941 MISSES:    1747582
DTLB LOAD ACCESSES:  127733334 HITS:  125999236 MISSES:    1734098
DTLB RFO ACCESSES:    8045189 HITS:    8031705 MISSES:      13484
DTLB PREFETCH ACCESSES:          0 HITS:          0 MISSES:          0
DTLB WRITEBACK ACCESSES:          0 HITS:          0 MISSES:          0
DTLB RQ ACCESS:  165762868
DTLB RQ TO_CACHE:  135778523
DTLB RQ MERGED:   29984345
DTLB RQ FORWARD:          0
DTLB WQ ACCESS:          0
DTLB WQ TO_CACHE:          0
DTLB WQ MERGED:          0
DTLB WQ FORWARD:          0
L1D TOTAL     ACCESS:  157083445  HIT:  139767746  MISS:   17315699
L1D LOAD      ACCESS:   90000790  HIT:   78864157  MISS:   11136633
L1D RFO       ACCESS:    8499368  HIT:    8412208  MISS:      87160
L1D PREFETCH  ACCESS:   58583287  HIT:   52491381  MISS:    6091906
L1D WRITEBACK ACCESS:          0  HIT:          0  MISS:          0
L1D PREFETCH  REQUESTED:   93720348  ISSUED:   92852729  USEFUL:    2010504  USELESS:    4081475
L1D TOTAL MSHR MERGED:   14980313
L1D LOAD MSHR MERGED:    7112481
L1D RFO MSHR MERGED:     125078
L1D PREFETCH MSHR MERGED:    7742754
L1D WRITEBACK MSHR MERGED:          0
L1D TOTAL ACCESSES:  172063912 HITS:  139767900 MISSES:   32296012
L1D LOAD ACCESSES:   93720351 HITS:   78864160 MISSES:   14856191
L1D RFO ACCESSES:    8622611 HITS:    8412208 MISSES:     210403
L1D PREFETCH ACCESSES:   69720950 HITS:   52491532 MISSES:   17229418
L1D WRITEBACK ACCESSES:          0 HITS:          0 MISSES:          0
L1D RQ ACCESS:  157123662
L1D RQ TO_CACHE:   93720348
L1D RQ MERGED:   63403311
L1D RQ FORWARD:          0
L1D WQ ACCESS:    8639208
L1D WQ TO_CACHE:    8622611
L1D WQ MERGED:      16597
L1D WQ FORWARD:        154
L1I TOTAL     ACCESS:  178805030  HIT:  178141370  MISS:     663660
L1I LOAD      ACCESS:  178805030  HIT:  178141370  MISS:     663660
L1I RFO       ACCESS:          0  HIT:          0  MISS:          0
L1I PREFETCH  ACCESS:          0  HIT:          0  MISS:          0
L1I WRITEBACK ACCESS:          0  HIT:          0  MISS:          0
L1I PREFETCH  REQUESTED:          0  ISSUED:          0  USEFUL:          0  USELESS:          0
L1I TOTAL MSHR MERGED:     596779
L1I LOAD MSHR MERGED:     596779
L1I RFO MSHR MERGED:          0
L1I PREFETCH MSHR MERGED:          0
L1I WRITEBACK MSHR MERGED:          0
L1I TOTAL ACCESSES:  179401809 HITS:  178141370 MISSES:    1260439
L1I LOAD ACCESSES:  179401809 HITS:  178141370 MISSES:    1260439
L1I RFO ACCESSES:          0 HITS:          0 MISSES:          0
L1I PREFETCH ACCESSES:          0 HITS:          0 MISSES:          0
L1I WRITEBACK ACCESSES:          0 HITS:          0 MISSES:          0
L1I RQ ACCESS:  499999757
L1I RQ TO_CACHE:  179401809
L1I RQ MERGED:  320597948
L1I RQ FORWARD:          0
L1I WQ ACCESS:          0
L1I WQ TO_CACHE:          0
L1I WQ MERGED:          0
L1I WQ FORWARD:          0
L2C TOTAL     ACCESS:   19277830  HIT:    2058013  MISS:   17219817
L2C LOAD      ACCESS:    8407265  HIT:     951465  MISS:    7455800
L2C RFO       ACCESS:      85302  HIT:      53740  MISS:      31562
L2C PREFETCH  ACCESS:   10500230  HIT:     770586  MISS:    9729644
L2C WRITEBACK ACCESS:     285033  HIT:     282222  MISS:       2811
L2C PREFETCH  REQUESTED:    1017913  ISSUED:    1017913  USEFUL:     275049  USELESS:    9453688
L2C TOTAL MSHR MERGED:        984
L2C LOAD MSHR MERGED:        210
L2C RFO MSHR MERGED:          1
L2C PREFETCH MSHR MERGED:        773
L2C WRITEBACK MSHR MERGED:          0
L2C TOTAL ACCESSES:   19281045 HITS:    2058206 MISSES:   17222839
L2C LOAD ACCESSES:    8407370 HITS:     951570 MISSES:    7455800
L2C RFO ACCESSES:      85325 HITS:      53763 MISSES:      31562
L2C PREFETCH ACCESSES:   10503317 HITS:     770651 MISSES:    9732666
L2C WRITEBACK ACCESSES:     285033 HITS:     282222 MISSES:       2811
L2C RQ ACCESS:    8492695
L2C RQ TO_CACHE:    8492567
L2C RQ MERGED:          0
L2C RQ FORWARD:          0
L2C WQ ACCESS:     285033
L2C WQ TO_CACHE:     285033
L2C WQ MERGED:          0
L2C WQ FORWARD:        193
LLC TOTAL     ACCESS:   17325097  HIT:    4948841  MISS:   12376256
LLC LOAD      ACCESS:    7455590  HIT:    3914450  MISS:    3541140
LLC RFO       ACCESS:      31561  HIT:      16877  MISS:      14684
LLC PREFETCH  ACCESS:    9731888  HIT:     933043  MISS:    8798845
LLC WRITEBACK ACCESS:     106058  HIT:      84471  MISS:      21587
LLC PREFETCH  REQUESTED:          0  ISSUED:          0  USEFUL:       2061  USELESS:    8796042
LLC TOTAL MSHR MERGED:          5
LLC LOAD MSHR MERGED:          0
LLC RFO MSHR MERGED:          0
LLC PREFETCH MSHR MERGED:          5
LLC WRITEBACK MSHR MERGED:          0
LLC TOTAL ACCESSES:   17325102 HITS:    4948841 MISSES:   12376261
LLC LOAD ACCESSES:    7455590 HITS:    3914450 MISSES:    3541140
LLC RFO ACCESSES:      31561 HITS:      16877 MISSES:      14684
LLC PREFETCH ACCESSES:    9731893 HITS:     933043 MISSES:    8798850
LLC WRITEBACK ACCESSES:     106058 HITS:      84471 MISSES:      21587
LLC 0 RQ ACCESS:    7487151
LLC 0 RQ TO_CACHE:    7487151
LLC 0 RQ MERGED:          0
LLC 0 RQ FORWARD:          0
LLC WQ ACCESS:     106058
LLC WQ TO_CACHE:     106058
LLC WQ MERGED:          0
LLC WQ FORWARD:          0
Major fault: 0 Minor fault: 6432
CPU 0 L1D next line prefetcher final stats
CPU 0 L2C PC-based stride prefetcher final stats
All Misses: 14608039
All Hits: 5936720
SD Algo Stats - Switches: 0 SRR-Repls: 3786506 BRR-Repls: 0

DRAM Statistics
 CHANNEL 0
 RQ ROW_BUFFER_HIT:    9334718  ROW_BUFFER_MISS:    3014834
 DBUS_CONGESTED:    5791491
 WQ ROW_BUFFER_HIT:       1499  ROW_BUFFER_MISS:      41744  FULL:          0

 AVG_CONGESTED_CYCLE: 12
LOADS RETIRED: 157382665
INSTR RETIRED: 500000000
