
*** ChampSim Multicore Out-of-Order Simulator ***

Warmup Instructions: 100000000
Simulation Instructions: 500000000
Number of CPUs: 1
LLC sets: 2048
LLC ways: 16
Clean RRIP Policies: 2213230222132302 Dirty RRIP Policies: 2203130222031302 PSEL Width: 10 Track Set: 4294967295 PSEL Mask: 1 Demote Mask: 40400000404000DS Algo: 0Window size: 0
Off-chip DRAM Size: 4096 MB Channels: 1 Width: 64-bit Data Rate: 1600 MT/s

CPU 0 runs /mnt/beegfs/iconst01/spec2017/Xz.trace.gz
NOT SORTED
TRACE STRING: /mnt/beegfs/iconst01/spec2017/Xz.trace.gz
SORTED
TRACE STRING: /mnt/beegfs/iconst01/spec2017/Xz.trace.gz
INITIAL
TRACE STRING: /mnt/beegfs/iconst01/spec2017/Xz.trace.gz

champsim_seed used: 210

CPU 0 L1D next line prefetcher
CPU 0 L2C IP-based stride prefetcher
Initialize DRRIP state
Assign rand_sets[0]: 454  LLC: 2048
rand_sets[0]: 454
Assign rand_sets[1]: 1662  LLC: 2048
rand_sets[1]: 1662
Assign rand_sets[2]: 1921  LLC: 2048
rand_sets[2]: 1921
Assign rand_sets[3]: 1131  LLC: 2048
rand_sets[3]: 1131
Assign rand_sets[4]: 331  LLC: 2048
rand_sets[4]: 331
Assign rand_sets[5]: 1531  LLC: 2048
rand_sets[5]: 1531
Assign rand_sets[6]: 482  LLC: 2048
rand_sets[6]: 482
Assign rand_sets[7]: 1275  LLC: 2048
rand_sets[7]: 1275
Assign rand_sets[8]: 1876  LLC: 2048
rand_sets[8]: 1876
Assign rand_sets[9]: 2038  LLC: 2048
rand_sets[9]: 2038
Assign rand_sets[10]: 701  LLC: 2048
rand_sets[10]: 701
Assign rand_sets[11]: 479  LLC: 2048
rand_sets[11]: 479
Assign rand_sets[12]: 892  LLC: 2048
rand_sets[12]: 892
Assign rand_sets[13]: 1820  LLC: 2048
rand_sets[13]: 1820
Assign rand_sets[14]: 1505  LLC: 2048
rand_sets[14]: 1505
Assign rand_sets[15]: 1159  LLC: 2048
rand_sets[15]: 1159
Assign rand_sets[16]: 513  LLC: 2048
rand_sets[16]: 513
Assign rand_sets[17]: 703  LLC: 2048
rand_sets[17]: 703
Assign rand_sets[18]: 561  LLC: 2048
rand_sets[18]: 561
Assign rand_sets[19]: 990  LLC: 2048
rand_sets[19]: 990
Assign rand_sets[20]: 342  LLC: 2048
rand_sets[20]: 342
Assign rand_sets[21]: 882  LLC: 2048
rand_sets[21]: 882
Assign rand_sets[22]: 15  LLC: 2048
rand_sets[22]: 15
Assign rand_sets[23]: 71  LLC: 2048
rand_sets[23]: 71
Assign rand_sets[24]: 1127  LLC: 2048
rand_sets[24]: 1127
Assign rand_sets[25]: 1382  LLC: 2048
rand_sets[25]: 1382
Assign rand_sets[26]: 647  LLC: 2048
rand_sets[26]: 647
Assign rand_sets[27]: 857  LLC: 2048
rand_sets[27]: 857
Assign rand_sets[28]: 1450  LLC: 2048
rand_sets[28]: 1450
Assign rand_sets[29]: 1160  LLC: 2048
rand_sets[29]: 1160
Assign rand_sets[30]: 1852  LLC: 2048
rand_sets[30]: 1852
Assign rand_sets[31]: 1881  LLC: 2048
rand_sets[31]: 1881
Assign rand_sets[32]: 1770  LLC: 2048
rand_sets[32]: 1770
Assign rand_sets[33]: 1622  LLC: 2048
rand_sets[33]: 1622
Assign rand_sets[34]: 275  LLC: 2048
rand_sets[34]: 275
Assign rand_sets[35]: 635  LLC: 2048
rand_sets[35]: 635
Assign rand_sets[36]: 466  LLC: 2048
rand_sets[36]: 466
Assign rand_sets[37]: 1413  LLC: 2048
rand_sets[37]: 1413
Assign rand_sets[38]: 417  LLC: 2048
rand_sets[38]: 417
Assign rand_sets[39]: 472  LLC: 2048
rand_sets[39]: 472
Assign rand_sets[40]: 1340  LLC: 2048
rand_sets[40]: 1340
Assign rand_sets[41]: 852  LLC: 2048
rand_sets[41]: 852
Assign rand_sets[42]: 1365  LLC: 2048
rand_sets[42]: 1365
Assign rand_sets[43]: 47  LLC: 2048
rand_sets[43]: 47
Assign rand_sets[44]: 823  LLC: 2048
rand_sets[44]: 823
Assign rand_sets[45]: 686  LLC: 2048
rand_sets[45]: 686
Assign rand_sets[46]: 1637  LLC: 2048
rand_sets[46]: 1637
Assign rand_sets[47]: 1115  LLC: 2048
rand_sets[47]: 1115
Assign rand_sets[48]: 986  LLC: 2048
rand_sets[48]: 986
Assign rand_sets[49]: 258  LLC: 2048
rand_sets[49]: 258
Assign rand_sets[50]: 633  LLC: 2048
rand_sets[50]: 633
Assign rand_sets[51]: 920  LLC: 2048
rand_sets[51]: 920
Assign rand_sets[52]: 204  LLC: 2048
rand_sets[52]: 204
Assign rand_sets[53]: 227  LLC: 2048
rand_sets[53]: 227
Assign rand_sets[54]: 1818  LLC: 2048
rand_sets[54]: 1818
Assign rand_sets[55]: 886  LLC: 2048
rand_sets[55]: 886
Assign rand_sets[56]: 1422  LLC: 2048
rand_sets[56]: 1422
Assign rand_sets[57]: 607  LLC: 2048
rand_sets[57]: 607
Assign rand_sets[58]: 217  LLC: 2048
rand_sets[58]: 217
Assign rand_sets[59]: 1945  LLC: 2048
rand_sets[59]: 1945
Assign rand_sets[60]: 143  LLC: 2048
rand_sets[60]: 143
Assign rand_sets[61]: 1311  LLC: 2048
rand_sets[61]: 1311
Assign rand_sets[62]: 319  LLC: 2048
rand_sets[62]: 319
Assign rand_sets[63]: 1846  LLC: 2048
rand_sets[63]: 1846
 CLEAN-RRIP-POLICY-1: 2-2-1-3-2-3-0-2- CLEAN-RRIP-POLICY-2: 2-2-1-3-2-3-0-2-
 DIRTY-RRIP-POLICY-1: 2-2-0-3-1-3-0-2- DIRTY-RRIP-POLICY-2: 2-2-0-3-1-3-0-2-
 PSEL width: 10
Heartbeat CPU 0 instructions: 10000000 cycles: 4305270 heartbeat IPC: 2.32273 cumulative IPC: 2.32273 (Simulation time: 0 hr 0 min 11 sec) 
Heartbeat CPU 0 instructions: 20000000 cycles: 8617101 heartbeat IPC: 2.3192 cumulative IPC: 2.32097 (Simulation time: 0 hr 0 min 23 sec) 
Heartbeat CPU 0 instructions: 30000003 cycles: 13160979 heartbeat IPC: 2.20076 cumulative IPC: 2.27947 (Simulation time: 0 hr 0 min 35 sec) 
Heartbeat CPU 0 instructions: 40000000 cycles: 17515452 heartbeat IPC: 2.29649 cumulative IPC: 2.2837 (Simulation time: 0 hr 0 min 47 sec) 
Heartbeat CPU 0 instructions: 50000001 cycles: 21878253 heartbeat IPC: 2.29211 cumulative IPC: 2.28537 (Simulation time: 0 hr 0 min 58 sec) 
Heartbeat CPU 0 instructions: 60000000 cycles: 26178435 heartbeat IPC: 2.32548 cumulative IPC: 2.29196 (Simulation time: 0 hr 1 min 10 sec) 
Heartbeat CPU 0 instructions: 70000001 cycles: 30244310 heartbeat IPC: 2.4595 cumulative IPC: 2.31449 (Simulation time: 0 hr 1 min 20 sec) 
Heartbeat CPU 0 instructions: 80000000 cycles: 34523065 heartbeat IPC: 2.33713 cumulative IPC: 2.31729 (Simulation time: 0 hr 1 min 32 sec) 
Heartbeat CPU 0 instructions: 90000001 cycles: 38739662 heartbeat IPC: 2.37158 cumulative IPC: 2.3232 (Simulation time: 0 hr 1 min 43 sec) 
Heartbeat CPU 0 instructions: 100000000 cycles: 42980041 heartbeat IPC: 2.35828 cumulative IPC: 2.32666 (Simulation time: 0 hr 1 min 54 sec) 

Warmup complete CPU 0 instructions: 100000001 cycles: 42980042 (Simulation time: 0 hr 1 min 54 sec) 

Heartbeat CPU 0 instructions: 110000000 cycles: 53109433 heartbeat IPC: 0.987226 cumulative IPC: 0.987226 (Simulation time: 0 hr 2 min 10 sec) 
Heartbeat CPU 0 instructions: 120000000 cycles: 63730695 heartbeat IPC: 0.941508 cumulative IPC: 0.963825 (Simulation time: 0 hr 2 min 27 sec) 
Heartbeat CPU 0 instructions: 130000001 cycles: 74329792 heartbeat IPC: 0.943477 cumulative IPC: 0.956945 (Simulation time: 0 hr 2 min 44 sec) 
Heartbeat CPU 0 instructions: 140000000 cycles: 84016965 heartbeat IPC: 1.03229 cumulative IPC: 0.974732 (Simulation time: 0 hr 3 min 0 sec) 
Heartbeat CPU 0 instructions: 150000001 cycles: 94332099 heartbeat IPC: 0.969449 cumulative IPC: 0.973671 (Simulation time: 0 hr 3 min 17 sec) 
Heartbeat CPU 0 instructions: 160000000 cycles: 104387823 heartbeat IPC: 0.994458 cumulative IPC: 0.977075 (Simulation time: 0 hr 3 min 34 sec) 
Heartbeat CPU 0 instructions: 170000000 cycles: 114062444 heartbeat IPC: 1.03363 cumulative IPC: 0.984773 (Simulation time: 0 hr 3 min 50 sec) 
Heartbeat CPU 0 instructions: 180000000 cycles: 124619854 heartbeat IPC: 0.947202 cumulative IPC: 0.979914 (Simulation time: 0 hr 4 min 7 sec) 
Heartbeat CPU 0 instructions: 190000001 cycles: 134879952 heartbeat IPC: 0.97465 cumulative IPC: 0.979326 (Simulation time: 0 hr 4 min 24 sec) 
Heartbeat CPU 0 instructions: 200000000 cycles: 145457892 heartbeat IPC: 0.945364 cumulative IPC: 0.975821 (Simulation time: 0 hr 4 min 41 sec) 
Heartbeat CPU 0 instructions: 210000002 cycles: 157904048 heartbeat IPC: 0.803461 cumulative IPC: 0.957154 (Simulation time: 0 hr 4 min 59 sec) 
Heartbeat CPU 0 instructions: 220000000 cycles: 170441879 heartbeat IPC: 0.797586 cumulative IPC: 0.941458 (Simulation time: 0 hr 5 min 17 sec) 
Heartbeat CPU 0 instructions: 230000000 cycles: 182623203 heartbeat IPC: 0.820929 cumulative IPC: 0.930944 (Simulation time: 0 hr 5 min 35 sec) 
Heartbeat CPU 0 instructions: 240000000 cycles: 194766205 heartbeat IPC: 0.82352 cumulative IPC: 0.92235 (Simulation time: 0 hr 5 min 53 sec) 
Heartbeat CPU 0 instructions: 250000000 cycles: 206750583 heartbeat IPC: 0.83442 cumulative IPC: 0.915916 (Simulation time: 0 hr 6 min 10 sec) 
Heartbeat CPU 0 instructions: 260000000 cycles: 218320086 heartbeat IPC: 0.864341 cumulative IPC: 0.912513 (Simulation time: 0 hr 6 min 28 sec) 
Heartbeat CPU 0 instructions: 270000003 cycles: 230198049 heartbeat IPC: 0.841895 cumulative IPC: 0.908032 (Simulation time: 0 hr 6 min 46 sec) 
Heartbeat CPU 0 instructions: 280000000 cycles: 241747584 heartbeat IPC: 0.865835 cumulative IPC: 0.90558 (Simulation time: 0 hr 7 min 3 sec) 
Heartbeat CPU 0 instructions: 290000002 cycles: 253278588 heartbeat IPC: 0.867227 cumulative IPC: 0.903477 (Simulation time: 0 hr 7 min 21 sec) 
Heartbeat CPU 0 instructions: 300000000 cycles: 265732666 heartbeat IPC: 0.80295 cumulative IPC: 0.897857 (Simulation time: 0 hr 7 min 39 sec) 
Heartbeat CPU 0 instructions: 310000000 cycles: 277899819 heartbeat IPC: 0.821885 cumulative IPC: 0.893922 (Simulation time: 0 hr 7 min 57 sec) 
Heartbeat CPU 0 instructions: 320000000 cycles: 290564995 heartbeat IPC: 0.789567 cumulative IPC: 0.888584 (Simulation time: 0 hr 8 min 15 sec) 
Heartbeat CPU 0 instructions: 330000003 cycles: 302518802 heartbeat IPC: 0.836554 cumulative IPC: 0.886187 (Simulation time: 0 hr 8 min 32 sec) 
Heartbeat CPU 0 instructions: 340000000 cycles: 314648805 heartbeat IPC: 0.824402 cumulative IPC: 0.883429 (Simulation time: 0 hr 8 min 50 sec) 
Heartbeat CPU 0 instructions: 350000001 cycles: 325647958 heartbeat IPC: 0.909161 cumulative IPC: 0.88443 (Simulation time: 0 hr 9 min 7 sec) 
Heartbeat CPU 0 instructions: 360000000 cycles: 337448970 heartbeat IPC: 0.847385 cumulative IPC: 0.882945 (Simulation time: 0 hr 9 min 25 sec) 
Heartbeat CPU 0 instructions: 370000001 cycles: 348866483 heartbeat IPC: 0.875848 cumulative IPC: 0.882681 (Simulation time: 0 hr 9 min 42 sec) 
Heartbeat CPU 0 instructions: 380000000 cycles: 359873995 heartbeat IPC: 0.90847 cumulative IPC: 0.883576 (Simulation time: 0 hr 10 min 0 sec) 
Heartbeat CPU 0 instructions: 390000003 cycles: 370496430 heartbeat IPC: 0.941404 cumulative IPC: 0.885452 (Simulation time: 0 hr 10 min 17 sec) 
Heartbeat CPU 0 instructions: 400000000 cycles: 380723017 heartbeat IPC: 0.977843 cumulative IPC: 0.888249 (Simulation time: 0 hr 10 min 34 sec) 
Heartbeat CPU 0 instructions: 410000000 cycles: 391258486 heartbeat IPC: 0.949175 cumulative IPC: 0.890092 (Simulation time: 0 hr 10 min 51 sec) 
Heartbeat CPU 0 instructions: 420000000 cycles: 400651984 heartbeat IPC: 1.06457 cumulative IPC: 0.894675 (Simulation time: 0 hr 11 min 8 sec) 
Heartbeat CPU 0 instructions: 430000002 cycles: 409746166 heartbeat IPC: 1.0996 cumulative IPC: 0.899756 (Simulation time: 0 hr 11 min 24 sec) 
Heartbeat CPU 0 instructions: 440000000 cycles: 420021801 heartbeat IPC: 0.973176 cumulative IPC: 0.901757 (Simulation time: 0 hr 11 min 41 sec) 
Heartbeat CPU 0 instructions: 450000002 cycles: 431107767 heartbeat IPC: 0.902042 cumulative IPC: 0.901765 (Simulation time: 0 hr 11 min 59 sec) 
Heartbeat CPU 0 instructions: 460000000 cycles: 442660115 heartbeat IPC: 0.865625 cumulative IPC: 0.90072 (Simulation time: 0 hr 12 min 16 sec) 
Heartbeat CPU 0 instructions: 470000003 cycles: 452857829 heartbeat IPC: 0.980612 cumulative IPC: 0.902708 (Simulation time: 0 hr 12 min 33 sec) 
Heartbeat CPU 0 instructions: 480000000 cycles: 463403118 heartbeat IPC: 0.94829 cumulative IPC: 0.903851 (Simulation time: 0 hr 12 min 50 sec) 
Heartbeat CPU 0 instructions: 490000000 cycles: 473363387 heartbeat IPC: 1.00399 cumulative IPC: 0.906169 (Simulation time: 0 hr 13 min 7 sec) 
Heartbeat CPU 0 instructions: 500000000 cycles: 485143904 heartbeat IPC: 0.848859 cumulative IPC: 0.904642 (Simulation time: 0 hr 13 min 24 sec) 
Heartbeat CPU 0 instructions: 510000002 cycles: 497558505 heartbeat IPC: 0.805503 cumulative IPC: 0.901935 (Simulation time: 0 hr 13 min 42 sec) 
Heartbeat CPU 0 instructions: 520000000 cycles: 509412846 heartbeat IPC: 0.843573 cumulative IPC: 0.900451 (Simulation time: 0 hr 14 min 0 sec) 
Heartbeat CPU 0 instructions: 530000001 cycles: 521254143 heartbeat IPC: 0.844502 cumulative IPC: 0.899066 (Simulation time: 0 hr 14 min 17 sec) 
Heartbeat CPU 0 instructions: 540000000 cycles: 532865420 heartbeat IPC: 0.861232 cumulative IPC: 0.898169 (Simulation time: 0 hr 14 min 35 sec) 
Heartbeat CPU 0 instructions: 550000001 cycles: 544255706 heartbeat IPC: 0.877941 cumulative IPC: 0.89771 (Simulation time: 0 hr 14 min 52 sec) 
Heartbeat CPU 0 instructions: 560000000 cycles: 555811366 heartbeat IPC: 0.865377 cumulative IPC: 0.896981 (Simulation time: 0 hr 15 min 10 sec) 
Heartbeat CPU 0 instructions: 570000000 cycles: 567222777 heartbeat IPC: 0.876316 cumulative IPC: 0.896531 (Simulation time: 0 hr 15 min 27 sec) 
Heartbeat CPU 0 instructions: 580000000 cycles: 577986234 heartbeat IPC: 0.92907 cumulative IPC: 0.897186 (Simulation time: 0 hr 15 min 44 sec) 
Heartbeat CPU 0 instructions: 590000003 cycles: 589388512 heartbeat IPC: 0.877018 cumulative IPC: 0.896765 (Simulation time: 0 hr 16 min 1 sec) 
Heartbeat CPU 0 instructions: 600000000 cycles: 599975141 heartbeat IPC: 0.944587 cumulative IPC: 0.897674 (Simulation time: 0 hr 16 min 18 sec) 
Finished CPU 0 instructions: 500000001 cycles: 556995107 cumulative IPC: 0.897674 (Simulation time: 0 hr 16 min 18 sec) 

CPU 0 Branch Prediction Accuracy: 93.0095% MPKI: 10.0046
Number of Branches: 71558147 Number of Mispredictions: 5002285
Number of LOAD Instructions: 145708893
Number of LOAD Instructions (ROI): 145708893
Number of STORE Instructions: 40463820
Number of STORE Instructions (ROI): 40463820
Total Destination Memory Operands: 45240498
Total Destination Memory Operands (ROI): 45240498
Total Source Memory Operands: 145708893
Total Source Memory Operands (ROI): 145708893
Number of DEPENDED LOADS: 10674442
Number of DEPENDED LOADS (ROI): 10674442
Number of SQ_ADDED: 45240498
Number of SQ_ADDED (ROI): 45240498
Number of LQ_ADDED: 193324448
Number of LQ_ADDED (ROI): 193324448
Number of Instructions read from trace: 600000002

ChampSim completed all CPUs

Region of Interest Statistics

CPU 0 cumulative IPC: 0.897674 instructions: 500000001 cycles: 556995107
ITLB TOTAL     ACCESS:   77992185  HIT:   77992184  MISS:          1
ITLB LOAD      ACCESS:   77992185  HIT:   77992184  MISS:          1
ITLB RFO       ACCESS:          0  HIT:          0  MISS:          0
ITLB PREFETCH  ACCESS:          0  HIT:          0  MISS:          0
ITLB WRITEBACK ACCESS:          0  HIT:          0  MISS:          0
ITLB PREFETCH  REQUESTED:          0  ISSUED:          0  USEFUL:          0  USELESS:          0
ITLB TOTAL MSHR MERGED:          0
ITLB LOAD MSHR MERGED:          0
ITLB RFO MSHR MERGED:          0
ITLB PREFETCH MSHR MERGED:          0
ITLB WRITEBACK MSHR MERGED:          0
ITLB TOTAL ACCESSES:   77992185 HITS:   77992184 MISSES:          1
ITLB LOAD ACCESSES:   77992185 HITS:   77992184 MISSES:          1
ITLB RFO ACCESSES:          0 HITS:          0 MISSES:          0
ITLB PREFETCH ACCESSES:          0 HITS:          0 MISSES:          0
ITLB WRITEBACK ACCESSES:          0 HITS:          0 MISSES:          0
ITLB RQ ACCESS:  499999995
ITLB RQ TO_CACHE:   77992185
ITLB RQ MERGED:  422007810
ITLB RQ FORWARD:          0
ITLB WQ ACCESS:          0
ITLB WQ TO_CACHE:          0
ITLB WQ MERGED:          0
ITLB WQ FORWARD:          0
DTLB TOTAL     ACCESS:   98671356  HIT:   97790020  MISS:     881336
DTLB LOAD      ACCESS:   70891385  HIT:   70029852  MISS:     861533
DTLB RFO       ACCESS:   27779971  HIT:   27760168  MISS:      19803
DTLB PREFETCH  ACCESS:          0  HIT:          0  MISS:          0
DTLB WRITEBACK ACCESS:          0  HIT:          0  MISS:          0
DTLB PREFETCH  REQUESTED:          0  ISSUED:          0  USEFUL:          0  USELESS:          0
DTLB TOTAL MSHR MERGED:      87392
DTLB LOAD MSHR MERGED:      65650
DTLB RFO MSHR MERGED:      21742
DTLB PREFETCH MSHR MERGED:          0
DTLB WRITEBACK MSHR MERGED:          0
DTLB TOTAL ACCESSES:   98758748 HITS:   97790020 MISSES:     968728
DTLB LOAD ACCESSES:   70957035 HITS:   70029852 MISSES:     927183
DTLB RFO ACCESSES:   27801713 HITS:   27760168 MISSES:      41545
DTLB PREFETCH ACCESSES:          0 HITS:          0 MISSES:          0
DTLB WRITEBACK ACCESSES:          0 HITS:          0 MISSES:          0
DTLB RQ ACCESS:  150270614
DTLB RQ TO_CACHE:   98758748
DTLB RQ MERGED:   51511866
DTLB RQ FORWARD:          0
DTLB WQ ACCESS:          0
DTLB WQ TO_CACHE:          0
DTLB WQ MERGED:          0
DTLB WQ FORWARD:          0
L1D TOTAL     ACCESS:  173326251  HIT:  169157633  MISS:    4168618
L1D LOAD      ACCESS:   75279616  HIT:   73398286  MISS:    1881330
L1D RFO       ACCESS:   36778323  HIT:   36571714  MISS:     206609
L1D PREFETCH  ACCESS:   61268312  HIT:   59187633  MISS:    2080679
L1D WRITEBACK ACCESS:          0  HIT:          0  MISS:          0
L1D PREFETCH  REQUESTED:   75382627  ISSUED:   74818433  USEFUL:     415140  USELESS:    1665528
L1D TOTAL MSHR MERGED:     371131
L1D LOAD MSHR MERGED:     111770
L1D RFO MSHR MERGED:     133065
L1D PREFETCH MSHR MERGED:     126296
L1D WRITEBACK MSHR MERGED:          0
L1D TOTAL ACCESSES:  173849235 HITS:  169309486 MISSES:    4539749
L1D LOAD ACCESSES:   75385745 HITS:   73401404 MISSES:    1984341
L1D RFO ACCESSES:   36909990 HITS:   36571714 MISSES:     338276
L1D PREFETCH ACCESSES:   61553500 HITS:   59336368 MISSES:    2217132
L1D WRITEBACK ACCESSES:          0 HITS:          0 MISSES:          0
L1D RQ ACCESS:  112608211
L1D RQ TO_CACHE:   75382627
L1D RQ MERGED:   37222466
L1D RQ FORWARD:          0
L1D WQ ACCESS:   37662403
L1D WQ TO_CACHE:   36909990
L1D WQ MERGED:     752413
L1D WQ FORWARD:     151853
L1I TOTAL     ACCESS:  100700088  HIT:  100700063  MISS:         25
L1I LOAD      ACCESS:  100700088  HIT:  100700063  MISS:         25
L1I RFO       ACCESS:          0  HIT:          0  MISS:          0
L1I PREFETCH  ACCESS:          0  HIT:          0  MISS:          0
L1I WRITEBACK ACCESS:          0  HIT:          0  MISS:          0
L1I PREFETCH  REQUESTED:          0  ISSUED:          0  USEFUL:          0  USELESS:          0
L1I TOTAL MSHR MERGED:         10
L1I LOAD MSHR MERGED:         10
L1I RFO MSHR MERGED:          0
L1I PREFETCH MSHR MERGED:          0
L1I WRITEBACK MSHR MERGED:          0
L1I TOTAL ACCESSES:  100700098 HITS:  100700063 MISSES:         35
L1I LOAD ACCESSES:  100700098 HITS:  100700063 MISSES:         35
L1I RFO ACCESSES:          0 HITS:          0 MISSES:          0
L1I PREFETCH ACCESSES:          0 HITS:          0 MISSES:          0
L1I WRITEBACK ACCESSES:          0 HITS:          0 MISSES:          0
L1I RQ ACCESS:  499999995
L1I RQ TO_CACHE:  100700098
L1I RQ MERGED:  399299897
L1I RQ FORWARD:          0
L1I WQ ACCESS:          0
L1I WQ TO_CACHE:          0
L1I WQ MERGED:          0
L1I WQ FORWARD:          0
L2C TOTAL     ACCESS:    5852613  HIT:    4009433  MISS:    1843180
L2C LOAD      ACCESS:    1872470  HIT:    1061522  MISS:     810948
L2C RFO       ACCESS:     205202  HIT:     100564  MISS:     104638
L2C PREFETCH  ACCESS:    2169302  HIT:    1246128  MISS:     923174
L2C WRITEBACK ACCESS:    1605639  HIT:    1601219  MISS:       4420
L2C PREFETCH  REQUESTED:      91712  ISSUED:      91712  USEFUL:      86457  USELESS:     836740
L2C TOTAL MSHR MERGED:        965
L2C LOAD MSHR MERGED:        249
L2C RFO MSHR MERGED:          0
L2C PREFETCH MSHR MERGED:        716
L2C WRITEBACK MSHR MERGED:          0
L2C TOTAL ACCESSES:    5853916 HITS:    4009605 MISSES:    1844311
L2C LOAD ACCESSES:    1872596 HITS:    1061648 MISSES:     810948
L2C RFO ACCESSES:     205211 HITS:     100573 MISSES:     104638
L2C PREFETCH ACCESSES:    2170470 HITS:    1246165 MISSES:     924305
L2C WRITEBACK ACCESSES:    1605639 HITS:    1601219 MISSES:       4420
L2C RQ ACCESS:    2077807
L2C RQ TO_CACHE:    2077672
L2C RQ MERGED:          0
L2C RQ FORWARD:          0
L2C WQ ACCESS:    1605639
L2C WQ TO_CACHE:    1605639
L2C WQ MERGED:          0
L2C WQ FORWARD:        172
LLC TOTAL     ACCESS:    2673567  HIT:    2193916  MISS:     479651
LLC LOAD      ACCESS:     810690  HIT:     636045  MISS:     174645
LLC RFO       ACCESS:     104638  HIT:      59872  MISS:      44766
LLC PREFETCH  ACCESS:     923567  HIT:     692599  MISS:     230968
LLC WRITEBACK ACCESS:     834672  HIT:     805400  MISS:      29272
LLC PREFETCH  REQUESTED:          0  ISSUED:          0  USEFUL:       8371  USELESS:     222712
LLC TOTAL MSHR MERGED:          7
LLC LOAD MSHR MERGED:          2
LLC RFO MSHR MERGED:          0
LLC PREFETCH MSHR MERGED:          5
LLC WRITEBACK MSHR MERGED:          0
LLC TOTAL ACCESSES:    2673585 HITS:    2193927 MISSES:     479658
LLC LOAD ACCESSES:     810699 HITS:     636054 MISSES:     174645
LLC RFO ACCESSES:     104638 HITS:      59872 MISSES:      44766
LLC PREFETCH ACCESSES:     923576 HITS:     692601 MISSES:     230975
LLC WRITEBACK ACCESSES:     834672 HITS:     805400 MISSES:      29272
LLC 0 RQ ACCESS:     915337
LLC 0 RQ TO_CACHE:     915328
LLC 0 RQ MERGED:          0
LLC 0 RQ FORWARD:          0
LLC WQ ACCESS:     834672
LLC WQ TO_CACHE:     834672
LLC WQ MERGED:          0
LLC WQ FORWARD:         11
Major fault: 0 Minor fault: 11278
CPU 0 L1D next line prefetcher final stats
CPU 0 L2C PC-based stride prefetcher final stats
All Misses: 591676
All Hits: 2462909
SD Algo Stats - Switches: 0 SRR-Repls: 207618 BRR-Repls: 0

DRAM Statistics
 CHANNEL 0
 RQ ROW_BUFFER_HIT:      28520  ROW_BUFFER_MISS:     421441
 DBUS_CONGESTED:     354201
 WQ ROW_BUFFER_HIT:      15488  ROW_BUFFER_MISS:     211026  FULL:          0

 AVG_CONGESTED_CYCLE: 13
LOADS RETIRED: 121769268
INSTR RETIRED: 500000000
