
*** ChampSim Multicore Out-of-Order Simulator ***

Warmup Instructions: 100000000
Simulation Instructions: 500000000
Number of CPUs: 1
LLC sets: 2048
LLC ways: 16
Clean RRIP Policies: 1310012213100122 Dirty RRIP Policies: 1310010213100102 PSEL Width: 10 Track Set: 4294967295 PSEL Mask: 1 Demote Mask: 2040001220400012DS Algo: 0Window size: 0
Off-chip DRAM Size: 4096 MB Channels: 1 Width: 64-bit Data Rate: 1600 MT/s

CPU 0 runs /mnt/beegfs/iconst01/spec2017/Gcc.trace.gz
NOT SORTED
TRACE STRING: /mnt/beegfs/iconst01/spec2017/Gcc.trace.gz
SORTED
TRACE STRING: /mnt/beegfs/iconst01/spec2017/Gcc.trace.gz
INITIAL
TRACE STRING: /mnt/beegfs/iconst01/spec2017/Gcc.trace.gz

champsim_seed used: 269

CPU 0 L1D next line prefetcher
CPU 0 L2C IP-based stride prefetcher
Initialize DRRIP state
Assign rand_sets[0]: 454  LLC: 2048
rand_sets[0]: 454
Assign rand_sets[1]: 1662  LLC: 2048
rand_sets[1]: 1662
Assign rand_sets[2]: 1921  LLC: 2048
rand_sets[2]: 1921
Assign rand_sets[3]: 1131  LLC: 2048
rand_sets[3]: 1131
Assign rand_sets[4]: 331  LLC: 2048
rand_sets[4]: 331
Assign rand_sets[5]: 1531  LLC: 2048
rand_sets[5]: 1531
Assign rand_sets[6]: 482  LLC: 2048
rand_sets[6]: 482
Assign rand_sets[7]: 1275  LLC: 2048
rand_sets[7]: 1275
Assign rand_sets[8]: 1876  LLC: 2048
rand_sets[8]: 1876
Assign rand_sets[9]: 2038  LLC: 2048
rand_sets[9]: 2038
Assign rand_sets[10]: 701  LLC: 2048
rand_sets[10]: 701
Assign rand_sets[11]: 479  LLC: 2048
rand_sets[11]: 479
Assign rand_sets[12]: 892  LLC: 2048
rand_sets[12]: 892
Assign rand_sets[13]: 1820  LLC: 2048
rand_sets[13]: 1820
Assign rand_sets[14]: 1505  LLC: 2048
rand_sets[14]: 1505
Assign rand_sets[15]: 1159  LLC: 2048
rand_sets[15]: 1159
Assign rand_sets[16]: 513  LLC: 2048
rand_sets[16]: 513
Assign rand_sets[17]: 703  LLC: 2048
rand_sets[17]: 703
Assign rand_sets[18]: 561  LLC: 2048
rand_sets[18]: 561
Assign rand_sets[19]: 990  LLC: 2048
rand_sets[19]: 990
Assign rand_sets[20]: 342  LLC: 2048
rand_sets[20]: 342
Assign rand_sets[21]: 882  LLC: 2048
rand_sets[21]: 882
Assign rand_sets[22]: 15  LLC: 2048
rand_sets[22]: 15
Assign rand_sets[23]: 71  LLC: 2048
rand_sets[23]: 71
Assign rand_sets[24]: 1127  LLC: 2048
rand_sets[24]: 1127
Assign rand_sets[25]: 1382  LLC: 2048
rand_sets[25]: 1382
Assign rand_sets[26]: 647  LLC: 2048
rand_sets[26]: 647
Assign rand_sets[27]: 857  LLC: 2048
rand_sets[27]: 857
Assign rand_sets[28]: 1450  LLC: 2048
rand_sets[28]: 1450
Assign rand_sets[29]: 1160  LLC: 2048
rand_sets[29]: 1160
Assign rand_sets[30]: 1852  LLC: 2048
rand_sets[30]: 1852
Assign rand_sets[31]: 1881  LLC: 2048
rand_sets[31]: 1881
Assign rand_sets[32]: 1770  LLC: 2048
rand_sets[32]: 1770
Assign rand_sets[33]: 1622  LLC: 2048
rand_sets[33]: 1622
Assign rand_sets[34]: 275  LLC: 2048
rand_sets[34]: 275
Assign rand_sets[35]: 635  LLC: 2048
rand_sets[35]: 635
Assign rand_sets[36]: 466  LLC: 2048
rand_sets[36]: 466
Assign rand_sets[37]: 1413  LLC: 2048
rand_sets[37]: 1413
Assign rand_sets[38]: 417  LLC: 2048
rand_sets[38]: 417
Assign rand_sets[39]: 472  LLC: 2048
rand_sets[39]: 472
Assign rand_sets[40]: 1340  LLC: 2048
rand_sets[40]: 1340
Assign rand_sets[41]: 852  LLC: 2048
rand_sets[41]: 852
Assign rand_sets[42]: 1365  LLC: 2048
rand_sets[42]: 1365
Assign rand_sets[43]: 47  LLC: 2048
rand_sets[43]: 47
Assign rand_sets[44]: 823  LLC: 2048
rand_sets[44]: 823
Assign rand_sets[45]: 686  LLC: 2048
rand_sets[45]: 686
Assign rand_sets[46]: 1637  LLC: 2048
rand_sets[46]: 1637
Assign rand_sets[47]: 1115  LLC: 2048
rand_sets[47]: 1115
Assign rand_sets[48]: 986  LLC: 2048
rand_sets[48]: 986
Assign rand_sets[49]: 258  LLC: 2048
rand_sets[49]: 258
Assign rand_sets[50]: 633  LLC: 2048
rand_sets[50]: 633
Assign rand_sets[51]: 920  LLC: 2048
rand_sets[51]: 920
Assign rand_sets[52]: 204  LLC: 2048
rand_sets[52]: 204
Assign rand_sets[53]: 227  LLC: 2048
rand_sets[53]: 227
Assign rand_sets[54]: 1818  LLC: 2048
rand_sets[54]: 1818
Assign rand_sets[55]: 886  LLC: 2048
rand_sets[55]: 886
Assign rand_sets[56]: 1422  LLC: 2048
rand_sets[56]: 1422
Assign rand_sets[57]: 607  LLC: 2048
rand_sets[57]: 607
Assign rand_sets[58]: 217  LLC: 2048
rand_sets[58]: 217
Assign rand_sets[59]: 1945  LLC: 2048
rand_sets[59]: 1945
Assign rand_sets[60]: 143  LLC: 2048
rand_sets[60]: 143
Assign rand_sets[61]: 1311  LLC: 2048
rand_sets[61]: 1311
Assign rand_sets[62]: 319  LLC: 2048
rand_sets[62]: 319
Assign rand_sets[63]: 1846  LLC: 2048
rand_sets[63]: 1846
 CLEAN-RRIP-POLICY-1: 1-3-1-0-0-1-2-2- CLEAN-RRIP-POLICY-2: 1-3-1-0-0-1-2-2-
 DIRTY-RRIP-POLICY-1: 1-3-1-0-0-1-0-2- DIRTY-RRIP-POLICY-2: 1-3-1-0-0-1-0-2-
 PSEL width: 10
Heartbeat CPU 0 instructions: 10000001 cycles: 7315915 heartbeat IPC: 1.36688 cumulative IPC: 1.36688 (Simulation time: 0 hr 0 min 15 sec) 
Heartbeat CPU 0 instructions: 20000000 cycles: 14308689 heartbeat IPC: 1.43005 cumulative IPC: 1.39775 (Simulation time: 0 hr 0 min 30 sec) 
Heartbeat CPU 0 instructions: 30000001 cycles: 21022783 heartbeat IPC: 1.4894 cumulative IPC: 1.42702 (Simulation time: 0 hr 0 min 46 sec) 
Heartbeat CPU 0 instructions: 40000000 cycles: 27483948 heartbeat IPC: 1.54771 cumulative IPC: 1.45539 (Simulation time: 0 hr 1 min 2 sec) 
Heartbeat CPU 0 instructions: 50000001 cycles: 33586096 heartbeat IPC: 1.63877 cumulative IPC: 1.48871 (Simulation time: 0 hr 1 min 18 sec) 
Heartbeat CPU 0 instructions: 60000000 cycles: 40067650 heartbeat IPC: 1.54284 cumulative IPC: 1.49747 (Simulation time: 0 hr 1 min 34 sec) 
Heartbeat CPU 0 instructions: 70000000 cycles: 47108382 heartbeat IPC: 1.42031 cumulative IPC: 1.48594 (Simulation time: 0 hr 1 min 49 sec) 
Heartbeat CPU 0 instructions: 80000000 cycles: 54199416 heartbeat IPC: 1.41023 cumulative IPC: 1.47603 (Simulation time: 0 hr 2 min 4 sec) 
Heartbeat CPU 0 instructions: 90000003 cycles: 61205205 heartbeat IPC: 1.42739 cumulative IPC: 1.47046 (Simulation time: 0 hr 2 min 19 sec) 
Heartbeat CPU 0 instructions: 100000000 cycles: 68374049 heartbeat IPC: 1.39492 cumulative IPC: 1.46254 (Simulation time: 0 hr 2 min 34 sec) 

Warmup complete CPU 0 instructions: 100000004 cycles: 68374050 (Simulation time: 0 hr 2 min 34 sec) 

Heartbeat CPU 0 instructions: 110000003 cycles: 96287863 heartbeat IPC: 0.358246 cumulative IPC: 0.358246 (Simulation time: 0 hr 3 min 3 sec) 
Heartbeat CPU 0 instructions: 120000000 cycles: 123842223 heartbeat IPC: 0.362919 cumulative IPC: 0.360567 (Simulation time: 0 hr 3 min 32 sec) 
Heartbeat CPU 0 instructions: 130000000 cycles: 148939757 heartbeat IPC: 0.398446 cumulative IPC: 0.372367 (Simulation time: 0 hr 4 min 1 sec) 
Heartbeat CPU 0 instructions: 140000000 cycles: 178912749 heartbeat IPC: 0.333634 cumulative IPC: 0.361864 (Simulation time: 0 hr 4 min 30 sec) 
Heartbeat CPU 0 instructions: 150000000 cycles: 209049804 heartbeat IPC: 0.331817 cumulative IPC: 0.355427 (Simulation time: 0 hr 4 min 59 sec) 
Heartbeat CPU 0 instructions: 160000000 cycles: 236573124 heartbeat IPC: 0.363328 cumulative IPC: 0.35672 (Simulation time: 0 hr 5 min 27 sec) 
Heartbeat CPU 0 instructions: 170000001 cycles: 264781321 heartbeat IPC: 0.354507 cumulative IPC: 0.356402 (Simulation time: 0 hr 5 min 57 sec) 
Heartbeat CPU 0 instructions: 180000000 cycles: 293406127 heartbeat IPC: 0.349347 cumulative IPC: 0.355505 (Simulation time: 0 hr 6 min 27 sec) 
Heartbeat CPU 0 instructions: 190000002 cycles: 321707772 heartbeat IPC: 0.353336 cumulative IPC: 0.355263 (Simulation time: 0 hr 6 min 56 sec) 
Heartbeat CPU 0 instructions: 200000000 cycles: 350238545 heartbeat IPC: 0.350499 cumulative IPC: 0.35478 (Simulation time: 0 hr 7 min 25 sec) 
Heartbeat CPU 0 instructions: 210000002 cycles: 378301959 heartbeat IPC: 0.356336 cumulative IPC: 0.354921 (Simulation time: 0 hr 7 min 54 sec) 
Heartbeat CPU 0 instructions: 220000000 cycles: 407894579 heartbeat IPC: 0.337922 cumulative IPC: 0.35344 (Simulation time: 0 hr 8 min 22 sec) 
Heartbeat CPU 0 instructions: 230000000 cycles: 435641585 heartbeat IPC: 0.360399 cumulative IPC: 0.353965 (Simulation time: 0 hr 8 min 50 sec) 
Heartbeat CPU 0 instructions: 240000000 cycles: 461676500 heartbeat IPC: 0.3841 cumulative IPC: 0.35596 (Simulation time: 0 hr 9 min 18 sec) 
Heartbeat CPU 0 instructions: 250000000 cycles: 491946745 heartbeat IPC: 0.330357 cumulative IPC: 0.35413 (Simulation time: 0 hr 9 min 48 sec) 
Heartbeat CPU 0 instructions: 260000000 cycles: 519133441 heartbeat IPC: 0.367827 cumulative IPC: 0.354957 (Simulation time: 0 hr 10 min 16 sec) 
Heartbeat CPU 0 instructions: 270000003 cycles: 547750800 heartbeat IPC: 0.349438 cumulative IPC: 0.354627 (Simulation time: 0 hr 10 min 46 sec) 
Heartbeat CPU 0 instructions: 280000000 cycles: 576130179 heartbeat IPC: 0.352368 cumulative IPC: 0.354501 (Simulation time: 0 hr 11 min 16 sec) 
Heartbeat CPU 0 instructions: 290000000 cycles: 605167167 heartbeat IPC: 0.344388 cumulative IPC: 0.353954 (Simulation time: 0 hr 11 min 46 sec) 
Heartbeat CPU 0 instructions: 300000000 cycles: 635559821 heartbeat IPC: 0.329027 cumulative IPC: 0.352618 (Simulation time: 0 hr 12 min 15 sec) 
Heartbeat CPU 0 instructions: 310000001 cycles: 665167314 heartbeat IPC: 0.337752 cumulative IPC: 0.351881 (Simulation time: 0 hr 12 min 44 sec) 
Heartbeat CPU 0 instructions: 320000000 cycles: 693706916 heartbeat IPC: 0.35039 cumulative IPC: 0.351813 (Simulation time: 0 hr 13 min 12 sec) 
Heartbeat CPU 0 instructions: 330000000 cycles: 722573940 heartbeat IPC: 0.346416 cumulative IPC: 0.351574 (Simulation time: 0 hr 13 min 41 sec) 
Heartbeat CPU 0 instructions: 340000000 cycles: 752094828 heartbeat IPC: 0.338743 cumulative IPC: 0.35102 (Simulation time: 0 hr 14 min 10 sec) 
Heartbeat CPU 0 instructions: 350000003 cycles: 779311852 heartbeat IPC: 0.367417 cumulative IPC: 0.351648 (Simulation time: 0 hr 14 min 38 sec) 
Heartbeat CPU 0 instructions: 360000000 cycles: 807837612 heartbeat IPC: 0.35056 cumulative IPC: 0.351606 (Simulation time: 0 hr 15 min 6 sec) 
Heartbeat CPU 0 instructions: 370000000 cycles: 836281959 heartbeat IPC: 0.351564 cumulative IPC: 0.351605 (Simulation time: 0 hr 15 min 33 sec) 
Heartbeat CPU 0 instructions: 380000000 cycles: 865154426 heartbeat IPC: 0.346351 cumulative IPC: 0.351414 (Simulation time: 0 hr 16 min 1 sec) 
Heartbeat CPU 0 instructions: 390000001 cycles: 893016063 heartbeat IPC: 0.358916 cumulative IPC: 0.351668 (Simulation time: 0 hr 16 min 29 sec) 
Heartbeat CPU 0 instructions: 400000000 cycles: 921962869 heartbeat IPC: 0.345461 cumulative IPC: 0.351457 (Simulation time: 0 hr 16 min 56 sec) 
Heartbeat CPU 0 instructions: 410000001 cycles: 949414444 heartbeat IPC: 0.364278 cumulative IPC: 0.351857 (Simulation time: 0 hr 17 min 24 sec) 
Heartbeat CPU 0 instructions: 420000000 cycles: 976867159 heartbeat IPC: 0.364263 cumulative IPC: 0.352232 (Simulation time: 0 hr 17 min 51 sec) 
Heartbeat CPU 0 instructions: 430000002 cycles: 1004828069 heartbeat IPC: 0.357642 cumulative IPC: 0.352393 (Simulation time: 0 hr 18 min 19 sec) 
Heartbeat CPU 0 instructions: 440000000 cycles: 1034824069 heartbeat IPC: 0.333378 cumulative IPC: 0.351803 (Simulation time: 0 hr 18 min 47 sec) 
Heartbeat CPU 0 instructions: 450000002 cycles: 1064376078 heartbeat IPC: 0.338387 cumulative IPC: 0.351405 (Simulation time: 0 hr 19 min 15 sec) 
Heartbeat CPU 0 instructions: 460000000 cycles: 1092256219 heartbeat IPC: 0.358678 cumulative IPC: 0.351603 (Simulation time: 0 hr 19 min 42 sec) 
Heartbeat CPU 0 instructions: 470000000 cycles: 1120024671 heartbeat IPC: 0.360121 cumulative IPC: 0.351828 (Simulation time: 0 hr 20 min 9 sec) 
Heartbeat CPU 0 instructions: 480000000 cycles: 1148035120 heartbeat IPC: 0.35701 cumulative IPC: 0.351962 (Simulation time: 0 hr 20 min 36 sec) 
Heartbeat CPU 0 instructions: 490000000 cycles: 1175744393 heartbeat IPC: 0.36089 cumulative IPC: 0.352186 (Simulation time: 0 hr 21 min 3 sec) 
Heartbeat CPU 0 instructions: 500000000 cycles: 1204235114 heartbeat IPC: 0.350991 cumulative IPC: 0.352156 (Simulation time: 0 hr 21 min 30 sec) 
Heartbeat CPU 0 instructions: 510000000 cycles: 1239018252 heartbeat IPC: 0.287496 cumulative IPC: 0.350235 (Simulation time: 0 hr 22 min 0 sec) 
Heartbeat CPU 0 instructions: 520000000 cycles: 1267157057 heartbeat IPC: 0.355381 cumulative IPC: 0.350355 (Simulation time: 0 hr 22 min 28 sec) 
Heartbeat CPU 0 instructions: 530000001 cycles: 1296920659 heartbeat IPC: 0.335981 cumulative IPC: 0.350007 (Simulation time: 0 hr 22 min 56 sec) 
Heartbeat CPU 0 instructions: 540000000 cycles: 1325227901 heartbeat IPC: 0.353266 cumulative IPC: 0.35008 (Simulation time: 0 hr 23 min 24 sec) 
Heartbeat CPU 0 instructions: 550000001 cycles: 1354537833 heartbeat IPC: 0.341181 cumulative IPC: 0.349878 (Simulation time: 0 hr 23 min 53 sec) 
Heartbeat CPU 0 instructions: 560000000 cycles: 1380026130 heartbeat IPC: 0.392337 cumulative IPC: 0.350703 (Simulation time: 0 hr 24 min 20 sec) 
Heartbeat CPU 0 instructions: 570000000 cycles: 1409941039 heartbeat IPC: 0.334281 cumulative IPC: 0.350337 (Simulation time: 0 hr 24 min 49 sec) 
Heartbeat CPU 0 instructions: 580000000 cycles: 1438079468 heartbeat IPC: 0.355386 cumulative IPC: 0.35044 (Simulation time: 0 hr 25 min 17 sec) 
Heartbeat CPU 0 instructions: 590000001 cycles: 1462854483 heartbeat IPC: 0.403632 cumulative IPC: 0.351385 (Simulation time: 0 hr 25 min 43 sec) 
Heartbeat CPU 0 instructions: 600000000 cycles: 1488995000 heartbeat IPC: 0.382548 cumulative IPC: 0.351959 (Simulation time: 0 hr 26 min 10 sec) 
Finished CPU 0 instructions: 500000000 cycles: 1420620972 cumulative IPC: 0.351959 (Simulation time: 0 hr 26 min 10 sec) 

CPU 0 Branch Prediction Accuracy: 86.4311% MPKI: 26.2662
Number of Branches: 96788573 Number of Mispredictions: 13133102
Number of LOAD Instructions: 164682285
Number of LOAD Instructions (ROI): 164682285
Number of STORE Instructions: 78194750
Number of STORE Instructions (ROI): 78194750
Total Destination Memory Operands: 83268534
Total Destination Memory Operands (ROI): 83268534
Total Source Memory Operands: 164712438
Total Source Memory Operands (ROI): 164712438
Number of DEPENDED LOADS: 7057099
Number of DEPENDED LOADS (ROI): 7057099
Number of SQ_ADDED: 83268522
Number of SQ_ADDED (ROI): 83268522
Number of LQ_ADDED: 236469443
Number of LQ_ADDED (ROI): 236469443
Number of Instructions read from trace: 600000066

ChampSim completed all CPUs

Region of Interest Statistics

CPU 0 cumulative IPC: 0.351959 instructions: 500000000 cycles: 1420620972
ITLB TOTAL     ACCESS:  100516710  HIT:  100312264  MISS:     204446
ITLB LOAD      ACCESS:  100516710  HIT:  100312264  MISS:     204446
ITLB RFO       ACCESS:          0  HIT:          0  MISS:          0
ITLB PREFETCH  ACCESS:          0  HIT:          0  MISS:          0
ITLB WRITEBACK ACCESS:          0  HIT:          0  MISS:          0
ITLB PREFETCH  REQUESTED:          0  ISSUED:          0  USEFUL:          0  USELESS:          0
ITLB TOTAL MSHR MERGED:     172424
ITLB LOAD MSHR MERGED:     172424
ITLB RFO MSHR MERGED:          0
ITLB PREFETCH MSHR MERGED:          0
ITLB WRITEBACK MSHR MERGED:          0
ITLB TOTAL ACCESSES:  100689134 HITS:  100312264 MISSES:     376870
ITLB LOAD ACCESSES:  100689134 HITS:  100312264 MISSES:     376870
ITLB RFO ACCESSES:          0 HITS:          0 MISSES:          0
ITLB PREFETCH ACCESSES:          0 HITS:          0 MISSES:          0
ITLB WRITEBACK ACCESSES:          0 HITS:          0 MISSES:          0
ITLB RQ ACCESS:  500000057
ITLB RQ TO_CACHE:  100689134
ITLB RQ MERGED:  399310923
ITLB RQ FORWARD:          0
ITLB WQ ACCESS:          0
ITLB WQ TO_CACHE:          0
ITLB WQ MERGED:          0
ITLB WQ FORWARD:          0
DTLB TOTAL     ACCESS:  165341595  HIT:  164707245  MISS:     634350
DTLB LOAD      ACCESS:  106295636  HIT:  105725686  MISS:     569950
DTLB RFO       ACCESS:   59045959  HIT:   58981559  MISS:      64400
DTLB PREFETCH  ACCESS:          0  HIT:          0  MISS:          0
DTLB WRITEBACK ACCESS:          0  HIT:          0  MISS:          0
DTLB PREFETCH  REQUESTED:          0  ISSUED:          0  USEFUL:          0  USELESS:          0
DTLB TOTAL MSHR MERGED:      99806
DTLB LOAD MSHR MERGED:      59358
DTLB RFO MSHR MERGED:      40448
DTLB PREFETCH MSHR MERGED:          0
DTLB WRITEBACK MSHR MERGED:          0
DTLB TOTAL ACCESSES:  165441401 HITS:  164707245 MISSES:     734156
DTLB LOAD ACCESSES:  106354994 HITS:  105725686 MISSES:     629308
DTLB RFO ACCESSES:   59086407 HITS:   58981559 MISSES:     104848
DTLB PREFETCH ACCESSES:          0 HITS:          0 MISSES:          0
DTLB WRITEBACK ACCESSES:          0 HITS:          0 MISSES:          0
DTLB RQ ACCESS:  200313761
DTLB RQ TO_CACHE:  165441401
DTLB RQ MERGED:   34872360
DTLB RQ FORWARD:          0
DTLB WQ ACCESS:          0
DTLB WQ TO_CACHE:          0
DTLB WQ MERGED:          0
DTLB WQ FORWARD:          0
L1D TOTAL     ACCESS:  281888130  HIT:  273978672  MISS:    7909458
L1D LOAD      ACCESS:  110435804  HIT:  107162752  MISS:    3273052
L1D RFO       ACCESS:   67120774  HIT:   66230304  MISS:     890470
L1D PREFETCH  ACCESS:  104331552  HIT:  100585616  MISS:    3745936
L1D WRITEBACK ACCESS:          0  HIT:          0  MISS:          0
L1D PREFETCH  REQUESTED:  110821038  ISSUED:  109121671  USEFUL:    1666571  USELESS:    2079329
L1D TOTAL MSHR MERGED:    2825401
L1D LOAD MSHR MERGED:     477894
L1D RFO MSHR MERGED:    1865165
L1D PREFETCH MSHR MERGED:     482342
L1D WRITEBACK MSHR MERGED:          0
L1D TOTAL ACCESSES:  284740977 HITS:  274006118 MISSES:   10734859
L1D LOAD ACCESSES:  110822486 HITS:  107164200 MISSES:    3658286
L1D RFO ACCESSES:   68974279 HITS:   66230304 MISSES:    2743975
L1D PREFETCH ACCESSES:  104944212 HITS:  100611614 MISSES:    4332598
L1D WRITEBACK ACCESSES:          0 HITS:          0 MISSES:          0
L1D RQ ACCESS:  130761158
L1D RQ TO_CACHE:  110821041
L1D RQ MERGED:   19938669
L1D RQ FORWARD:          0
L1D WQ ACCESS:   69552603
L1D WQ TO_CACHE:   68974280
L1D WQ MERGED:     578323
L1D WQ FORWARD:      27446
L1I TOTAL     ACCESS:  126563695  HIT:  122325143  MISS:    4238552
L1I LOAD      ACCESS:  126563695  HIT:  122325143  MISS:    4238552
L1I RFO       ACCESS:          0  HIT:          0  MISS:          0
L1I PREFETCH  ACCESS:          0  HIT:          0  MISS:          0
L1I WRITEBACK ACCESS:          0  HIT:          0  MISS:          0
L1I PREFETCH  REQUESTED:          0  ISSUED:          0  USEFUL:          0  USELESS:          0
L1I TOTAL MSHR MERGED:    1835175
L1I LOAD MSHR MERGED:    1835175
L1I RFO MSHR MERGED:          0
L1I PREFETCH MSHR MERGED:          0
L1I WRITEBACK MSHR MERGED:          0
L1I TOTAL ACCESSES:  128398873 HITS:  122325143 MISSES:    6073730
L1I LOAD ACCESSES:  128398873 HITS:  122325143 MISSES:    6073730
L1I RFO ACCESSES:          0 HITS:          0 MISSES:          0
L1I PREFETCH ACCESSES:          0 HITS:          0 MISSES:          0
L1I WRITEBACK ACCESSES:          0 HITS:          0 MISSES:          0
L1I RQ ACCESS:  500000057
L1I RQ TO_CACHE:  128398873
L1I RQ MERGED:  371601184
L1I RQ FORWARD:          0
L1I WQ ACCESS:          0
L1I WQ TO_CACHE:          0
L1I WQ MERGED:          0
L1I WQ FORWARD:          0
L2C TOTAL     ACCESS:   14905866  HIT:   11159456  MISS:    3746410
L2C LOAD      ACCESS:    7418738  HIT:    5098963  MISS:    2319775
L2C RFO       ACCESS:     878711  HIT:     409936  MISS:     468775
L2C PREFETCH  ACCESS:    4569163  HIT:    3628563  MISS:     940600
L2C WRITEBACK ACCESS:    2039254  HIT:    2021994  MISS:      17260
L2C PREFETCH  REQUESTED:     842794  ISSUED:     842794  USEFUL:     203512  USELESS:     736794
L2C TOTAL MSHR MERGED:       6610
L2C LOAD MSHR MERGED:        716
L2C RFO MSHR MERGED:          0
L2C PREFETCH MSHR MERGED:       5894
L2C WRITEBACK MSHR MERGED:          0
L2C TOTAL ACCESSES:   14913321 HITS:   11159907 MISSES:    3753414
L2C LOAD ACCESSES:    7418944 HITS:    5099169 MISSES:    2319775
L2C RFO ACCESSES:     878810 HITS:     410035 MISSES:     468775
L2C PREFETCH ACCESSES:    4576313 HITS:    3628709 MISSES:     947604
L2C WRITEBACK ACCESSES:    2039254 HITS:    2021994 MISSES:      17260
L2C RQ ACCESS:    8297757
L2C RQ TO_CACHE:    8297452
L2C RQ MERGED:          0
L2C RQ FORWARD:          0
L2C WQ ACCESS:    2039254
L2C WQ TO_CACHE:    2039254
L2C WQ MERGED:          0
L2C WQ FORWARD:        451
LLC TOTAL     ACCESS:    4609678  HIT:    3992414  MISS:     617264
LLC LOAD      ACCESS:    2319046  HIT:    1974460  MISS:     344586
LLC RFO       ACCESS:     468764  HIT:     405642  MISS:      63122
LLC PREFETCH  ACCESS:     941606  HIT:     736851  MISS:     204755
LLC WRITEBACK ACCESS:     880262  HIT:     875461  MISS:       4801
LLC PREFETCH  REQUESTED:          0  ISSUED:          0  USEFUL:      39548  USELESS:     165526
LLC TOTAL MSHR MERGED:         84
LLC LOAD MSHR MERGED:         28
LLC RFO MSHR MERGED:          0
LLC PREFETCH MSHR MERGED:         56
LLC WRITEBACK MSHR MERGED:          0
LLC TOTAL ACCESSES:    4609797 HITS:    3992449 MISSES:     617348
LLC LOAD ACCESSES:    2319059 HITS:    1974473 MISSES:     344586
LLC RFO ACCESSES:     468775 HITS:     405653 MISSES:      63122
LLC PREFETCH ACCESSES:     941701 HITS:     736862 MISSES:     204839
LLC WRITEBACK ACCESSES:     880262 HITS:     875461 MISSES:       4801
LLC 0 RQ ACCESS:    2787834
LLC 0 RQ TO_CACHE:    2787810
LLC 0 RQ MERGED:          0
LLC 0 RQ FORWARD:          0
LLC WQ ACCESS:     880262
LLC WQ TO_CACHE:     880262
LLC WQ MERGED:          0
LLC WQ FORWARD:         35
Major fault: 0 Minor fault: 12862
CPU 0 L1D next line prefetcher final stats
CPU 0 L2C PC-based stride prefetcher final stats
All Misses: 735494
All Hits: 4691190
SD Algo Stats - Switches: 0 SRR-Repls: 405461 BRR-Repls: 0

DRAM Statistics
 CHANNEL 0
 RQ ROW_BUFFER_HIT:     139559  ROW_BUFFER_MISS:     472063
 DBUS_CONGESTED:     341180
 WQ ROW_BUFFER_HIT:      12749  ROW_BUFFER_MISS:     168117  FULL:          0

 AVG_CONGESTED_CYCLE: 13
LOADS RETIRED: 136549171
INSTR RETIRED: 500000000
