
*** ChampSim Multicore Out-of-Order Simulator ***

Warmup Instructions: 100000000
Simulation Instructions: 500000000
Number of CPUs: 1
LLC sets: 2048
LLC ways: 16
Clean RRIP Policies: 2213220222132202 Dirty RRIP Policies: 2203120222031202 PSEL Width: 10 Track Set: 4294967295 PSEL Mask: 1 Demote Mask: 3140100031401000DS Algo: 0Window size: 0
Off-chip DRAM Size: 4096 MB Channels: 1 Width: 64-bit Data Rate: 1600 MT/s

CPU 0 runs /mnt/beegfs/iconst01/spec2017/Cam4.trace.gz
NOT SORTED
TRACE STRING: /mnt/beegfs/iconst01/spec2017/Cam4.trace.gz
SORTED
TRACE STRING: /mnt/beegfs/iconst01/spec2017/Cam4.trace.gz
INITIAL
TRACE STRING: /mnt/beegfs/iconst01/spec2017/Cam4.trace.gz

champsim_seed used: 325

CPU 0 L1D next line prefetcher
CPU 0 L2C IP-based stride prefetcher
Initialize DRRIP state
Assign rand_sets[0]: 454  LLC: 2048
rand_sets[0]: 454
Assign rand_sets[1]: 1662  LLC: 2048
rand_sets[1]: 1662
Assign rand_sets[2]: 1921  LLC: 2048
rand_sets[2]: 1921
Assign rand_sets[3]: 1131  LLC: 2048
rand_sets[3]: 1131
Assign rand_sets[4]: 331  LLC: 2048
rand_sets[4]: 331
Assign rand_sets[5]: 1531  LLC: 2048
rand_sets[5]: 1531
Assign rand_sets[6]: 482  LLC: 2048
rand_sets[6]: 482
Assign rand_sets[7]: 1275  LLC: 2048
rand_sets[7]: 1275
Assign rand_sets[8]: 1876  LLC: 2048
rand_sets[8]: 1876
Assign rand_sets[9]: 2038  LLC: 2048
rand_sets[9]: 2038
Assign rand_sets[10]: 701  LLC: 2048
rand_sets[10]: 701
Assign rand_sets[11]: 479  LLC: 2048
rand_sets[11]: 479
Assign rand_sets[12]: 892  LLC: 2048
rand_sets[12]: 892
Assign rand_sets[13]: 1820  LLC: 2048
rand_sets[13]: 1820
Assign rand_sets[14]: 1505  LLC: 2048
rand_sets[14]: 1505
Assign rand_sets[15]: 1159  LLC: 2048
rand_sets[15]: 1159
Assign rand_sets[16]: 513  LLC: 2048
rand_sets[16]: 513
Assign rand_sets[17]: 703  LLC: 2048
rand_sets[17]: 703
Assign rand_sets[18]: 561  LLC: 2048
rand_sets[18]: 561
Assign rand_sets[19]: 990  LLC: 2048
rand_sets[19]: 990
Assign rand_sets[20]: 342  LLC: 2048
rand_sets[20]: 342
Assign rand_sets[21]: 882  LLC: 2048
rand_sets[21]: 882
Assign rand_sets[22]: 15  LLC: 2048
rand_sets[22]: 15
Assign rand_sets[23]: 71  LLC: 2048
rand_sets[23]: 71
Assign rand_sets[24]: 1127  LLC: 2048
rand_sets[24]: 1127
Assign rand_sets[25]: 1382  LLC: 2048
rand_sets[25]: 1382
Assign rand_sets[26]: 647  LLC: 2048
rand_sets[26]: 647
Assign rand_sets[27]: 857  LLC: 2048
rand_sets[27]: 857
Assign rand_sets[28]: 1450  LLC: 2048
rand_sets[28]: 1450
Assign rand_sets[29]: 1160  LLC: 2048
rand_sets[29]: 1160
Assign rand_sets[30]: 1852  LLC: 2048
rand_sets[30]: 1852
Assign rand_sets[31]: 1881  LLC: 2048
rand_sets[31]: 1881
Assign rand_sets[32]: 1770  LLC: 2048
rand_sets[32]: 1770
Assign rand_sets[33]: 1622  LLC: 2048
rand_sets[33]: 1622
Assign rand_sets[34]: 275  LLC: 2048
rand_sets[34]: 275
Assign rand_sets[35]: 635  LLC: 2048
rand_sets[35]: 635
Assign rand_sets[36]: 466  LLC: 2048
rand_sets[36]: 466
Assign rand_sets[37]: 1413  LLC: 2048
rand_sets[37]: 1413
Assign rand_sets[38]: 417  LLC: 2048
rand_sets[38]: 417
Assign rand_sets[39]: 472  LLC: 2048
rand_sets[39]: 472
Assign rand_sets[40]: 1340  LLC: 2048
rand_sets[40]: 1340
Assign rand_sets[41]: 852  LLC: 2048
rand_sets[41]: 852
Assign rand_sets[42]: 1365  LLC: 2048
rand_sets[42]: 1365
Assign rand_sets[43]: 47  LLC: 2048
rand_sets[43]: 47
Assign rand_sets[44]: 823  LLC: 2048
rand_sets[44]: 823
Assign rand_sets[45]: 686  LLC: 2048
rand_sets[45]: 686
Assign rand_sets[46]: 1637  LLC: 2048
rand_sets[46]: 1637
Assign rand_sets[47]: 1115  LLC: 2048
rand_sets[47]: 1115
Assign rand_sets[48]: 986  LLC: 2048
rand_sets[48]: 986
Assign rand_sets[49]: 258  LLC: 2048
rand_sets[49]: 258
Assign rand_sets[50]: 633  LLC: 2048
rand_sets[50]: 633
Assign rand_sets[51]: 920  LLC: 2048
rand_sets[51]: 920
Assign rand_sets[52]: 204  LLC: 2048
rand_sets[52]: 204
Assign rand_sets[53]: 227  LLC: 2048
rand_sets[53]: 227
Assign rand_sets[54]: 1818  LLC: 2048
rand_sets[54]: 1818
Assign rand_sets[55]: 886  LLC: 2048
rand_sets[55]: 886
Assign rand_sets[56]: 1422  LLC: 2048
rand_sets[56]: 1422
Assign rand_sets[57]: 607  LLC: 2048
rand_sets[57]: 607
Assign rand_sets[58]: 217  LLC: 2048
rand_sets[58]: 217
Assign rand_sets[59]: 1945  LLC: 2048
rand_sets[59]: 1945
Assign rand_sets[60]: 143  LLC: 2048
rand_sets[60]: 143
Assign rand_sets[61]: 1311  LLC: 2048
rand_sets[61]: 1311
Assign rand_sets[62]: 319  LLC: 2048
rand_sets[62]: 319
Assign rand_sets[63]: 1846  LLC: 2048
rand_sets[63]: 1846
 CLEAN-RRIP-POLICY-1: 2-2-1-3-2-2-0-2- CLEAN-RRIP-POLICY-2: 2-2-1-3-2-2-0-2-
 DIRTY-RRIP-POLICY-1: 2-2-0-3-1-2-0-2- DIRTY-RRIP-POLICY-2: 2-2-0-3-1-2-0-2-
 PSEL width: 10
Heartbeat CPU 0 instructions: 10000000 cycles: 4859184 heartbeat IPC: 2.05796 cumulative IPC: 2.05796 (Simulation time: 0 hr 0 min 16 sec) 
Heartbeat CPU 0 instructions: 20000000 cycles: 9790786 heartbeat IPC: 2.02774 cumulative IPC: 2.04274 (Simulation time: 0 hr 0 min 33 sec) 
Heartbeat CPU 0 instructions: 30000001 cycles: 14562946 heartbeat IPC: 2.09549 cumulative IPC: 2.06002 (Simulation time: 0 hr 0 min 48 sec) 
Heartbeat CPU 0 instructions: 40000000 cycles: 19399953 heartbeat IPC: 2.06739 cumulative IPC: 2.06186 (Simulation time: 0 hr 1 min 6 sec) 
Heartbeat CPU 0 instructions: 50000000 cycles: 24256494 heartbeat IPC: 2.05908 cumulative IPC: 2.0613 (Simulation time: 0 hr 1 min 23 sec) 
Heartbeat CPU 0 instructions: 60000000 cycles: 29181950 heartbeat IPC: 2.03027 cumulative IPC: 2.05607 (Simulation time: 0 hr 1 min 40 sec) 
Heartbeat CPU 0 instructions: 70000001 cycles: 33957015 heartbeat IPC: 2.09421 cumulative IPC: 2.06143 (Simulation time: 0 hr 1 min 55 sec) 
Heartbeat CPU 0 instructions: 80000000 cycles: 38793268 heartbeat IPC: 2.06772 cumulative IPC: 2.06221 (Simulation time: 0 hr 2 min 13 sec) 
Heartbeat CPU 0 instructions: 90000002 cycles: 43647309 heartbeat IPC: 2.06014 cumulative IPC: 2.06198 (Simulation time: 0 hr 2 min 30 sec) 
Heartbeat CPU 0 instructions: 100000000 cycles: 48566112 heartbeat IPC: 2.03301 cumulative IPC: 2.05905 (Simulation time: 0 hr 2 min 47 sec) 

Warmup complete CPU 0 instructions: 100000001 cycles: 48566113 (Simulation time: 0 hr 2 min 47 sec) 

Heartbeat CPU 0 instructions: 110000000 cycles: 61644492 heartbeat IPC: 0.764621 cumulative IPC: 0.764621 (Simulation time: 0 hr 3 min 11 sec) 
Heartbeat CPU 0 instructions: 120000000 cycles: 75402932 heartbeat IPC: 0.726827 cumulative IPC: 0.745245 (Simulation time: 0 hr 3 min 37 sec) 
Heartbeat CPU 0 instructions: 130000000 cycles: 89154862 heartbeat IPC: 0.727171 cumulative IPC: 0.739121 (Simulation time: 0 hr 4 min 3 sec) 
Heartbeat CPU 0 instructions: 140000000 cycles: 103425236 heartbeat IPC: 0.700752 cumulative IPC: 0.72914 (Simulation time: 0 hr 4 min 29 sec) 
Heartbeat CPU 0 instructions: 150000003 cycles: 116612475 heartbeat IPC: 0.758309 cumulative IPC: 0.734793 (Simulation time: 0 hr 4 min 52 sec) 
Heartbeat CPU 0 instructions: 160000000 cycles: 130364272 heartbeat IPC: 0.727178 cumulative IPC: 0.733513 (Simulation time: 0 hr 5 min 18 sec) 
Heartbeat CPU 0 instructions: 170000001 cycles: 144151500 heartbeat IPC: 0.725309 cumulative IPC: 0.732329 (Simulation time: 0 hr 5 min 44 sec) 
Heartbeat CPU 0 instructions: 180000000 cycles: 158400532 heartbeat IPC: 0.701802 cumulative IPC: 0.728369 (Simulation time: 0 hr 6 min 10 sec) 
Heartbeat CPU 0 instructions: 190000003 cycles: 171559339 heartbeat IPC: 0.759948 cumulative IPC: 0.731748 (Simulation time: 0 hr 6 min 34 sec) 
Heartbeat CPU 0 instructions: 200000000 cycles: 185312948 heartbeat IPC: 0.727082 cumulative IPC: 0.731278 (Simulation time: 0 hr 7 min 0 sec) 
Heartbeat CPU 0 instructions: 210000002 cycles: 199097761 heartbeat IPC: 0.725436 cumulative IPC: 0.730743 (Simulation time: 0 hr 7 min 26 sec) 
Heartbeat CPU 0 instructions: 220000000 cycles: 213350376 heartbeat IPC: 0.701625 cumulative IPC: 0.728225 (Simulation time: 0 hr 7 min 52 sec) 
Heartbeat CPU 0 instructions: 230000001 cycles: 226443491 heartbeat IPC: 0.76376 cumulative IPC: 0.730841 (Simulation time: 0 hr 8 min 16 sec) 
Heartbeat CPU 0 instructions: 240000000 cycles: 240189239 heartbeat IPC: 0.727498 cumulative IPC: 0.730601 (Simulation time: 0 hr 8 min 42 sec) 
Heartbeat CPU 0 instructions: 250000001 cycles: 253926349 heartbeat IPC: 0.727955 cumulative IPC: 0.730424 (Simulation time: 0 hr 9 min 8 sec) 
Heartbeat CPU 0 instructions: 260000000 cycles: 268068501 heartbeat IPC: 0.707106 cumulative IPC: 0.728921 (Simulation time: 0 hr 9 min 34 sec) 
Heartbeat CPU 0 instructions: 270000003 cycles: 281296388 heartbeat IPC: 0.755979 cumulative IPC: 0.730459 (Simulation time: 0 hr 9 min 57 sec) 
Heartbeat CPU 0 instructions: 280000000 cycles: 295057416 heartbeat IPC: 0.72669 cumulative IPC: 0.730249 (Simulation time: 0 hr 10 min 23 sec) 
Heartbeat CPU 0 instructions: 290000001 cycles: 308837992 heartbeat IPC: 0.725659 cumulative IPC: 0.730006 (Simulation time: 0 hr 10 min 49 sec) 
Heartbeat CPU 0 instructions: 300000000 cycles: 322926588 heartbeat IPC: 0.709794 cumulative IPC: 0.728968 (Simulation time: 0 hr 11 min 15 sec) 
Heartbeat CPU 0 instructions: 310000000 cycles: 336160059 heartbeat IPC: 0.75566 cumulative IPC: 0.730196 (Simulation time: 0 hr 11 min 39 sec) 
Heartbeat CPU 0 instructions: 320000000 cycles: 349962002 heartbeat IPC: 0.724536 cumulative IPC: 0.729937 (Simulation time: 0 hr 12 min 4 sec) 
Heartbeat CPU 0 instructions: 330000000 cycles: 363757281 heartbeat IPC: 0.724886 cumulative IPC: 0.729716 (Simulation time: 0 hr 12 min 30 sec) 
Heartbeat CPU 0 instructions: 340000000 cycles: 377816936 heartbeat IPC: 0.711255 cumulative IPC: 0.728928 (Simulation time: 0 hr 12 min 56 sec) 
Heartbeat CPU 0 instructions: 350000000 cycles: 391091267 heartbeat IPC: 0.753334 cumulative IPC: 0.729873 (Simulation time: 0 hr 13 min 19 sec) 
Heartbeat CPU 0 instructions: 360000000 cycles: 404923025 heartbeat IPC: 0.722974 cumulative IPC: 0.729606 (Simulation time: 0 hr 13 min 45 sec) 
Heartbeat CPU 0 instructions: 370000003 cycles: 418724874 heartbeat IPC: 0.724541 cumulative IPC: 0.729417 (Simulation time: 0 hr 14 min 10 sec) 
Heartbeat CPU 0 instructions: 380000000 cycles: 432751645 heartbeat IPC: 0.712922 cumulative IPC: 0.728815 (Simulation time: 0 hr 14 min 36 sec) 
Heartbeat CPU 0 instructions: 390000003 cycles: 446015464 heartbeat IPC: 0.753931 cumulative IPC: 0.729653 (Simulation time: 0 hr 14 min 59 sec) 
Heartbeat CPU 0 instructions: 400000000 cycles: 459834671 heartbeat IPC: 0.72363 cumulative IPC: 0.72945 (Simulation time: 0 hr 15 min 24 sec) 
Heartbeat CPU 0 instructions: 410000000 cycles: 473602522 heartbeat IPC: 0.72633 cumulative IPC: 0.729349 (Simulation time: 0 hr 15 min 50 sec) 
Heartbeat CPU 0 instructions: 420000000 cycles: 487616924 heartbeat IPC: 0.713552 cumulative IPC: 0.728845 (Simulation time: 0 hr 16 min 15 sec) 
Heartbeat CPU 0 instructions: 430000003 cycles: 500909926 heartbeat IPC: 0.752276 cumulative IPC: 0.729534 (Simulation time: 0 hr 16 min 38 sec) 
Heartbeat CPU 0 instructions: 440000000 cycles: 514731084 heartbeat IPC: 0.723528 cumulative IPC: 0.729356 (Simulation time: 0 hr 17 min 3 sec) 
Heartbeat CPU 0 instructions: 450000000 cycles: 528515517 heartbeat IPC: 0.725456 cumulative IPC: 0.729244 (Simulation time: 0 hr 17 min 28 sec) 
Heartbeat CPU 0 instructions: 460000000 cycles: 542510295 heartbeat IPC: 0.714552 cumulative IPC: 0.728827 (Simulation time: 0 hr 17 min 53 sec) 
Heartbeat CPU 0 instructions: 470000001 cycles: 555771813 heartbeat IPC: 0.754062 cumulative IPC: 0.729487 (Simulation time: 0 hr 18 min 16 sec) 
Heartbeat CPU 0 instructions: 480000000 cycles: 569572357 heartbeat IPC: 0.724609 cumulative IPC: 0.729358 (Simulation time: 0 hr 18 min 40 sec) 
Heartbeat CPU 0 instructions: 490000002 cycles: 583333076 heartbeat IPC: 0.726706 cumulative IPC: 0.72929 (Simulation time: 0 hr 19 min 5 sec) 
Heartbeat CPU 0 instructions: 500000000 cycles: 597332837 heartbeat IPC: 0.714298 cumulative IPC: 0.728907 (Simulation time: 0 hr 19 min 30 sec) 
Heartbeat CPU 0 instructions: 510000002 cycles: 610674354 heartbeat IPC: 0.74954 cumulative IPC: 0.729397 (Simulation time: 0 hr 19 min 53 sec) 
Heartbeat CPU 0 instructions: 520000000 cycles: 624459024 heartbeat IPC: 0.725443 cumulative IPC: 0.729302 (Simulation time: 0 hr 20 min 18 sec) 
Heartbeat CPU 0 instructions: 530000003 cycles: 638204072 heartbeat IPC: 0.727535 cumulative IPC: 0.729261 (Simulation time: 0 hr 20 min 42 sec) 
Heartbeat CPU 0 instructions: 540000000 cycles: 652219946 heartbeat IPC: 0.713477 cumulative IPC: 0.728895 (Simulation time: 0 hr 21 min 7 sec) 
Heartbeat CPU 0 instructions: 550000003 cycles: 665565210 heartbeat IPC: 0.74933 cumulative IPC: 0.729337 (Simulation time: 0 hr 21 min 30 sec) 
Heartbeat CPU 0 instructions: 560000000 cycles: 679326899 heartbeat IPC: 0.726655 cumulative IPC: 0.729278 (Simulation time: 0 hr 21 min 55 sec) 
Heartbeat CPU 0 instructions: 570000001 cycles: 693096116 heartbeat IPC: 0.726258 cumulative IPC: 0.729214 (Simulation time: 0 hr 22 min 20 sec) 
Heartbeat CPU 0 instructions: 580000000 cycles: 707135270 heartbeat IPC: 0.712294 cumulative IPC: 0.728853 (Simulation time: 0 hr 22 min 45 sec) 
Heartbeat CPU 0 instructions: 590000000 cycles: 720416484 heartbeat IPC: 0.752943 cumulative IPC: 0.729329 (Simulation time: 0 hr 23 min 7 sec) 
Heartbeat CPU 0 instructions: 600000000 cycles: 734187420 heartbeat IPC: 0.726167 cumulative IPC: 0.729266 (Simulation time: 0 hr 23 min 32 sec) 
Finished CPU 0 instructions: 500000001 cycles: 685621315 cumulative IPC: 0.729266 (Simulation time: 0 hr 23 min 32 sec) 

CPU 0 Branch Prediction Accuracy: 97.5275% MPKI: 2.1997
Number of Branches: 44482865 Number of Mispredictions: 1099852
Number of LOAD Instructions: 144955155
Number of LOAD Instructions (ROI): 144955155
Number of STORE Instructions: 55921098
Number of STORE Instructions (ROI): 55921098
Total Destination Memory Operands: 57111147
Total Destination Memory Operands (ROI): 57111147
Total Source Memory Operands: 144955155
Total Source Memory Operands (ROI): 144955155
Number of DEPENDED LOADS: 13454782
Number of DEPENDED LOADS (ROI): 13454782
Number of SQ_ADDED: 57111126
Number of SQ_ADDED (ROI): 57111126
Number of LQ_ADDED: 174242615
Number of LQ_ADDED (ROI): 174242615
Number of Instructions read from trace: 600000256

ChampSim completed all CPUs

Region of Interest Statistics

CPU 0 cumulative IPC: 0.729266 instructions: 500000001 cycles: 685621315
ITLB TOTAL     ACCESS:  136066634  HIT:  136064081  MISS:       2553
ITLB LOAD      ACCESS:  136066634  HIT:  136064081  MISS:       2553
ITLB RFO       ACCESS:          0  HIT:          0  MISS:          0
ITLB PREFETCH  ACCESS:          0  HIT:          0  MISS:          0
ITLB WRITEBACK ACCESS:          0  HIT:          0  MISS:          0
ITLB PREFETCH  REQUESTED:          0  ISSUED:          0  USEFUL:          0  USELESS:          0
ITLB TOTAL MSHR MERGED:       4370
ITLB LOAD MSHR MERGED:       4370
ITLB RFO MSHR MERGED:          0
ITLB PREFETCH MSHR MERGED:          0
ITLB WRITEBACK MSHR MERGED:          0
ITLB TOTAL ACCESSES:  136071004 HITS:  136064081 MISSES:       6923
ITLB LOAD ACCESSES:  136071004 HITS:  136064081 MISSES:       6923
ITLB RFO ACCESSES:          0 HITS:          0 MISSES:          0
ITLB PREFETCH ACCESSES:          0 HITS:          0 MISSES:          0
ITLB WRITEBACK ACCESSES:          0 HITS:          0 MISSES:          0
ITLB RQ ACCESS:  500000202
ITLB RQ TO_CACHE:  136071004
ITLB RQ MERGED:  363929198
ITLB RQ FORWARD:          0
ITLB WQ ACCESS:          0
ITLB WQ TO_CACHE:          0
ITLB WQ MERGED:          0
ITLB WQ FORWARD:          0
DTLB TOTAL     ACCESS:  111550546  HIT:  111414353  MISS:     136193
DTLB LOAD      ACCESS:   78950987  HIT:   78825362  MISS:     125625
DTLB RFO       ACCESS:   32599559  HIT:   32588991  MISS:      10568
DTLB PREFETCH  ACCESS:          0  HIT:          0  MISS:          0
DTLB WRITEBACK ACCESS:          0  HIT:          0  MISS:          0
DTLB PREFETCH  REQUESTED:          0  ISSUED:          0  USEFUL:          0  USELESS:          0
DTLB TOTAL MSHR MERGED:      63724
DTLB LOAD MSHR MERGED:      50933
DTLB RFO MSHR MERGED:      12791
DTLB PREFETCH MSHR MERGED:          0
DTLB WRITEBACK MSHR MERGED:          0
DTLB TOTAL ACCESSES:  111614270 HITS:  111414353 MISSES:     199917
DTLB LOAD ACCESSES:   79001920 HITS:   78825362 MISSES:     176558
DTLB RFO ACCESSES:   32612350 HITS:   32588991 MISSES:      23359
DTLB PREFETCH ACCESSES:          0 HITS:          0 MISSES:          0
DTLB WRITEBACK ACCESSES:          0 HITS:          0 MISSES:          0
DTLB RQ ACCESS:  157180627
DTLB RQ TO_CACHE:  111614270
DTLB RQ MERGED:   45566357
DTLB RQ FORWARD:          0
DTLB WQ ACCESS:          0
DTLB WQ TO_CACHE:          0
DTLB WQ MERGED:          0
DTLB WQ FORWARD:          0
L1D TOTAL     ACCESS:  198244780  HIT:  188403748  MISS:    9841032
L1D LOAD      ACCESS:   79950557  HIT:   75688334  MISS:    4262223
L1D RFO       ACCESS:   44537917  HIT:   43637636  MISS:     900281
L1D PREFETCH  ACCESS:   73756306  HIT:   69077778  MISS:    4678528
L1D WRITEBACK ACCESS:          0  HIT:          0  MISS:          0
L1D PREFETCH  REQUESTED:   80347006  ISSUED:   79891405  USEFUL:    1820238  USELESS:    2858199
L1D TOTAL MSHR MERGED:    2486861
L1D LOAD MSHR MERGED:     520192
L1D RFO MSHR MERGED:    1414769
L1D PREFETCH MSHR MERGED:     551900
L1D WRITEBACK MSHR MERGED:          0
L1D TOTAL ACCESSES:  200752809 HITS:  188424916 MISSES:   12327893
L1D LOAD ACCESSES:   80359577 HITS:   75700905 MISSES:    4658672
L1D RFO ACCESSES:   45949749 HITS:   43637636 MISSES:    2312113
L1D PREFETCH ACCESSES:   74443483 HITS:   69086375 MISSES:    5357108
L1D WRITEBACK ACCESSES:          0 HITS:          0 MISSES:          0
L1D RQ ACCESS:  109538657
L1D RQ TO_CACHE:   80347006
L1D RQ MERGED:   29179080
L1D RQ FORWARD:          0
L1D WQ ACCESS:   47641970
L1D WQ TO_CACHE:   45949749
L1D WQ MERGED:    1692221
L1D WQ FORWARD:      21168
L1I TOTAL     ACCESS:  161536912  HIT:  161272941  MISS:     263971
L1I LOAD      ACCESS:  161536912  HIT:  161272941  MISS:     263971
L1I RFO       ACCESS:          0  HIT:          0  MISS:          0
L1I PREFETCH  ACCESS:          0  HIT:          0  MISS:          0
L1I WRITEBACK ACCESS:          0  HIT:          0  MISS:          0
L1I PREFETCH  REQUESTED:          0  ISSUED:          0  USEFUL:          0  USELESS:          0
L1I TOTAL MSHR MERGED:     261177
L1I LOAD MSHR MERGED:     261177
L1I RFO MSHR MERGED:          0
L1I PREFETCH MSHR MERGED:          0
L1I WRITEBACK MSHR MERGED:          0
L1I TOTAL ACCESSES:  161798089 HITS:  161272941 MISSES:     525148
L1I LOAD ACCESSES:  161798089 HITS:  161272941 MISSES:     525148
L1I RFO ACCESSES:          0 HITS:          0 MISSES:          0
L1I PREFETCH ACCESSES:          0 HITS:          0 MISSES:          0
L1I WRITEBACK ACCESSES:          0 HITS:          0 MISSES:          0
L1I RQ ACCESS:  500000202
L1I RQ TO_CACHE:  161798089
L1I RQ MERGED:  338202113
L1I RQ FORWARD:          0
L1I WQ ACCESS:          0
L1I WQ TO_CACHE:          0
L1I WQ MERGED:          0
L1I WQ FORWARD:          0
L2C TOTAL     ACCESS:   11771449  HIT:   10382139  MISS:    1389310
L2C LOAD      ACCESS:    4402386  HIT:    3905672  MISS:     496714
L2C RFO       ACCESS:     897278  HIT:     536253  MISS:     361025
L2C PREFETCH  ACCESS:    5284230  HIT:    4755608  MISS:     528622
L2C WRITEBACK ACCESS:    1187555  HIT:    1184606  MISS:       2949
L2C PREFETCH  REQUESTED:     504483  ISSUED:     504483  USEFUL:     114803  USELESS:     414012
L2C TOTAL MSHR MERGED:       2046
L2C LOAD MSHR MERGED:        418
L2C RFO MSHR MERGED:          0
L2C PREFETCH MSHR MERGED:       1628
L2C WRITEBACK MSHR MERGED:          0
L2C TOTAL ACCESSES:   11776384 HITS:   10382356 MISSES:    1394028
L2C LOAD ACCESSES:    4402451 HITS:    3905737 MISSES:     496714
L2C RFO ACCESSES:     897344 HITS:     536319 MISSES:     361025
L2C PREFETCH ACCESSES:    5289034 HITS:    4755694 MISSES:     533340
L2C WRITEBACK ACCESSES:    1187555 HITS:    1184606 MISSES:       2949
L2C RQ ACCESS:    5299795
L2C RQ TO_CACHE:    5299664
L2C RQ MERGED:          0
L2C RQ FORWARD:          0
L2C WQ ACCESS:    1187555
L2C WQ TO_CACHE:    1187555
L2C WQ MERGED:          0
L2C WQ FORWARD:        217
LLC TOTAL     ACCESS:    1849643  HIT:    1239113  MISS:     610530
LLC LOAD      ACCESS:     496294  HIT:     224266  MISS:     272028
LLC RFO       ACCESS:     361022  HIT:     244529  MISS:     116493
LLC PREFETCH  ACCESS:     531592  HIT:     313261  MISS:     218331
LLC WRITEBACK ACCESS:     460735  HIT:     457057  MISS:       3678
LLC PREFETCH  REQUESTED:          0  ISSUED:          0  USEFUL:       3562  USELESS:     215013
LLC TOTAL MSHR MERGED:         88
LLC LOAD MSHR MERGED:         37
LLC RFO MSHR MERGED:          0
LLC PREFETCH MSHR MERGED:         51
LLC WRITEBACK MSHR MERGED:          0
LLC TOTAL ACCESSES:    1849757 HITS:    1239139 MISSES:     610618
LLC LOAD ACCESSES:     496296 HITS:     224268 MISSES:     272028
LLC RFO ACCESSES:     361025 HITS:     244532 MISSES:     116493
LLC PREFETCH ACCESSES:     531701 HITS:     313282 MISSES:     218419
LLC WRITEBACK ACCESSES:     460735 HITS:     457057 MISSES:       3678
LLC 0 RQ ACCESS:     857321
LLC 0 RQ TO_CACHE:     857316
LLC 0 RQ MERGED:          0
LLC 0 RQ FORWARD:          0
LLC WQ ACCESS:     460735
LLC WQ TO_CACHE:     460735
LLC WQ MERGED:          0
LLC WQ FORWARD:         26
Major fault: 0 Minor fault: 3073
CPU 0 L1D next line prefetcher final stats
CPU 0 L2C PC-based stride prefetcher final stats
All Misses: 736459
All Hits: 1439875
SD Algo Stats - Switches: 0 SRR-Repls: 310809 BRR-Repls: 0

DRAM Statistics
 CHANNEL 0
 RQ ROW_BUFFER_HIT:     411348  ROW_BUFFER_MISS:     195259
 DBUS_CONGESTED:     431243
 WQ ROW_BUFFER_HIT:      13568  ROW_BUFFER_MISS:     109211  FULL:          0

 AVG_CONGESTED_CYCLE: 13
LOADS RETIRED: 120673965
INSTR RETIRED: 500000000
