
*** ChampSim Multicore Out-of-Order Simulator ***

Warmup Instructions: 100000000
Simulation Instructions: 500000000
Number of CPUs: 1
LLC sets: 2048
LLC ways: 16
Clean RRIP Policies: 2213220222132202 Dirty RRIP Policies: 2203120222031202 PSEL Width: 10 Track Set: 4294967295 PSEL Mask: 1 Demote Mask: 3140100031401000DS Algo: 0Window size: 0
Off-chip DRAM Size: 4096 MB Channels: 1 Width: 64-bit Data Rate: 1600 MT/s

CPU 0 runs /mnt/beegfs/iconst01/spec2017/Lbm.trace.gz
NOT SORTED
TRACE STRING: /mnt/beegfs/iconst01/spec2017/Lbm.trace.gz
SORTED
TRACE STRING: /mnt/beegfs/iconst01/spec2017/Lbm.trace.gz
INITIAL
TRACE STRING: /mnt/beegfs/iconst01/spec2017/Lbm.trace.gz

champsim_seed used: 283

CPU 0 L1D next line prefetcher
CPU 0 L2C IP-based stride prefetcher
Initialize DRRIP state
Assign rand_sets[0]: 454  LLC: 2048
rand_sets[0]: 454
Assign rand_sets[1]: 1662  LLC: 2048
rand_sets[1]: 1662
Assign rand_sets[2]: 1921  LLC: 2048
rand_sets[2]: 1921
Assign rand_sets[3]: 1131  LLC: 2048
rand_sets[3]: 1131
Assign rand_sets[4]: 331  LLC: 2048
rand_sets[4]: 331
Assign rand_sets[5]: 1531  LLC: 2048
rand_sets[5]: 1531
Assign rand_sets[6]: 482  LLC: 2048
rand_sets[6]: 482
Assign rand_sets[7]: 1275  LLC: 2048
rand_sets[7]: 1275
Assign rand_sets[8]: 1876  LLC: 2048
rand_sets[8]: 1876
Assign rand_sets[9]: 2038  LLC: 2048
rand_sets[9]: 2038
Assign rand_sets[10]: 701  LLC: 2048
rand_sets[10]: 701
Assign rand_sets[11]: 479  LLC: 2048
rand_sets[11]: 479
Assign rand_sets[12]: 892  LLC: 2048
rand_sets[12]: 892
Assign rand_sets[13]: 1820  LLC: 2048
rand_sets[13]: 1820
Assign rand_sets[14]: 1505  LLC: 2048
rand_sets[14]: 1505
Assign rand_sets[15]: 1159  LLC: 2048
rand_sets[15]: 1159
Assign rand_sets[16]: 513  LLC: 2048
rand_sets[16]: 513
Assign rand_sets[17]: 703  LLC: 2048
rand_sets[17]: 703
Assign rand_sets[18]: 561  LLC: 2048
rand_sets[18]: 561
Assign rand_sets[19]: 990  LLC: 2048
rand_sets[19]: 990
Assign rand_sets[20]: 342  LLC: 2048
rand_sets[20]: 342
Assign rand_sets[21]: 882  LLC: 2048
rand_sets[21]: 882
Assign rand_sets[22]: 15  LLC: 2048
rand_sets[22]: 15
Assign rand_sets[23]: 71  LLC: 2048
rand_sets[23]: 71
Assign rand_sets[24]: 1127  LLC: 2048
rand_sets[24]: 1127
Assign rand_sets[25]: 1382  LLC: 2048
rand_sets[25]: 1382
Assign rand_sets[26]: 647  LLC: 2048
rand_sets[26]: 647
Assign rand_sets[27]: 857  LLC: 2048
rand_sets[27]: 857
Assign rand_sets[28]: 1450  LLC: 2048
rand_sets[28]: 1450
Assign rand_sets[29]: 1160  LLC: 2048
rand_sets[29]: 1160
Assign rand_sets[30]: 1852  LLC: 2048
rand_sets[30]: 1852
Assign rand_sets[31]: 1881  LLC: 2048
rand_sets[31]: 1881
Assign rand_sets[32]: 1770  LLC: 2048
rand_sets[32]: 1770
Assign rand_sets[33]: 1622  LLC: 2048
rand_sets[33]: 1622
Assign rand_sets[34]: 275  LLC: 2048
rand_sets[34]: 275
Assign rand_sets[35]: 635  LLC: 2048
rand_sets[35]: 635
Assign rand_sets[36]: 466  LLC: 2048
rand_sets[36]: 466
Assign rand_sets[37]: 1413  LLC: 2048
rand_sets[37]: 1413
Assign rand_sets[38]: 417  LLC: 2048
rand_sets[38]: 417
Assign rand_sets[39]: 472  LLC: 2048
rand_sets[39]: 472
Assign rand_sets[40]: 1340  LLC: 2048
rand_sets[40]: 1340
Assign rand_sets[41]: 852  LLC: 2048
rand_sets[41]: 852
Assign rand_sets[42]: 1365  LLC: 2048
rand_sets[42]: 1365
Assign rand_sets[43]: 47  LLC: 2048
rand_sets[43]: 47
Assign rand_sets[44]: 823  LLC: 2048
rand_sets[44]: 823
Assign rand_sets[45]: 686  LLC: 2048
rand_sets[45]: 686
Assign rand_sets[46]: 1637  LLC: 2048
rand_sets[46]: 1637
Assign rand_sets[47]: 1115  LLC: 2048
rand_sets[47]: 1115
Assign rand_sets[48]: 986  LLC: 2048
rand_sets[48]: 986
Assign rand_sets[49]: 258  LLC: 2048
rand_sets[49]: 258
Assign rand_sets[50]: 633  LLC: 2048
rand_sets[50]: 633
Assign rand_sets[51]: 920  LLC: 2048
rand_sets[51]: 920
Assign rand_sets[52]: 204  LLC: 2048
rand_sets[52]: 204
Assign rand_sets[53]: 227  LLC: 2048
rand_sets[53]: 227
Assign rand_sets[54]: 1818  LLC: 2048
rand_sets[54]: 1818
Assign rand_sets[55]: 886  LLC: 2048
rand_sets[55]: 886
Assign rand_sets[56]: 1422  LLC: 2048
rand_sets[56]: 1422
Assign rand_sets[57]: 607  LLC: 2048
rand_sets[57]: 607
Assign rand_sets[58]: 217  LLC: 2048
rand_sets[58]: 217
Assign rand_sets[59]: 1945  LLC: 2048
rand_sets[59]: 1945
Assign rand_sets[60]: 143  LLC: 2048
rand_sets[60]: 143
Assign rand_sets[61]: 1311  LLC: 2048
rand_sets[61]: 1311
Assign rand_sets[62]: 319  LLC: 2048
rand_sets[62]: 319
Assign rand_sets[63]: 1846  LLC: 2048
rand_sets[63]: 1846
 CLEAN-RRIP-POLICY-1: 2-2-1-3-2-2-0-2- CLEAN-RRIP-POLICY-2: 2-2-1-3-2-2-0-2-
 DIRTY-RRIP-POLICY-1: 2-2-0-3-1-2-0-2- DIRTY-RRIP-POLICY-2: 2-2-0-3-1-2-0-2-
 PSEL width: 10
Heartbeat CPU 0 instructions: 10000000 cycles: 4321565 heartbeat IPC: 2.31398 cumulative IPC: 2.31398 (Simulation time: 0 hr 0 min 18 sec) 
Heartbeat CPU 0 instructions: 20000000 cycles: 8643653 heartbeat IPC: 2.3137 cumulative IPC: 2.31384 (Simulation time: 0 hr 0 min 36 sec) 
Heartbeat CPU 0 instructions: 30000000 cycles: 12965440 heartbeat IPC: 2.31386 cumulative IPC: 2.31384 (Simulation time: 0 hr 0 min 54 sec) 
Heartbeat CPU 0 instructions: 40000000 cycles: 17291323 heartbeat IPC: 2.31167 cumulative IPC: 2.3133 (Simulation time: 0 hr 1 min 12 sec) 
Heartbeat CPU 0 instructions: 50000000 cycles: 21613224 heartbeat IPC: 2.3138 cumulative IPC: 2.3134 (Simulation time: 0 hr 1 min 31 sec) 
Heartbeat CPU 0 instructions: 60000000 cycles: 25935110 heartbeat IPC: 2.3138 cumulative IPC: 2.31347 (Simulation time: 0 hr 1 min 49 sec) 
Heartbeat CPU 0 instructions: 70000000 cycles: 30256571 heartbeat IPC: 2.31403 cumulative IPC: 2.31355 (Simulation time: 0 hr 2 min 8 sec) 
Heartbeat CPU 0 instructions: 80000000 cycles: 34582737 heartbeat IPC: 2.31152 cumulative IPC: 2.31329 (Simulation time: 0 hr 2 min 26 sec) 
Heartbeat CPU 0 instructions: 90000003 cycles: 38904849 heartbeat IPC: 2.31368 cumulative IPC: 2.31334 (Simulation time: 0 hr 2 min 44 sec) 
Heartbeat CPU 0 instructions: 100000000 cycles: 43226368 heartbeat IPC: 2.314 cumulative IPC: 2.3134 (Simulation time: 0 hr 3 min 3 sec) 

Warmup complete CPU 0 instructions: 100000001 cycles: 43226369 (Simulation time: 0 hr 3 min 3 sec) 

Heartbeat CPU 0 instructions: 110000000 cycles: 57701867 heartbeat IPC: 0.690822 cumulative IPC: 0.690822 (Simulation time: 0 hr 3 min 30 sec) 
Heartbeat CPU 0 instructions: 120000000 cycles: 72127145 heartbeat IPC: 0.693228 cumulative IPC: 0.692023 (Simulation time: 0 hr 3 min 56 sec) 
Heartbeat CPU 0 instructions: 130000000 cycles: 86446778 heartbeat IPC: 0.698342 cumulative IPC: 0.694116 (Simulation time: 0 hr 4 min 23 sec) 
Heartbeat CPU 0 instructions: 140000000 cycles: 100508551 heartbeat IPC: 0.711148 cumulative IPC: 0.698297 (Simulation time: 0 hr 4 min 49 sec) 
Heartbeat CPU 0 instructions: 150000003 cycles: 114061936 heartbeat IPC: 0.737823 cumulative IPC: 0.70586 (Simulation time: 0 hr 5 min 15 sec) 
Heartbeat CPU 0 instructions: 160000000 cycles: 128258516 heartbeat IPC: 0.704395 cumulative IPC: 0.705615 (Simulation time: 0 hr 5 min 42 sec) 
Heartbeat CPU 0 instructions: 170000002 cycles: 142733900 heartbeat IPC: 0.690828 cumulative IPC: 0.703464 (Simulation time: 0 hr 6 min 9 sec) 
Heartbeat CPU 0 instructions: 180000000 cycles: 156739614 heartbeat IPC: 0.713994 cumulative IPC: 0.704764 (Simulation time: 0 hr 6 min 35 sec) 
Heartbeat CPU 0 instructions: 190000003 cycles: 173625468 heartbeat IPC: 0.592212 cumulative IPC: 0.690189 (Simulation time: 0 hr 7 min 5 sec) 
Heartbeat CPU 0 instructions: 200000000 cycles: 194022775 heartbeat IPC: 0.490261 cumulative IPC: 0.663146 (Simulation time: 0 hr 7 min 38 sec) 
Heartbeat CPU 0 instructions: 210000001 cycles: 208404265 heartbeat IPC: 0.695338 cumulative IPC: 0.665949 (Simulation time: 0 hr 8 min 4 sec) 
Heartbeat CPU 0 instructions: 220000000 cycles: 222476713 heartbeat IPC: 0.710608 cumulative IPC: 0.669455 (Simulation time: 0 hr 8 min 31 sec) 
Heartbeat CPU 0 instructions: 230000001 cycles: 236638664 heartbeat IPC: 0.706117 cumulative IPC: 0.672139 (Simulation time: 0 hr 8 min 57 sec) 
Heartbeat CPU 0 instructions: 240000000 cycles: 250775272 heartbeat IPC: 0.707383 cumulative IPC: 0.67454 (Simulation time: 0 hr 9 min 24 sec) 
Heartbeat CPU 0 instructions: 250000000 cycles: 265496761 heartbeat IPC: 0.679279 cumulative IPC: 0.674854 (Simulation time: 0 hr 9 min 51 sec) 
Heartbeat CPU 0 instructions: 260000000 cycles: 280411604 heartbeat IPC: 0.670473 cumulative IPC: 0.674578 (Simulation time: 0 hr 10 min 18 sec) 
Heartbeat CPU 0 instructions: 270000002 cycles: 295480281 heartbeat IPC: 0.663628 cumulative IPC: 0.673924 (Simulation time: 0 hr 10 min 46 sec) 
Heartbeat CPU 0 instructions: 280000000 cycles: 310249277 heartbeat IPC: 0.677094 cumulative IPC: 0.674099 (Simulation time: 0 hr 11 min 13 sec) 
Heartbeat CPU 0 instructions: 290000003 cycles: 325877475 heartbeat IPC: 0.639869 cumulative IPC: 0.672207 (Simulation time: 0 hr 11 min 41 sec) 
Heartbeat CPU 0 instructions: 300000000 cycles: 341255318 heartbeat IPC: 0.650286 cumulative IPC: 0.671076 (Simulation time: 0 hr 12 min 8 sec) 
Heartbeat CPU 0 instructions: 310000000 cycles: 357172963 heartbeat IPC: 0.628234 cumulative IPC: 0.668904 (Simulation time: 0 hr 12 min 36 sec) 
Heartbeat CPU 0 instructions: 320000000 cycles: 372948068 heartbeat IPC: 0.63391 cumulative IPC: 0.667229 (Simulation time: 0 hr 13 min 4 sec) 
Heartbeat CPU 0 instructions: 330000002 cycles: 388134632 heartbeat IPC: 0.658477 cumulative IPC: 0.666844 (Simulation time: 0 hr 13 min 31 sec) 
Heartbeat CPU 0 instructions: 340000000 cycles: 404222717 heartbeat IPC: 0.621578 cumulative IPC: 0.664827 (Simulation time: 0 hr 13 min 59 sec) 
Heartbeat CPU 0 instructions: 350000001 cycles: 418865659 heartbeat IPC: 0.682923 cumulative IPC: 0.665532 (Simulation time: 0 hr 14 min 25 sec) 
Heartbeat CPU 0 instructions: 360000000 cycles: 434309834 heartbeat IPC: 0.647493 cumulative IPC: 0.66482 (Simulation time: 0 hr 14 min 53 sec) 
Heartbeat CPU 0 instructions: 370000000 cycles: 449116865 heartbeat IPC: 0.675355 cumulative IPC: 0.665204 (Simulation time: 0 hr 15 min 19 sec) 
Heartbeat CPU 0 instructions: 380000000 cycles: 464169210 heartbeat IPC: 0.664348 cumulative IPC: 0.665173 (Simulation time: 0 hr 15 min 46 sec) 
Heartbeat CPU 0 instructions: 390000000 cycles: 478672086 heartbeat IPC: 0.689518 cumulative IPC: 0.665984 (Simulation time: 0 hr 16 min 12 sec) 
Heartbeat CPU 0 instructions: 400000000 cycles: 492965598 heartbeat IPC: 0.699618 cumulative IPC: 0.667053 (Simulation time: 0 hr 16 min 38 sec) 
Heartbeat CPU 0 instructions: 410000000 cycles: 506918707 heartbeat IPC: 0.716686 cumulative IPC: 0.668547 (Simulation time: 0 hr 17 min 3 sec) 
Heartbeat CPU 0 instructions: 420000000 cycles: 520949400 heartbeat IPC: 0.712723 cumulative IPC: 0.669844 (Simulation time: 0 hr 17 min 29 sec) 
Heartbeat CPU 0 instructions: 430000002 cycles: 534837269 heartbeat IPC: 0.720053 cumulative IPC: 0.671263 (Simulation time: 0 hr 17 min 54 sec) 
Heartbeat CPU 0 instructions: 440000000 cycles: 548616116 heartbeat IPC: 0.72575 cumulative IPC: 0.672748 (Simulation time: 0 hr 18 min 19 sec) 
Heartbeat CPU 0 instructions: 450000000 cycles: 562396792 heartbeat IPC: 0.725654 cumulative IPC: 0.674152 (Simulation time: 0 hr 18 min 44 sec) 
Heartbeat CPU 0 instructions: 460000000 cycles: 577169585 heartbeat IPC: 0.67692 cumulative IPC: 0.674229 (Simulation time: 0 hr 19 min 10 sec) 
Heartbeat CPU 0 instructions: 470000000 cycles: 591442893 heartbeat IPC: 0.700608 cumulative IPC: 0.674916 (Simulation time: 0 hr 19 min 35 sec) 
Heartbeat CPU 0 instructions: 480000000 cycles: 605587871 heartbeat IPC: 0.706965 cumulative IPC: 0.675722 (Simulation time: 0 hr 20 min 1 sec) 
Heartbeat CPU 0 instructions: 490000001 cycles: 620129463 heartbeat IPC: 0.687683 cumulative IPC: 0.676023 (Simulation time: 0 hr 20 min 27 sec) 
Heartbeat CPU 0 instructions: 500000000 cycles: 634711112 heartbeat IPC: 0.685793 cumulative IPC: 0.676264 (Simulation time: 0 hr 20 min 52 sec) 
Heartbeat CPU 0 instructions: 510000002 cycles: 648865546 heartbeat IPC: 0.706493 cumulative IPC: 0.676971 (Simulation time: 0 hr 21 min 18 sec) 
Heartbeat CPU 0 instructions: 520000000 cycles: 663156753 heartbeat IPC: 0.699731 cumulative IPC: 0.677495 (Simulation time: 0 hr 21 min 43 sec) 
Heartbeat CPU 0 instructions: 530000001 cycles: 677252859 heartbeat IPC: 0.709416 cumulative IPC: 0.678205 (Simulation time: 0 hr 22 min 9 sec) 
Heartbeat CPU 0 instructions: 540000000 cycles: 691854253 heartbeat IPC: 0.684866 cumulative IPC: 0.678355 (Simulation time: 0 hr 22 min 34 sec) 
Heartbeat CPU 0 instructions: 550000003 cycles: 705859179 heartbeat IPC: 0.714035 cumulative IPC: 0.679109 (Simulation time: 0 hr 23 min 0 sec) 
Heartbeat CPU 0 instructions: 560000000 cycles: 720563219 heartbeat IPC: 0.680085 cumulative IPC: 0.67913 (Simulation time: 0 hr 23 min 25 sec) 
Heartbeat CPU 0 instructions: 570000001 cycles: 734885191 heartbeat IPC: 0.698228 cumulative IPC: 0.679526 (Simulation time: 0 hr 23 min 51 sec) 
Heartbeat CPU 0 instructions: 580000000 cycles: 748584742 heartbeat IPC: 0.729951 cumulative IPC: 0.680505 (Simulation time: 0 hr 24 min 16 sec) 
Heartbeat CPU 0 instructions: 590000003 cycles: 761762383 heartbeat IPC: 0.758861 cumulative IPC: 0.681942 (Simulation time: 0 hr 24 min 41 sec) 
Heartbeat CPU 0 instructions: 600000000 cycles: 775680748 heartbeat IPC: 0.718475 cumulative IPC: 0.682636 (Simulation time: 0 hr 25 min 6 sec) 
Finished CPU 0 instructions: 500000000 cycles: 732454387 cumulative IPC: 0.682636 (Simulation time: 0 hr 25 min 6 sec) 

CPU 0 Branch Prediction Accuracy: 99.5915% MPKI: 0.037126
Number of Branches: 4544106 Number of Mispredictions: 18563
Number of LOAD Instructions: 149787067
Number of LOAD Instructions (ROI): 149787067
Number of STORE Instructions: 77239062
Number of STORE Instructions (ROI): 77239062
Total Destination Memory Operands: 77239062
Total Destination Memory Operands (ROI): 77239062
Total Source Memory Operands: 149787067
Total Source Memory Operands (ROI): 149787067
Number of DEPENDED LOADS: 19249780
Number of DEPENDED LOADS (ROI): 19249780
Number of SQ_ADDED: 77239036
Number of SQ_ADDED (ROI): 77239036
Number of LQ_ADDED: 149787020
Number of LQ_ADDED (ROI): 149787020
Number of Instructions read from trace: 600000256

ChampSim completed all CPUs

Region of Interest Statistics

CPU 0 cumulative IPC: 0.682636 instructions: 500000000 cycles: 732454387
ITLB TOTAL     ACCESS:   86458252  HIT:   86458251  MISS:          1
ITLB LOAD      ACCESS:   86458252  HIT:   86458251  MISS:          1
ITLB RFO       ACCESS:          0  HIT:          0  MISS:          0
ITLB PREFETCH  ACCESS:          0  HIT:          0  MISS:          0
ITLB WRITEBACK ACCESS:          0  HIT:          0  MISS:          0
ITLB PREFETCH  REQUESTED:          0  ISSUED:          0  USEFUL:          0  USELESS:          0
ITLB TOTAL MSHR MERGED:          1
ITLB LOAD MSHR MERGED:          1
ITLB RFO MSHR MERGED:          0
ITLB PREFETCH MSHR MERGED:          0
ITLB WRITEBACK MSHR MERGED:          0
ITLB TOTAL ACCESSES:   86458253 HITS:   86458251 MISSES:          2
ITLB LOAD ACCESSES:   86458253 HITS:   86458251 MISSES:          2
ITLB RFO ACCESSES:          0 HITS:          0 MISSES:          0
ITLB PREFETCH ACCESSES:          0 HITS:          0 MISSES:          0
ITLB WRITEBACK ACCESSES:          0 HITS:          0 MISSES:          0
ITLB RQ ACCESS:  500000002
ITLB RQ TO_CACHE:   86458253
ITLB RQ MERGED:  413541749
ITLB RQ FORWARD:          0
ITLB WQ ACCESS:          0
ITLB WQ TO_CACHE:          0
ITLB WQ MERGED:          0
ITLB WQ FORWARD:          0
DTLB TOTAL     ACCESS:   98105848  HIT:   97920587  MISS:     185261
DTLB LOAD      ACCESS:   55038090  HIT:   54991779  MISS:      46311
DTLB RFO       ACCESS:   43067758  HIT:   42928808  MISS:     138950
DTLB PREFETCH  ACCESS:          0  HIT:          0  MISS:          0
DTLB WRITEBACK ACCESS:          0  HIT:          0  MISS:          0
DTLB PREFETCH  REQUESTED:          0  ISSUED:          0  USEFUL:          0  USELESS:          0
DTLB TOTAL MSHR MERGED:      83550
DTLB LOAD MSHR MERGED:      83545
DTLB RFO MSHR MERGED:          5
DTLB PREFETCH MSHR MERGED:          0
DTLB WRITEBACK MSHR MERGED:          0
DTLB TOTAL ACCESSES:   98189398 HITS:   97920587 MISSES:     268811
DTLB LOAD ACCESSES:   55121635 HITS:   54991779 MISSES:     129856
DTLB RFO ACCESSES:   43067763 HITS:   42928808 MISSES:     138955
DTLB PREFETCH ACCESSES:          0 HITS:          0 MISSES:          0
DTLB WRITEBACK ACCESSES:          0 HITS:          0 MISSES:          0
DTLB RQ ACCESS:  173632747
DTLB RQ TO_CACHE:   98189398
DTLB RQ MERGED:   75443349
DTLB RQ FORWARD:          0
DTLB WQ ACCESS:          0
DTLB WQ TO_CACHE:          0
DTLB WQ MERGED:          0
DTLB WQ FORWARD:          0
L1D TOTAL     ACCESS:  164584264  HIT:  145011709  MISS:   19572555
L1D LOAD      ACCESS:   60553719  HIT:   58702470  MISS:    1851249
L1D RFO       ACCESS:   64513933  HIT:   47911793  MISS:   16602140
L1D PREFETCH  ACCESS:   39516612  HIT:   38397446  MISS:    1119166
L1D WRITEBACK ACCESS:          0  HIT:          0  MISS:          0
L1D PREFETCH  REQUESTED:   61752407  ISSUED:   61459786  USEFUL:    1117253  USELESS:       1914
L1D TOTAL MSHR MERGED:    3547560
L1D LOAD MSHR MERGED:    1270462
L1D RFO MSHR MERGED:      11417
L1D PREFETCH MSHR MERGED:    2265681
L1D WRITEBACK MSHR MERGED:          0
L1D TOTAL ACCESSES:  168694004 HITS:  145573889 MISSES:   23120115
L1D LOAD ACCESSES:   62007112 HITS:   58957175 MISSES:    3049937
L1D RFO ACCESSES:   64525316 HITS:   47911793 MISSES:   16613523
L1D PREFETCH ACCESSES:   42161576 HITS:   38704921 MISSES:    3456655
L1D WRITEBACK ACCESSES:          0 HITS:          0 MISSES:          0
L1D RQ ACCESS:  109091432
L1D RQ TO_CACHE:   61752407
L1D RQ MERGED:   47084320
L1D RQ FORWARD:          0
L1D WQ ACCESS:   64541313
L1D WQ TO_CACHE:   64525317
L1D WQ MERGED:      15996
L1D WQ FORWARD:     562180
L1I TOTAL     ACCESS:  107766603  HIT:  107766595  MISS:          8
L1I LOAD      ACCESS:  107766603  HIT:  107766595  MISS:          8
L1I RFO       ACCESS:          0  HIT:          0  MISS:          0
L1I PREFETCH  ACCESS:          0  HIT:          0  MISS:          0
L1I WRITEBACK ACCESS:          0  HIT:          0  MISS:          0
L1I PREFETCH  REQUESTED:          0  ISSUED:          0  USEFUL:          0  USELESS:          0
L1I TOTAL MSHR MERGED:          3
L1I LOAD MSHR MERGED:          3
L1I RFO MSHR MERGED:          0
L1I PREFETCH MSHR MERGED:          0
L1I WRITEBACK MSHR MERGED:          0
L1I TOTAL ACCESSES:  107766606 HITS:  107766595 MISSES:         11
L1I LOAD ACCESSES:  107766606 HITS:  107766595 MISSES:         11
L1I RFO ACCESSES:          0 HITS:          0 MISSES:          0
L1I PREFETCH ACCESSES:          0 HITS:          0 MISSES:          0
L1I WRITEBACK ACCESSES:          0 HITS:          0 MISSES:          0
L1I RQ ACCESS:  500000007
L1I RQ TO_CACHE:  107766606
L1I RQ MERGED:  392233401
L1I RQ FORWARD:          0
L1I WQ ACCESS:          0
L1I WQ TO_CACHE:          0
L1I WQ MERGED:          0
L1I WQ FORWARD:          0
L2C TOTAL     ACCESS:   36810087  HIT:   24852503  MISS:   11957584
L2C LOAD      ACCESS:    1779483  HIT:     256081  MISS:    1523402
L2C RFO       ACCESS:   16602102  HIT:    7610723  MISS:    8991379
L2C PREFETCH  ACCESS:    1826318  HIT:     384741  MISS:    1441577
L2C WRITEBACK ACCESS:   16602184  HIT:   16600958  MISS:       1226
L2C PREFETCH  REQUESTED:     812605  ISSUED:     812605  USEFUL:     253761  USELESS:    1188097
L2C TOTAL MSHR MERGED:       2609
L2C LOAD MSHR MERGED:        576
L2C RFO MSHR MERGED:          0
L2C PREFETCH MSHR MERGED:       2033
L2C WRITEBACK MSHR MERGED:          0
L2C TOTAL ACCESSES:   36987272 HITS:   24852508 MISSES:   12134764
L2C LOAD ACCESSES:    1779483 HITS:     256081 MISSES:    1523402
L2C RFO ACCESSES:   16602106 HITS:    7610728 MISSES:    8991378
L2C PREFETCH ACCESSES:    2003499 HITS:     384741 MISSES:    1618758
L2C WRITEBACK ACCESSES:   16602184 HITS:   16600958 MISSES:       1226
L2C RQ ACCESS:   18381589
L2C RQ TO_CACHE:   18381584
L2C RQ MERGED:          0
L2C RQ FORWARD:          0
L2C WQ ACCESS:   16602184
L2C WQ TO_CACHE:   16602184
L2C WQ MERGED:          0
L2C WQ FORWARD:          5
LLC TOTAL     ACCESS:   21119973  HIT:    5690434  MISS:   15429539
LLC LOAD      ACCESS:    1522826  HIT:      63103  MISS:    1459723
LLC RFO       ACCESS:    8991368  HIT:     803126  MISS:    8188242
LLC PREFETCH  ACCESS:    1613577  HIT:     108102  MISS:    1505475
LLC WRITEBACK ACCESS:    8992202  HIT:    4716103  MISS:    4276099
LLC PREFETCH  REQUESTED:          0  ISSUED:          0  USEFUL:      62952  USELESS:    1442394
LLC TOTAL MSHR MERGED:       2780
LLC LOAD MSHR MERGED:        213
LLC RFO MSHR MERGED:          0
LLC PREFETCH MSHR MERGED:       2567
LLC WRITEBACK MSHR MERGED:          0
LLC TOTAL ACCESSES:   21122765 HITS:    5690446 MISSES:   15432319
LLC LOAD ACCESSES:    1522826 HITS:      63103 MISSES:    1459723
LLC RFO ACCESSES:    8991378 HITS:     803137 MISSES:    8188241
LLC PREFETCH ACCESSES:    1616359 HITS:     108103 MISSES:    1508256
LLC WRITEBACK ACCESSES:    8992202 HITS:    4716103 MISSES:    4276099
LLC 0 RQ ACCESS:   10514204
LLC 0 RQ TO_CACHE:   10514193
LLC 0 RQ MERGED:          0
LLC 0 RQ FORWARD:          0
LLC WQ ACCESS:    8992202
LLC WQ TO_CACHE:    8992202
LLC WQ MERGED:          0
LLC WQ FORWARD:         12
Major fault: 0 Minor fault: 102360
CPU 0 L1D next line prefetcher final stats
CPU 0 L2C PC-based stride prefetcher final stats
All Misses: 18388770
All Hits: 6706714
SD Algo Stats - Switches: 0 SRR-Repls: 1638304 BRR-Repls: 0

DRAM Statistics
 CHANNEL 0
 RQ ROW_BUFFER_HIT:    3566625  ROW_BUFFER_MISS:    7585439
 DBUS_CONGESTED:   13253632
 WQ ROW_BUFFER_HIT:    1225595  ROW_BUFFER_MISS:    6993741  FULL:          0

 AVG_CONGESTED_CYCLE: 13
LOADS RETIRED: 124982196
INSTR RETIRED: 500000000
