
*** ChampSim Multicore Out-of-Order Simulator ***

Warmup Instructions: 100000000
Simulation Instructions: 500000000
Number of CPUs: 1
LLC sets: 2048
LLC ways: 16
Clean RRIP Policies: 1213030212130302 Dirty RRIP Policies: 1203130212031302 PSEL Width: 10 Track Set: 4294967295 PSEL Mask: 1 Demote Mask: 1040100010401000DS Algo: 0Window size: 0
Off-chip DRAM Size: 4096 MB Channels: 1 Width: 64-bit Data Rate: 1600 MT/s

CPU 0 runs /mnt/beegfs/iconst01/spec2017/Cam4.trace.gz
NOT SORTED
TRACE STRING: /mnt/beegfs/iconst01/spec2017/Cam4.trace.gz
SORTED
TRACE STRING: /mnt/beegfs/iconst01/spec2017/Cam4.trace.gz
INITIAL
TRACE STRING: /mnt/beegfs/iconst01/spec2017/Cam4.trace.gz

champsim_seed used: 325

CPU 0 L1D next line prefetcher
CPU 0 L2C IP-based stride prefetcher
Initialize DRRIP state
Assign rand_sets[0]: 454  LLC: 2048
rand_sets[0]: 454
Assign rand_sets[1]: 1662  LLC: 2048
rand_sets[1]: 1662
Assign rand_sets[2]: 1921  LLC: 2048
rand_sets[2]: 1921
Assign rand_sets[3]: 1131  LLC: 2048
rand_sets[3]: 1131
Assign rand_sets[4]: 331  LLC: 2048
rand_sets[4]: 331
Assign rand_sets[5]: 1531  LLC: 2048
rand_sets[5]: 1531
Assign rand_sets[6]: 482  LLC: 2048
rand_sets[6]: 482
Assign rand_sets[7]: 1275  LLC: 2048
rand_sets[7]: 1275
Assign rand_sets[8]: 1876  LLC: 2048
rand_sets[8]: 1876
Assign rand_sets[9]: 2038  LLC: 2048
rand_sets[9]: 2038
Assign rand_sets[10]: 701  LLC: 2048
rand_sets[10]: 701
Assign rand_sets[11]: 479  LLC: 2048
rand_sets[11]: 479
Assign rand_sets[12]: 892  LLC: 2048
rand_sets[12]: 892
Assign rand_sets[13]: 1820  LLC: 2048
rand_sets[13]: 1820
Assign rand_sets[14]: 1505  LLC: 2048
rand_sets[14]: 1505
Assign rand_sets[15]: 1159  LLC: 2048
rand_sets[15]: 1159
Assign rand_sets[16]: 513  LLC: 2048
rand_sets[16]: 513
Assign rand_sets[17]: 703  LLC: 2048
rand_sets[17]: 703
Assign rand_sets[18]: 561  LLC: 2048
rand_sets[18]: 561
Assign rand_sets[19]: 990  LLC: 2048
rand_sets[19]: 990
Assign rand_sets[20]: 342  LLC: 2048
rand_sets[20]: 342
Assign rand_sets[21]: 882  LLC: 2048
rand_sets[21]: 882
Assign rand_sets[22]: 15  LLC: 2048
rand_sets[22]: 15
Assign rand_sets[23]: 71  LLC: 2048
rand_sets[23]: 71
Assign rand_sets[24]: 1127  LLC: 2048
rand_sets[24]: 1127
Assign rand_sets[25]: 1382  LLC: 2048
rand_sets[25]: 1382
Assign rand_sets[26]: 647  LLC: 2048
rand_sets[26]: 647
Assign rand_sets[27]: 857  LLC: 2048
rand_sets[27]: 857
Assign rand_sets[28]: 1450  LLC: 2048
rand_sets[28]: 1450
Assign rand_sets[29]: 1160  LLC: 2048
rand_sets[29]: 1160
Assign rand_sets[30]: 1852  LLC: 2048
rand_sets[30]: 1852
Assign rand_sets[31]: 1881  LLC: 2048
rand_sets[31]: 1881
Assign rand_sets[32]: 1770  LLC: 2048
rand_sets[32]: 1770
Assign rand_sets[33]: 1622  LLC: 2048
rand_sets[33]: 1622
Assign rand_sets[34]: 275  LLC: 2048
rand_sets[34]: 275
Assign rand_sets[35]: 635  LLC: 2048
rand_sets[35]: 635
Assign rand_sets[36]: 466  LLC: 2048
rand_sets[36]: 466
Assign rand_sets[37]: 1413  LLC: 2048
rand_sets[37]: 1413
Assign rand_sets[38]: 417  LLC: 2048
rand_sets[38]: 417
Assign rand_sets[39]: 472  LLC: 2048
rand_sets[39]: 472
Assign rand_sets[40]: 1340  LLC: 2048
rand_sets[40]: 1340
Assign rand_sets[41]: 852  LLC: 2048
rand_sets[41]: 852
Assign rand_sets[42]: 1365  LLC: 2048
rand_sets[42]: 1365
Assign rand_sets[43]: 47  LLC: 2048
rand_sets[43]: 47
Assign rand_sets[44]: 823  LLC: 2048
rand_sets[44]: 823
Assign rand_sets[45]: 686  LLC: 2048
rand_sets[45]: 686
Assign rand_sets[46]: 1637  LLC: 2048
rand_sets[46]: 1637
Assign rand_sets[47]: 1115  LLC: 2048
rand_sets[47]: 1115
Assign rand_sets[48]: 986  LLC: 2048
rand_sets[48]: 986
Assign rand_sets[49]: 258  LLC: 2048
rand_sets[49]: 258
Assign rand_sets[50]: 633  LLC: 2048
rand_sets[50]: 633
Assign rand_sets[51]: 920  LLC: 2048
rand_sets[51]: 920
Assign rand_sets[52]: 204  LLC: 2048
rand_sets[52]: 204
Assign rand_sets[53]: 227  LLC: 2048
rand_sets[53]: 227
Assign rand_sets[54]: 1818  LLC: 2048
rand_sets[54]: 1818
Assign rand_sets[55]: 886  LLC: 2048
rand_sets[55]: 886
Assign rand_sets[56]: 1422  LLC: 2048
rand_sets[56]: 1422
Assign rand_sets[57]: 607  LLC: 2048
rand_sets[57]: 607
Assign rand_sets[58]: 217  LLC: 2048
rand_sets[58]: 217
Assign rand_sets[59]: 1945  LLC: 2048
rand_sets[59]: 1945
Assign rand_sets[60]: 143  LLC: 2048
rand_sets[60]: 143
Assign rand_sets[61]: 1311  LLC: 2048
rand_sets[61]: 1311
Assign rand_sets[62]: 319  LLC: 2048
rand_sets[62]: 319
Assign rand_sets[63]: 1846  LLC: 2048
rand_sets[63]: 1846
 CLEAN-RRIP-POLICY-1: 1-2-1-3-0-3-0-2- CLEAN-RRIP-POLICY-2: 1-2-1-3-0-3-0-2-
 DIRTY-RRIP-POLICY-1: 1-2-0-3-1-3-0-2- DIRTY-RRIP-POLICY-2: 1-2-0-3-1-3-0-2-
 PSEL width: 10
Heartbeat CPU 0 instructions: 10000000 cycles: 4859184 heartbeat IPC: 2.05796 cumulative IPC: 2.05796 (Simulation time: 0 hr 0 min 16 sec) 
Heartbeat CPU 0 instructions: 20000000 cycles: 9790786 heartbeat IPC: 2.02774 cumulative IPC: 2.04274 (Simulation time: 0 hr 0 min 32 sec) 
Heartbeat CPU 0 instructions: 30000001 cycles: 14562958 heartbeat IPC: 2.09548 cumulative IPC: 2.06002 (Simulation time: 0 hr 0 min 46 sec) 
Heartbeat CPU 0 instructions: 40000000 cycles: 19399957 heartbeat IPC: 2.0674 cumulative IPC: 2.06186 (Simulation time: 0 hr 1 min 3 sec) 
Heartbeat CPU 0 instructions: 50000000 cycles: 24256441 heartbeat IPC: 2.0591 cumulative IPC: 2.06131 (Simulation time: 0 hr 1 min 19 sec) 
Heartbeat CPU 0 instructions: 60000000 cycles: 29181840 heartbeat IPC: 2.03029 cumulative IPC: 2.05607 (Simulation time: 0 hr 1 min 35 sec) 
Heartbeat CPU 0 instructions: 70000001 cycles: 33956924 heartbeat IPC: 2.0942 cumulative IPC: 2.06144 (Simulation time: 0 hr 1 min 50 sec) 
Heartbeat CPU 0 instructions: 80000000 cycles: 38793176 heartbeat IPC: 2.06772 cumulative IPC: 2.06222 (Simulation time: 0 hr 2 min 6 sec) 
Heartbeat CPU 0 instructions: 90000002 cycles: 43647210 heartbeat IPC: 2.06014 cumulative IPC: 2.06199 (Simulation time: 0 hr 2 min 22 sec) 
Heartbeat CPU 0 instructions: 100000000 cycles: 48565977 heartbeat IPC: 2.03303 cumulative IPC: 2.05905 (Simulation time: 0 hr 2 min 39 sec) 

Warmup complete CPU 0 instructions: 100000001 cycles: 48565978 (Simulation time: 0 hr 2 min 39 sec) 

Heartbeat CPU 0 instructions: 110000000 cycles: 61643437 heartbeat IPC: 0.764674 cumulative IPC: 0.764674 (Simulation time: 0 hr 3 min 1 sec) 
Heartbeat CPU 0 instructions: 120000000 cycles: 75394330 heartbeat IPC: 0.727225 cumulative IPC: 0.74548 (Simulation time: 0 hr 3 min 25 sec) 
Heartbeat CPU 0 instructions: 130000000 cycles: 89138576 heartbeat IPC: 0.727577 cumulative IPC: 0.739415 (Simulation time: 0 hr 3 min 49 sec) 
Heartbeat CPU 0 instructions: 140000000 cycles: 103392633 heartbeat IPC: 0.701555 cumulative IPC: 0.729572 (Simulation time: 0 hr 4 min 13 sec) 
Heartbeat CPU 0 instructions: 150000003 cycles: 116543941 heartbeat IPC: 0.760381 cumulative IPC: 0.735533 (Simulation time: 0 hr 4 min 35 sec) 
Heartbeat CPU 0 instructions: 160000000 cycles: 130291861 heartbeat IPC: 0.727383 cumulative IPC: 0.734162 (Simulation time: 0 hr 4 min 59 sec) 
Heartbeat CPU 0 instructions: 170000001 cycles: 144068596 heartbeat IPC: 0.725861 cumulative IPC: 0.732964 (Simulation time: 0 hr 5 min 23 sec) 
Heartbeat CPU 0 instructions: 180000000 cycles: 158307218 heartbeat IPC: 0.702315 cumulative IPC: 0.728988 (Simulation time: 0 hr 5 min 47 sec) 
Heartbeat CPU 0 instructions: 190000003 cycles: 171428624 heartbeat IPC: 0.762114 cumulative IPC: 0.732525 (Simulation time: 0 hr 6 min 9 sec) 
Heartbeat CPU 0 instructions: 200000000 cycles: 185170583 heartbeat IPC: 0.727698 cumulative IPC: 0.73204 (Simulation time: 0 hr 6 min 33 sec) 
Heartbeat CPU 0 instructions: 210000002 cycles: 198947891 heartbeat IPC: 0.725831 cumulative IPC: 0.731471 (Simulation time: 0 hr 6 min 57 sec) 
Heartbeat CPU 0 instructions: 220000000 cycles: 213186142 heartbeat IPC: 0.702333 cumulative IPC: 0.728951 (Simulation time: 0 hr 7 min 22 sec) 
Heartbeat CPU 0 instructions: 230000001 cycles: 226245006 heartbeat IPC: 0.765763 cumulative IPC: 0.731656 (Simulation time: 0 hr 7 min 43 sec) 
Heartbeat CPU 0 instructions: 240000000 cycles: 239975881 heartbeat IPC: 0.728286 cumulative IPC: 0.731415 (Simulation time: 0 hr 8 min 7 sec) 
Heartbeat CPU 0 instructions: 250000001 cycles: 253701555 heartbeat IPC: 0.728562 cumulative IPC: 0.731224 (Simulation time: 0 hr 8 min 32 sec) 
Heartbeat CPU 0 instructions: 260000000 cycles: 267836921 heartbeat IPC: 0.707445 cumulative IPC: 0.729691 (Simulation time: 0 hr 8 min 56 sec) 
Heartbeat CPU 0 instructions: 270000003 cycles: 281008606 heartbeat IPC: 0.759205 cumulative IPC: 0.731363 (Simulation time: 0 hr 9 min 17 sec) 
Heartbeat CPU 0 instructions: 280000000 cycles: 294759611 heartbeat IPC: 0.727219 cumulative IPC: 0.731132 (Simulation time: 0 hr 9 min 42 sec) 
Heartbeat CPU 0 instructions: 290000001 cycles: 308532028 heartbeat IPC: 0.726089 cumulative IPC: 0.730865 (Simulation time: 0 hr 10 min 6 sec) 
Heartbeat CPU 0 instructions: 300000000 cycles: 322614347 heartbeat IPC: 0.71011 cumulative IPC: 0.729798 (Simulation time: 0 hr 10 min 30 sec) 
Heartbeat CPU 0 instructions: 310000000 cycles: 335808080 heartbeat IPC: 0.757936 cumulative IPC: 0.731091 (Simulation time: 0 hr 10 min 51 sec) 
Heartbeat CPU 0 instructions: 320000000 cycles: 349602874 heartbeat IPC: 0.724911 cumulative IPC: 0.730807 (Simulation time: 0 hr 11 min 16 sec) 
Heartbeat CPU 0 instructions: 330000000 cycles: 363393080 heartbeat IPC: 0.725152 cumulative IPC: 0.73056 (Simulation time: 0 hr 11 min 40 sec) 
Heartbeat CPU 0 instructions: 340000000 cycles: 377450646 heartbeat IPC: 0.711361 cumulative IPC: 0.729739 (Simulation time: 0 hr 12 min 4 sec) 
Heartbeat CPU 0 instructions: 350000000 cycles: 390670376 heartbeat IPC: 0.756445 cumulative IPC: 0.730771 (Simulation time: 0 hr 12 min 26 sec) 
Heartbeat CPU 0 instructions: 360000000 cycles: 404491259 heartbeat IPC: 0.723543 cumulative IPC: 0.73049 (Simulation time: 0 hr 12 min 50 sec) 
Heartbeat CPU 0 instructions: 370000003 cycles: 418284263 heartbeat IPC: 0.725005 cumulative IPC: 0.730286 (Simulation time: 0 hr 13 min 14 sec) 
Heartbeat CPU 0 instructions: 380000000 cycles: 432307000 heartbeat IPC: 0.713127 cumulative IPC: 0.729659 (Simulation time: 0 hr 13 min 38 sec) 
Heartbeat CPU 0 instructions: 390000003 cycles: 445548523 heartbeat IPC: 0.7552 cumulative IPC: 0.730511 (Simulation time: 0 hr 14 min 0 sec) 
Heartbeat CPU 0 instructions: 400000000 cycles: 459365956 heartbeat IPC: 0.723723 cumulative IPC: 0.730282 (Simulation time: 0 hr 14 min 24 sec) 
Heartbeat CPU 0 instructions: 410000000 cycles: 473128103 heartbeat IPC: 0.726631 cumulative IPC: 0.730164 (Simulation time: 0 hr 14 min 48 sec) 
Heartbeat CPU 0 instructions: 420000000 cycles: 487135901 heartbeat IPC: 0.713888 cumulative IPC: 0.729644 (Simulation time: 0 hr 15 min 12 sec) 
Heartbeat CPU 0 instructions: 430000003 cycles: 500387579 heartbeat IPC: 0.754622 cumulative IPC: 0.730377 (Simulation time: 0 hr 15 min 33 sec) 
Heartbeat CPU 0 instructions: 440000000 cycles: 514198314 heartbeat IPC: 0.724074 cumulative IPC: 0.73019 (Simulation time: 0 hr 15 min 57 sec) 
Heartbeat CPU 0 instructions: 450000000 cycles: 527977547 heartbeat IPC: 0.72573 cumulative IPC: 0.730062 (Simulation time: 0 hr 16 min 21 sec) 
Heartbeat CPU 0 instructions: 460000000 cycles: 541971572 heartbeat IPC: 0.714591 cumulative IPC: 0.729623 (Simulation time: 0 hr 16 min 46 sec) 
Heartbeat CPU 0 instructions: 470000001 cycles: 555204854 heartbeat IPC: 0.75567 cumulative IPC: 0.730303 (Simulation time: 0 hr 17 min 7 sec) 
Heartbeat CPU 0 instructions: 480000000 cycles: 568993936 heartbeat IPC: 0.725211 cumulative IPC: 0.730168 (Simulation time: 0 hr 17 min 31 sec) 
Heartbeat CPU 0 instructions: 490000002 cycles: 582748599 heartbeat IPC: 0.727026 cumulative IPC: 0.730087 (Simulation time: 0 hr 17 min 55 sec) 
Heartbeat CPU 0 instructions: 500000000 cycles: 596738919 heartbeat IPC: 0.71478 cumulative IPC: 0.729697 (Simulation time: 0 hr 18 min 19 sec) 
Heartbeat CPU 0 instructions: 510000002 cycles: 610019377 heartbeat IPC: 0.752986 cumulative IPC: 0.730248 (Simulation time: 0 hr 18 min 41 sec) 
Heartbeat CPU 0 instructions: 520000000 cycles: 623791796 heartbeat IPC: 0.726089 cumulative IPC: 0.730148 (Simulation time: 0 hr 19 min 5 sec) 
Heartbeat CPU 0 instructions: 530000003 cycles: 637527383 heartbeat IPC: 0.728036 cumulative IPC: 0.730099 (Simulation time: 0 hr 19 min 29 sec) 
Heartbeat CPU 0 instructions: 540000000 cycles: 651539407 heartbeat IPC: 0.713673 cumulative IPC: 0.729717 (Simulation time: 0 hr 19 min 53 sec) 
Heartbeat CPU 0 instructions: 550000003 cycles: 664803201 heartbeat IPC: 0.753932 cumulative IPC: 0.730238 (Simulation time: 0 hr 20 min 15 sec) 
Heartbeat CPU 0 instructions: 560000000 cycles: 678556133 heartbeat IPC: 0.727117 cumulative IPC: 0.73017 (Simulation time: 0 hr 20 min 39 sec) 
Heartbeat CPU 0 instructions: 570000001 cycles: 692321501 heartbeat IPC: 0.726461 cumulative IPC: 0.730091 (Simulation time: 0 hr 21 min 3 sec) 
Heartbeat CPU 0 instructions: 580000000 cycles: 706358456 heartbeat IPC: 0.712405 cumulative IPC: 0.729713 (Simulation time: 0 hr 21 min 27 sec) 
Heartbeat CPU 0 instructions: 590000000 cycles: 719572246 heartbeat IPC: 0.756785 cumulative IPC: 0.730247 (Simulation time: 0 hr 21 min 49 sec) 
Heartbeat CPU 0 instructions: 600000000 cycles: 733329561 heartbeat IPC: 0.726886 cumulative IPC: 0.730179 (Simulation time: 0 hr 22 min 13 sec) 
Finished CPU 0 instructions: 500000001 cycles: 684763591 cumulative IPC: 0.730179 (Simulation time: 0 hr 22 min 13 sec) 

CPU 0 Branch Prediction Accuracy: 97.5275% MPKI: 2.1997
Number of Branches: 44482865 Number of Mispredictions: 1099852
Number of LOAD Instructions: 144955155
Number of LOAD Instructions (ROI): 144955155
Number of STORE Instructions: 55921098
Number of STORE Instructions (ROI): 55921098
Total Destination Memory Operands: 57111147
Total Destination Memory Operands (ROI): 57111147
Total Source Memory Operands: 144955155
Total Source Memory Operands (ROI): 144955155
Number of DEPENDED LOADS: 13454754
Number of DEPENDED LOADS (ROI): 13454754
Number of SQ_ADDED: 57111126
Number of SQ_ADDED (ROI): 57111126
Number of LQ_ADDED: 174196160
Number of LQ_ADDED (ROI): 174196160
Number of Instructions read from trace: 600000256

ChampSim completed all CPUs

Region of Interest Statistics

CPU 0 cumulative IPC: 0.730179 instructions: 500000001 cycles: 684763591
ITLB TOTAL     ACCESS:  136064806  HIT:  136062253  MISS:       2553
ITLB LOAD      ACCESS:  136064806  HIT:  136062253  MISS:       2553
ITLB RFO       ACCESS:          0  HIT:          0  MISS:          0
ITLB PREFETCH  ACCESS:          0  HIT:          0  MISS:          0
ITLB WRITEBACK ACCESS:          0  HIT:          0  MISS:          0
ITLB PREFETCH  REQUESTED:          0  ISSUED:          0  USEFUL:          0  USELESS:          0
ITLB TOTAL MSHR MERGED:       4357
ITLB LOAD MSHR MERGED:       4357
ITLB RFO MSHR MERGED:          0
ITLB PREFETCH MSHR MERGED:          0
ITLB WRITEBACK MSHR MERGED:          0
ITLB TOTAL ACCESSES:  136069163 HITS:  136062253 MISSES:       6910
ITLB LOAD ACCESSES:  136069163 HITS:  136062253 MISSES:       6910
ITLB RFO ACCESSES:          0 HITS:          0 MISSES:          0
ITLB PREFETCH ACCESSES:          0 HITS:          0 MISSES:          0
ITLB WRITEBACK ACCESSES:          0 HITS:          0 MISSES:          0
ITLB RQ ACCESS:  500000202
ITLB RQ TO_CACHE:  136069163
ITLB RQ MERGED:  363931039
ITLB RQ FORWARD:          0
ITLB WQ ACCESS:          0
ITLB WQ TO_CACHE:          0
ITLB WQ MERGED:          0
ITLB WQ FORWARD:          0
DTLB TOTAL     ACCESS:  111549805  HIT:  111413611  MISS:     136194
DTLB LOAD      ACCESS:   78950854  HIT:   78825228  MISS:     125626
DTLB RFO       ACCESS:   32598951  HIT:   32588383  MISS:      10568
DTLB PREFETCH  ACCESS:          0  HIT:          0  MISS:          0
DTLB WRITEBACK ACCESS:          0  HIT:          0  MISS:          0
DTLB PREFETCH  REQUESTED:          0  ISSUED:          0  USEFUL:          0  USELESS:          0
DTLB TOTAL MSHR MERGED:      63644
DTLB LOAD MSHR MERGED:      50938
DTLB RFO MSHR MERGED:      12706
DTLB PREFETCH MSHR MERGED:          0
DTLB WRITEBACK MSHR MERGED:          0
DTLB TOTAL ACCESSES:  111613449 HITS:  111413611 MISSES:     199838
DTLB LOAD ACCESSES:   79001792 HITS:   78825228 MISSES:     176564
DTLB RFO ACCESSES:   32611657 HITS:   32588383 MISSES:      23274
DTLB PREFETCH ACCESSES:          0 HITS:          0 MISSES:          0
DTLB WRITEBACK ACCESSES:          0 HITS:          0 MISSES:          0
DTLB RQ ACCESS:  157180677
DTLB RQ TO_CACHE:  111613449
DTLB RQ MERGED:   45567228
DTLB RQ FORWARD:          0
DTLB WQ ACCESS:          0
DTLB WQ TO_CACHE:          0
DTLB WQ MERGED:          0
DTLB WQ FORWARD:          0
L1D TOTAL     ACCESS:  198255793  HIT:  188414691  MISS:    9841102
L1D LOAD      ACCESS:   79951831  HIT:   75689953  MISS:    4261878
L1D RFO       ACCESS:   44547770  HIT:   43647537  MISS:     900233
L1D PREFETCH  ACCESS:   73756192  HIT:   69077201  MISS:    4678991
L1D WRITEBACK ACCESS:          0  HIT:          0  MISS:          0
L1D PREFETCH  REQUESTED:   80346815  ISSUED:   79891177  USEFUL:    1820688  USELESS:    2858212
L1D TOTAL MSHR MERGED:    2474890
L1D LOAD MSHR MERGED:     518366
L1D RFO MSHR MERGED:    1404888
L1D PREFETCH MSHR MERGED:     551636
L1D WRITEBACK MSHR MERGED:          0
L1D TOTAL ACCESSES:  200751845 HITS:  188435853 MISSES:   12315992
L1D LOAD ACCESSES:   80359349 HITS:   75702487 MISSES:    4656862
L1D RFO ACCESSES:   45949809 HITS:   43647537 MISSES:    2302272
L1D PREFETCH ACCESSES:   74442687 HITS:   69085829 MISSES:    5356858
L1D WRITEBACK ACCESSES:          0 HITS:          0 MISSES:          0
L1D RQ ACCESS:  109538707
L1D RQ TO_CACHE:   80346815
L1D RQ MERGED:   29179358
L1D RQ FORWARD:          0
L1D WQ ACCESS:   47641970
L1D WQ TO_CACHE:   45949809
L1D WQ MERGED:    1692161
L1D WQ FORWARD:      21162
L1I TOTAL     ACCESS:  161535647  HIT:  161271671  MISS:     263976
L1I LOAD      ACCESS:  161535647  HIT:  161271671  MISS:     263976
L1I RFO       ACCESS:          0  HIT:          0  MISS:          0
L1I PREFETCH  ACCESS:          0  HIT:          0  MISS:          0
L1I WRITEBACK ACCESS:          0  HIT:          0  MISS:          0
L1I PREFETCH  REQUESTED:          0  ISSUED:          0  USEFUL:          0  USELESS:          0
L1I TOTAL MSHR MERGED:     261144
L1I LOAD MSHR MERGED:     261144
L1I RFO MSHR MERGED:          0
L1I PREFETCH MSHR MERGED:          0
L1I WRITEBACK MSHR MERGED:          0
L1I TOTAL ACCESSES:  161796791 HITS:  161271671 MISSES:     525120
L1I LOAD ACCESSES:  161796791 HITS:  161271671 MISSES:     525120
L1I RFO ACCESSES:          0 HITS:          0 MISSES:          0
L1I PREFETCH ACCESSES:          0 HITS:          0 MISSES:          0
L1I WRITEBACK ACCESSES:          0 HITS:          0 MISSES:          0
L1I RQ ACCESS:  500000202
L1I RQ TO_CACHE:  161796791
L1I RQ MERGED:  338203411
L1I RQ FORWARD:          0
L1I WQ ACCESS:          0
L1I WQ TO_CACHE:          0
L1I WQ MERGED:          0
L1I WQ FORWARD:          0
L2C TOTAL     ACCESS:   11771782  HIT:   10382463  MISS:    1389319
L2C LOAD      ACCESS:    4402408  HIT:    3905743  MISS:     496665
L2C RFO       ACCESS:     897320  HIT:     536281  MISS:     361039
L2C PREFETCH  ACCESS:    5284499  HIT:    4755832  MISS:     528667
L2C WRITEBACK ACCESS:    1187555  HIT:    1184607  MISS:       2948
L2C PREFETCH  REQUESTED:     504639  ISSUED:     504639  USEFUL:     114920  USELESS:     413940
L2C TOTAL MSHR MERGED:       2026
L2C LOAD MSHR MERGED:        414
L2C RFO MSHR MERGED:          0
L2C PREFETCH MSHR MERGED:       1612
L2C WRITEBACK MSHR MERGED:          0
L2C TOTAL ACCESSES:   11776540 HITS:   10382682 MISSES:    1393858
L2C LOAD ACCESSES:    4402472 HITS:    3905807 MISSES:     496665
L2C RFO ACCESSES:     897384 HITS:     536345 MISSES:     361039
L2C PREFETCH ACCESSES:    5289129 HITS:    4755923 MISSES:     533206
L2C WRITEBACK ACCESSES:    1187555 HITS:    1184607 MISSES:       2948
L2C RQ ACCESS:    5299856
L2C RQ TO_CACHE:    5299728
L2C RQ MERGED:          0
L2C RQ FORWARD:          0
L2C WQ ACCESS:    1187555
L2C WQ TO_CACHE:    1187555
L2C WQ MERGED:          0
L2C WQ FORWARD:        219
LLC TOTAL     ACCESS:    1849528  HIT:    1162393  MISS:     687135
LLC LOAD      ACCESS:     496249  HIT:     233375  MISS:     262874
LLC RFO       ACCESS:     361033  HIT:     249061  MISS:     111972
LLC PREFETCH  ACCESS:     531509  HIT:     317784  MISS:     213725
LLC WRITEBACK ACCESS:     460737  HIT:     362173  MISS:      98564
LLC PREFETCH  REQUESTED:          0  ISSUED:          0  USEFUL:       2862  USELESS:     211009
LLC TOTAL MSHR MERGED:         59
LLC LOAD MSHR MERGED:         24
LLC RFO MSHR MERGED:          0
LLC PREFETCH MSHR MERGED:         35
LLC WRITEBACK MSHR MERGED:          0
LLC TOTAL ACCESSES:    1849614 HITS:    1162420 MISSES:     687194
LLC LOAD ACCESSES:     496251 HITS:     233377 MISSES:     262874
LLC RFO ACCESSES:     361039 HITS:     249067 MISSES:     111972
LLC PREFETCH ACCESSES:     531587 HITS:     317803 MISSES:     213784
LLC WRITEBACK ACCESSES:     460737 HITS:     362173 MISSES:      98564
LLC 0 RQ ACCESS:     857290
LLC 0 RQ TO_CACHE:     857282
LLC 0 RQ MERGED:          0
LLC 0 RQ FORWARD:          0
LLC WQ ACCESS:     460737
LLC WQ TO_CACHE:     460737
LLC WQ MERGED:          0
LLC WQ FORWARD:         27
Major fault: 0 Minor fault: 3073
CPU 0 L1D next line prefetcher final stats
CPU 0 L2C PC-based stride prefetcher final stats
All Misses: 839270
All Hits: 1336949
SD Algo Stats - Switches: 0 SRR-Repls: 301154 BRR-Repls: 0

DRAM Statistics
 CHANNEL 0
 RQ ROW_BUFFER_HIT:     405876  ROW_BUFFER_MISS:     182468
 DBUS_CONGESTED:     424930
 WQ ROW_BUFFER_HIT:      14671  ROW_BUFFER_MISS:     103255  FULL:          0

 AVG_CONGESTED_CYCLE: 13
LOADS RETIRED: 120673965
INSTR RETIRED: 500000000
