
*** ChampSim Multicore Out-of-Order Simulator ***

Warmup Instructions: 100000000
Simulation Instructions: 500000000
Number of CPUs: 1
LLC sets: 2048
LLC ways: 16
Clean RRIP Policies: 1213030212130302 Dirty RRIP Policies: 1203130212031302 PSEL Width: 10 Track Set: 4294967295 PSEL Mask: 1 Demote Mask: 1040100010401000DS Algo: 0Window size: 0
Off-chip DRAM Size: 4096 MB Channels: 1 Width: 64-bit Data Rate: 1600 MT/s

CPU 0 runs /mnt/beegfs/iconst01/spec2017/Gcc.trace.gz
NOT SORTED
TRACE STRING: /mnt/beegfs/iconst01/spec2017/Gcc.trace.gz
SORTED
TRACE STRING: /mnt/beegfs/iconst01/spec2017/Gcc.trace.gz
INITIAL
TRACE STRING: /mnt/beegfs/iconst01/spec2017/Gcc.trace.gz

champsim_seed used: 269

CPU 0 L1D next line prefetcher
CPU 0 L2C IP-based stride prefetcher
Initialize DRRIP state
Assign rand_sets[0]: 454  LLC: 2048
rand_sets[0]: 454
Assign rand_sets[1]: 1662  LLC: 2048
rand_sets[1]: 1662
Assign rand_sets[2]: 1921  LLC: 2048
rand_sets[2]: 1921
Assign rand_sets[3]: 1131  LLC: 2048
rand_sets[3]: 1131
Assign rand_sets[4]: 331  LLC: 2048
rand_sets[4]: 331
Assign rand_sets[5]: 1531  LLC: 2048
rand_sets[5]: 1531
Assign rand_sets[6]: 482  LLC: 2048
rand_sets[6]: 482
Assign rand_sets[7]: 1275  LLC: 2048
rand_sets[7]: 1275
Assign rand_sets[8]: 1876  LLC: 2048
rand_sets[8]: 1876
Assign rand_sets[9]: 2038  LLC: 2048
rand_sets[9]: 2038
Assign rand_sets[10]: 701  LLC: 2048
rand_sets[10]: 701
Assign rand_sets[11]: 479  LLC: 2048
rand_sets[11]: 479
Assign rand_sets[12]: 892  LLC: 2048
rand_sets[12]: 892
Assign rand_sets[13]: 1820  LLC: 2048
rand_sets[13]: 1820
Assign rand_sets[14]: 1505  LLC: 2048
rand_sets[14]: 1505
Assign rand_sets[15]: 1159  LLC: 2048
rand_sets[15]: 1159
Assign rand_sets[16]: 513  LLC: 2048
rand_sets[16]: 513
Assign rand_sets[17]: 703  LLC: 2048
rand_sets[17]: 703
Assign rand_sets[18]: 561  LLC: 2048
rand_sets[18]: 561
Assign rand_sets[19]: 990  LLC: 2048
rand_sets[19]: 990
Assign rand_sets[20]: 342  LLC: 2048
rand_sets[20]: 342
Assign rand_sets[21]: 882  LLC: 2048
rand_sets[21]: 882
Assign rand_sets[22]: 15  LLC: 2048
rand_sets[22]: 15
Assign rand_sets[23]: 71  LLC: 2048
rand_sets[23]: 71
Assign rand_sets[24]: 1127  LLC: 2048
rand_sets[24]: 1127
Assign rand_sets[25]: 1382  LLC: 2048
rand_sets[25]: 1382
Assign rand_sets[26]: 647  LLC: 2048
rand_sets[26]: 647
Assign rand_sets[27]: 857  LLC: 2048
rand_sets[27]: 857
Assign rand_sets[28]: 1450  LLC: 2048
rand_sets[28]: 1450
Assign rand_sets[29]: 1160  LLC: 2048
rand_sets[29]: 1160
Assign rand_sets[30]: 1852  LLC: 2048
rand_sets[30]: 1852
Assign rand_sets[31]: 1881  LLC: 2048
rand_sets[31]: 1881
Assign rand_sets[32]: 1770  LLC: 2048
rand_sets[32]: 1770
Assign rand_sets[33]: 1622  LLC: 2048
rand_sets[33]: 1622
Assign rand_sets[34]: 275  LLC: 2048
rand_sets[34]: 275
Assign rand_sets[35]: 635  LLC: 2048
rand_sets[35]: 635
Assign rand_sets[36]: 466  LLC: 2048
rand_sets[36]: 466
Assign rand_sets[37]: 1413  LLC: 2048
rand_sets[37]: 1413
Assign rand_sets[38]: 417  LLC: 2048
rand_sets[38]: 417
Assign rand_sets[39]: 472  LLC: 2048
rand_sets[39]: 472
Assign rand_sets[40]: 1340  LLC: 2048
rand_sets[40]: 1340
Assign rand_sets[41]: 852  LLC: 2048
rand_sets[41]: 852
Assign rand_sets[42]: 1365  LLC: 2048
rand_sets[42]: 1365
Assign rand_sets[43]: 47  LLC: 2048
rand_sets[43]: 47
Assign rand_sets[44]: 823  LLC: 2048
rand_sets[44]: 823
Assign rand_sets[45]: 686  LLC: 2048
rand_sets[45]: 686
Assign rand_sets[46]: 1637  LLC: 2048
rand_sets[46]: 1637
Assign rand_sets[47]: 1115  LLC: 2048
rand_sets[47]: 1115
Assign rand_sets[48]: 986  LLC: 2048
rand_sets[48]: 986
Assign rand_sets[49]: 258  LLC: 2048
rand_sets[49]: 258
Assign rand_sets[50]: 633  LLC: 2048
rand_sets[50]: 633
Assign rand_sets[51]: 920  LLC: 2048
rand_sets[51]: 920
Assign rand_sets[52]: 204  LLC: 2048
rand_sets[52]: 204
Assign rand_sets[53]: 227  LLC: 2048
rand_sets[53]: 227
Assign rand_sets[54]: 1818  LLC: 2048
rand_sets[54]: 1818
Assign rand_sets[55]: 886  LLC: 2048
rand_sets[55]: 886
Assign rand_sets[56]: 1422  LLC: 2048
rand_sets[56]: 1422
Assign rand_sets[57]: 607  LLC: 2048
rand_sets[57]: 607
Assign rand_sets[58]: 217  LLC: 2048
rand_sets[58]: 217
Assign rand_sets[59]: 1945  LLC: 2048
rand_sets[59]: 1945
Assign rand_sets[60]: 143  LLC: 2048
rand_sets[60]: 143
Assign rand_sets[61]: 1311  LLC: 2048
rand_sets[61]: 1311
Assign rand_sets[62]: 319  LLC: 2048
rand_sets[62]: 319
Assign rand_sets[63]: 1846  LLC: 2048
rand_sets[63]: 1846
 CLEAN-RRIP-POLICY-1: 1-2-1-3-0-3-0-2- CLEAN-RRIP-POLICY-2: 1-2-1-3-0-3-0-2-
 DIRTY-RRIP-POLICY-1: 1-2-0-3-1-3-0-2- DIRTY-RRIP-POLICY-2: 1-2-0-3-1-3-0-2-
 PSEL width: 10
Heartbeat CPU 0 instructions: 10000001 cycles: 7315979 heartbeat IPC: 1.36687 cumulative IPC: 1.36687 (Simulation time: 0 hr 0 min 14 sec) 
Heartbeat CPU 0 instructions: 20000000 cycles: 14307800 heartbeat IPC: 1.43024 cumulative IPC: 1.39784 (Simulation time: 0 hr 0 min 28 sec) 
Heartbeat CPU 0 instructions: 30000001 cycles: 21020774 heartbeat IPC: 1.48965 cumulative IPC: 1.42716 (Simulation time: 0 hr 0 min 43 sec) 
Heartbeat CPU 0 instructions: 40000000 cycles: 27481576 heartbeat IPC: 1.5478 cumulative IPC: 1.45552 (Simulation time: 0 hr 0 min 59 sec) 
Heartbeat CPU 0 instructions: 50000001 cycles: 33583414 heartbeat IPC: 1.63885 cumulative IPC: 1.48883 (Simulation time: 0 hr 1 min 13 sec) 
Heartbeat CPU 0 instructions: 60000000 cycles: 40064708 heartbeat IPC: 1.5429 cumulative IPC: 1.49758 (Simulation time: 0 hr 1 min 28 sec) 
Heartbeat CPU 0 instructions: 70000000 cycles: 47104297 heartbeat IPC: 1.42054 cumulative IPC: 1.48606 (Simulation time: 0 hr 1 min 42 sec) 
Heartbeat CPU 0 instructions: 80000000 cycles: 54194937 heartbeat IPC: 1.41031 cumulative IPC: 1.47615 (Simulation time: 0 hr 1 min 56 sec) 
Heartbeat CPU 0 instructions: 90000003 cycles: 61199878 heartbeat IPC: 1.42756 cumulative IPC: 1.47059 (Simulation time: 0 hr 2 min 10 sec) 
Heartbeat CPU 0 instructions: 100000000 cycles: 68367594 heartbeat IPC: 1.39514 cumulative IPC: 1.46268 (Simulation time: 0 hr 2 min 24 sec) 

Warmup complete CPU 0 instructions: 100000004 cycles: 68367595 (Simulation time: 0 hr 2 min 24 sec) 

Heartbeat CPU 0 instructions: 110000003 cycles: 96010662 heartbeat IPC: 0.361754 cumulative IPC: 0.361754 (Simulation time: 0 hr 2 min 51 sec) 
Heartbeat CPU 0 instructions: 120000000 cycles: 123466128 heartbeat IPC: 0.364226 cumulative IPC: 0.362986 (Simulation time: 0 hr 3 min 18 sec) 
Heartbeat CPU 0 instructions: 130000000 cycles: 148447455 heartbeat IPC: 0.400299 cumulative IPC: 0.374626 (Simulation time: 0 hr 3 min 44 sec) 
Heartbeat CPU 0 instructions: 140000000 cycles: 178072271 heartbeat IPC: 0.337555 cumulative IPC: 0.364615 (Simulation time: 0 hr 4 min 10 sec) 
Heartbeat CPU 0 instructions: 150000000 cycles: 207966298 heartbeat IPC: 0.334515 cumulative IPC: 0.358169 (Simulation time: 0 hr 4 min 37 sec) 
Heartbeat CPU 0 instructions: 160000000 cycles: 235399533 heartbeat IPC: 0.364521 cumulative IPC: 0.359213 (Simulation time: 0 hr 5 min 2 sec) 
Heartbeat CPU 0 instructions: 170000001 cycles: 263397203 heartbeat IPC: 0.357173 cumulative IPC: 0.35892 (Simulation time: 0 hr 5 min 30 sec) 
Heartbeat CPU 0 instructions: 180000000 cycles: 291859717 heartbeat IPC: 0.351339 cumulative IPC: 0.357954 (Simulation time: 0 hr 5 min 57 sec) 
Heartbeat CPU 0 instructions: 190000002 cycles: 319892867 heartbeat IPC: 0.356721 cumulative IPC: 0.357817 (Simulation time: 0 hr 6 min 24 sec) 
Heartbeat CPU 0 instructions: 200000000 cycles: 348265677 heartbeat IPC: 0.35245 cumulative IPC: 0.357273 (Simulation time: 0 hr 6 min 51 sec) 
Heartbeat CPU 0 instructions: 210000002 cycles: 376151813 heartbeat IPC: 0.358601 cumulative IPC: 0.357393 (Simulation time: 0 hr 7 min 18 sec) 
Heartbeat CPU 0 instructions: 220000000 cycles: 405409187 heartbeat IPC: 0.341794 cumulative IPC: 0.356039 (Simulation time: 0 hr 7 min 43 sec) 
Heartbeat CPU 0 instructions: 230000000 cycles: 432947967 heartbeat IPC: 0.363124 cumulative IPC: 0.356574 (Simulation time: 0 hr 8 min 9 sec) 
Heartbeat CPU 0 instructions: 240000000 cycles: 458866264 heartbeat IPC: 0.385828 cumulative IPC: 0.358516 (Simulation time: 0 hr 8 min 34 sec) 
Heartbeat CPU 0 instructions: 250000000 cycles: 488984613 heartbeat IPC: 0.332024 cumulative IPC: 0.356619 (Simulation time: 0 hr 9 min 2 sec) 
Heartbeat CPU 0 instructions: 260000000 cycles: 516064365 heartbeat IPC: 0.36928 cumulative IPC: 0.357385 (Simulation time: 0 hr 9 min 28 sec) 
Heartbeat CPU 0 instructions: 270000003 cycles: 544490613 heartbeat IPC: 0.351788 cumulative IPC: 0.357051 (Simulation time: 0 hr 9 min 56 sec) 
Heartbeat CPU 0 instructions: 280000000 cycles: 572699933 heartbeat IPC: 0.354493 cumulative IPC: 0.356908 (Simulation time: 0 hr 10 min 23 sec) 
Heartbeat CPU 0 instructions: 290000000 cycles: 601652883 heartbeat IPC: 0.345388 cumulative IPC: 0.356282 (Simulation time: 0 hr 10 min 51 sec) 
Heartbeat CPU 0 instructions: 300000000 cycles: 631772733 heartbeat IPC: 0.332007 cumulative IPC: 0.354984 (Simulation time: 0 hr 11 min 18 sec) 
Heartbeat CPU 0 instructions: 310000001 cycles: 661251907 heartbeat IPC: 0.339223 cumulative IPC: 0.354201 (Simulation time: 0 hr 11 min 44 sec) 
Heartbeat CPU 0 instructions: 320000000 cycles: 689535037 heartbeat IPC: 0.353568 cumulative IPC: 0.354172 (Simulation time: 0 hr 12 min 10 sec) 
Heartbeat CPU 0 instructions: 330000000 cycles: 718214898 heartbeat IPC: 0.348677 cumulative IPC: 0.353929 (Simulation time: 0 hr 12 min 37 sec) 
Heartbeat CPU 0 instructions: 340000000 cycles: 747513550 heartbeat IPC: 0.341313 cumulative IPC: 0.353385 (Simulation time: 0 hr 13 min 3 sec) 
Heartbeat CPU 0 instructions: 350000003 cycles: 774597688 heartbeat IPC: 0.36922 cumulative IPC: 0.353992 (Simulation time: 0 hr 13 min 29 sec) 
Heartbeat CPU 0 instructions: 360000000 cycles: 802801770 heartbeat IPC: 0.354558 cumulative IPC: 0.354014 (Simulation time: 0 hr 13 min 54 sec) 
Heartbeat CPU 0 instructions: 370000000 cycles: 830996283 heartbeat IPC: 0.354679 cumulative IPC: 0.354039 (Simulation time: 0 hr 14 min 19 sec) 
Heartbeat CPU 0 instructions: 380000000 cycles: 859507101 heartbeat IPC: 0.350744 cumulative IPC: 0.35392 (Simulation time: 0 hr 14 min 44 sec) 
Heartbeat CPU 0 instructions: 390000001 cycles: 887114543 heartbeat IPC: 0.362221 cumulative IPC: 0.3542 (Simulation time: 0 hr 15 min 9 sec) 
Heartbeat CPU 0 instructions: 400000000 cycles: 915753881 heartbeat IPC: 0.34917 cumulative IPC: 0.35403 (Simulation time: 0 hr 15 min 34 sec) 
Heartbeat CPU 0 instructions: 410000001 cycles: 943041369 heartbeat IPC: 0.366468 cumulative IPC: 0.354418 (Simulation time: 0 hr 15 min 59 sec) 
Heartbeat CPU 0 instructions: 420000000 cycles: 970344607 heartbeat IPC: 0.366257 cumulative IPC: 0.354776 (Simulation time: 0 hr 16 min 24 sec) 
Heartbeat CPU 0 instructions: 430000002 cycles: 998060408 heartbeat IPC: 0.360805 cumulative IPC: 0.354956 (Simulation time: 0 hr 16 min 49 sec) 
Heartbeat CPU 0 instructions: 440000000 cycles: 1027655538 heartbeat IPC: 0.337893 cumulative IPC: 0.35443 (Simulation time: 0 hr 17 min 15 sec) 
Heartbeat CPU 0 instructions: 450000002 cycles: 1056903319 heartbeat IPC: 0.341906 cumulative IPC: 0.354059 (Simulation time: 0 hr 17 min 40 sec) 
Heartbeat CPU 0 instructions: 460000000 cycles: 1084608011 heartbeat IPC: 0.36095 cumulative IPC: 0.354247 (Simulation time: 0 hr 18 min 6 sec) 
Heartbeat CPU 0 instructions: 470000000 cycles: 1112241268 heartbeat IPC: 0.361883 cumulative IPC: 0.354449 (Simulation time: 0 hr 18 min 31 sec) 
Heartbeat CPU 0 instructions: 480000000 cycles: 1140117673 heartbeat IPC: 0.358726 cumulative IPC: 0.35456 (Simulation time: 0 hr 18 min 56 sec) 
Heartbeat CPU 0 instructions: 490000000 cycles: 1167704389 heartbeat IPC: 0.362493 cumulative IPC: 0.354759 (Simulation time: 0 hr 19 min 21 sec) 
Heartbeat CPU 0 instructions: 500000000 cycles: 1196032217 heartbeat IPC: 0.35301 cumulative IPC: 0.354715 (Simulation time: 0 hr 19 min 46 sec) 
Heartbeat CPU 0 instructions: 510000000 cycles: 1230024758 heartbeat IPC: 0.294182 cumulative IPC: 0.352944 (Simulation time: 0 hr 20 min 15 sec) 
Heartbeat CPU 0 instructions: 520000000 cycles: 1258065774 heartbeat IPC: 0.35662 cumulative IPC: 0.353031 (Simulation time: 0 hr 20 min 41 sec) 
Heartbeat CPU 0 instructions: 530000001 cycles: 1287693241 heartbeat IPC: 0.337525 cumulative IPC: 0.352654 (Simulation time: 0 hr 21 min 7 sec) 
Heartbeat CPU 0 instructions: 540000000 cycles: 1315805850 heartbeat IPC: 0.355712 cumulative IPC: 0.352723 (Simulation time: 0 hr 21 min 33 sec) 
Heartbeat CPU 0 instructions: 550000001 cycles: 1344985095 heartbeat IPC: 0.342709 cumulative IPC: 0.352494 (Simulation time: 0 hr 22 min 1 sec) 
Heartbeat CPU 0 instructions: 560000000 cycles: 1370385112 heartbeat IPC: 0.3937 cumulative IPC: 0.353298 (Simulation time: 0 hr 22 min 26 sec) 
Heartbeat CPU 0 instructions: 570000000 cycles: 1399921488 heartbeat IPC: 0.338566 cumulative IPC: 0.352971 (Simulation time: 0 hr 22 min 53 sec) 
Heartbeat CPU 0 instructions: 580000000 cycles: 1427905701 heartbeat IPC: 0.357344 cumulative IPC: 0.353061 (Simulation time: 0 hr 23 min 19 sec) 
Heartbeat CPU 0 instructions: 590000001 cycles: 1452637004 heartbeat IPC: 0.404346 cumulative IPC: 0.353977 (Simulation time: 0 hr 23 min 44 sec) 
Heartbeat CPU 0 instructions: 600000000 cycles: 1478695383 heartbeat IPC: 0.383754 cumulative IPC: 0.354528 (Simulation time: 0 hr 24 min 9 sec) 
Finished CPU 0 instructions: 500000000 cycles: 1410327810 cumulative IPC: 0.354528 (Simulation time: 0 hr 24 min 9 sec) 

CPU 0 Branch Prediction Accuracy: 86.4311% MPKI: 26.2662
Number of Branches: 96788573 Number of Mispredictions: 13133102
Number of LOAD Instructions: 164682285
Number of LOAD Instructions (ROI): 164682285
Number of STORE Instructions: 78194750
Number of STORE Instructions (ROI): 78194750
Total Destination Memory Operands: 83268534
Total Destination Memory Operands (ROI): 83268534
Total Source Memory Operands: 164712438
Total Source Memory Operands (ROI): 164712438
Number of DEPENDED LOADS: 7055618
Number of DEPENDED LOADS (ROI): 7055618
Number of SQ_ADDED: 83268522
Number of SQ_ADDED (ROI): 83268522
Number of LQ_ADDED: 236738598
Number of LQ_ADDED (ROI): 236738598
Number of Instructions read from trace: 600000066

ChampSim completed all CPUs

Region of Interest Statistics

CPU 0 cumulative IPC: 0.354528 instructions: 500000000 cycles: 1410327810
ITLB TOTAL     ACCESS:  100521744  HIT:  100317298  MISS:     204446
ITLB LOAD      ACCESS:  100521744  HIT:  100317298  MISS:     204446
ITLB RFO       ACCESS:          0  HIT:          0  MISS:          0
ITLB PREFETCH  ACCESS:          0  HIT:          0  MISS:          0
ITLB WRITEBACK ACCESS:          0  HIT:          0  MISS:          0
ITLB PREFETCH  REQUESTED:          0  ISSUED:          0  USEFUL:          0  USELESS:          0
ITLB TOTAL MSHR MERGED:     172424
ITLB LOAD MSHR MERGED:     172424
ITLB RFO MSHR MERGED:          0
ITLB PREFETCH MSHR MERGED:          0
ITLB WRITEBACK MSHR MERGED:          0
ITLB TOTAL ACCESSES:  100694168 HITS:  100317298 MISSES:     376870
ITLB LOAD ACCESSES:  100694168 HITS:  100317298 MISSES:     376870
ITLB RFO ACCESSES:          0 HITS:          0 MISSES:          0
ITLB PREFETCH ACCESSES:          0 HITS:          0 MISSES:          0
ITLB WRITEBACK ACCESSES:          0 HITS:          0 MISSES:          0
ITLB RQ ACCESS:  500000057
ITLB RQ TO_CACHE:  100694168
ITLB RQ MERGED:  399305889
ITLB RQ FORWARD:          0
ITLB WQ ACCESS:          0
ITLB WQ TO_CACHE:          0
ITLB WQ MERGED:          0
ITLB WQ FORWARD:          0
DTLB TOTAL     ACCESS:  165340964  HIT:  164706615  MISS:     634349
DTLB LOAD      ACCESS:  106295562  HIT:  105725666  MISS:     569896
DTLB RFO       ACCESS:   59045402  HIT:   58980949  MISS:      64453
DTLB PREFETCH  ACCESS:          0  HIT:          0  MISS:          0
DTLB WRITEBACK ACCESS:          0  HIT:          0  MISS:          0
DTLB PREFETCH  REQUESTED:          0  ISSUED:          0  USEFUL:          0  USELESS:          0
DTLB TOTAL MSHR MERGED:      99952
DTLB LOAD MSHR MERGED:      59436
DTLB RFO MSHR MERGED:      40516
DTLB PREFETCH MSHR MERGED:          0
DTLB WRITEBACK MSHR MERGED:          0
DTLB TOTAL ACCESSES:  165440916 HITS:  164706615 MISSES:     734301
DTLB LOAD ACCESSES:  106354998 HITS:  105725666 MISSES:     629332
DTLB RFO ACCESSES:   59085918 HITS:   58980949 MISSES:     104969
DTLB PREFETCH ACCESSES:          0 HITS:          0 MISSES:          0
DTLB WRITEBACK ACCESSES:          0 HITS:          0 MISSES:          0
DTLB RQ ACCESS:  200315267
DTLB RQ TO_CACHE:  165440916
DTLB RQ MERGED:   34874351
DTLB RQ FORWARD:          0
DTLB WQ ACCESS:          0
DTLB WQ TO_CACHE:          0
DTLB WQ MERGED:          0
DTLB WQ FORWARD:          0
L1D TOTAL     ACCESS:  281860170  HIT:  273950790  MISS:    7909380
L1D LOAD      ACCESS:  110422789  HIT:  107145199  MISS:    3277590
L1D RFO       ACCESS:   67131315  HIT:   66241216  MISS:     890099
L1D PREFETCH  ACCESS:  104306066  HIT:  100564375  MISS:    3741691
L1D WRITEBACK ACCESS:          0  HIT:          0  MISS:          0
L1D PREFETCH  REQUESTED:  110821330  ISSUED:  109122039  USEFUL:    1662303  USELESS:    2079352
L1D TOTAL MSHR MERGED:    2852521
L1D LOAD MSHR MERGED:     495613
L1D RFO MSHR MERGED:    1854226
L1D PREFETCH MSHR MERGED:     502682
L1D WRITEBACK MSHR MERGED:          0
L1D TOTAL ACCESSES:  284740092 HITS:  273978191 MISSES:   10761901
L1D LOAD ACCESSES:  110822735 HITS:  107146604 MISSES:    3676131
L1D RFO ACCESSES:   68974244 HITS:   66241216 MISSES:    2733028
L1D PREFETCH ACCESSES:  104943113 HITS:  100590371 MISSES:    4352742
L1D WRITEBACK ACCESSES:          0 HITS:          0 MISSES:          0
L1D RQ ACCESS:  130762664
L1D RQ TO_CACHE:  110821333
L1D RQ MERGED:   19939926
L1D RQ FORWARD:          0
L1D WQ ACCESS:   69552603
L1D WQ TO_CACHE:   68974245
L1D WQ MERGED:     578358
L1D WQ FORWARD:      27401
L1I TOTAL     ACCESS:  126568800  HIT:  122330247  MISS:    4238553
L1I LOAD      ACCESS:  126568800  HIT:  122330247  MISS:    4238553
L1I RFO       ACCESS:          0  HIT:          0  MISS:          0
L1I PREFETCH  ACCESS:          0  HIT:          0  MISS:          0
L1I WRITEBACK ACCESS:          0  HIT:          0  MISS:          0
L1I PREFETCH  REQUESTED:          0  ISSUED:          0  USEFUL:          0  USELESS:          0
L1I TOTAL MSHR MERGED:    1834706
L1I LOAD MSHR MERGED:    1834706
L1I RFO MSHR MERGED:          0
L1I PREFETCH MSHR MERGED:          0
L1I WRITEBACK MSHR MERGED:          0
L1I TOTAL ACCESSES:  128403509 HITS:  122330247 MISSES:    6073262
L1I LOAD ACCESSES:  128403509 HITS:  122330247 MISSES:    6073262
L1I RFO ACCESSES:          0 HITS:          0 MISSES:          0
L1I PREFETCH ACCESSES:          0 HITS:          0 MISSES:          0
L1I WRITEBACK ACCESSES:          0 HITS:          0 MISSES:          0
L1I RQ ACCESS:  500000057
L1I RQ TO_CACHE:  128403509
L1I RQ MERGED:  371596548
L1I RQ FORWARD:          0
L1I WQ ACCESS:          0
L1I WQ TO_CACHE:          0
L1I WQ MERGED:          0
L1I WQ FORWARD:          0
L2C TOTAL     ACCESS:   14905584  HIT:   11159083  MISS:    3746501
L2C LOAD      ACCESS:    7418862  HIT:    5098942  MISS:    2319920
L2C RFO       ACCESS:     878705  HIT:     409900  MISS:     468805
L2C PREFETCH  ACCESS:    4568765  HIT:    3628242  MISS:     940523
L2C WRITEBACK ACCESS:    2039252  HIT:    2021999  MISS:      17253
L2C PREFETCH  REQUESTED:     842801  ISSUED:     842801  USEFUL:     203427  USELESS:     736802
L2C TOTAL MSHR MERGED:       6792
L2C LOAD MSHR MERGED:        735
L2C RFO MSHR MERGED:          0
L2C PREFETCH MSHR MERGED:       6057
L2C WRITEBACK MSHR MERGED:          0
L2C TOTAL ACCESSES:   14913251 HITS:   11159534 MISSES:    3753717
L2C LOAD ACCESSES:    7419071 HITS:    5099151 MISSES:    2319920
L2C RFO ACCESSES:     878802 HITS:     409997 MISSES:     468805
L2C PREFETCH ACCESSES:    4576126 HITS:    3628387 MISSES:     947739
L2C WRITEBACK ACCESSES:    2039252 HITS:    2021999 MISSES:      17253
L2C RQ ACCESS:    8297876
L2C RQ TO_CACHE:    8297570
L2C RQ MERGED:          0
L2C RQ FORWARD:          0
L2C WQ ACCESS:    2039252
L2C WQ TO_CACHE:    2039252
L2C WQ MERGED:          0
L2C WQ FORWARD:        451
LLC TOTAL     ACCESS:    4609833  HIT:    3993562  MISS:     616271
LLC LOAD      ACCESS:    2319169  HIT:    2058409  MISS:     260760
LLC RFO       ACCESS:     468795  HIT:     424173  MISS:      44622
LLC PREFETCH  ACCESS:     941577  HIT:     671945  MISS:     269632
LLC WRITEBACK ACCESS:     880292  HIT:     839035  MISS:      41257
LLC PREFETCH  REQUESTED:          0  ISSUED:          0  USEFUL:      14003  USELESS:     255778
LLC TOTAL MSHR MERGED:         87
LLC LOAD MSHR MERGED:         28
LLC RFO MSHR MERGED:          0
LLC PREFETCH MSHR MERGED:         59
LLC WRITEBACK MSHR MERGED:          0
LLC TOTAL ACCESSES:    4609957 HITS:    3993599 MISSES:     616358
LLC LOAD ACCESSES:    2319185 HITS:    2058425 MISSES:     260760
LLC RFO ACCESSES:     468805 HITS:     424183 MISSES:      44622
LLC PREFETCH ACCESSES:     941675 HITS:     671956 MISSES:     269719
LLC WRITEBACK ACCESSES:     880292 HITS:     839035 MISSES:      41257
LLC 0 RQ ACCESS:    2787990
LLC 0 RQ TO_CACHE:    2787964
LLC 0 RQ MERGED:          0
LLC 0 RQ FORWARD:          0
LLC WQ ACCESS:     880292
LLC WQ TO_CACHE:     880292
LLC WQ MERGED:          0
LLC WQ FORWARD:         37
Major fault: 0 Minor fault: 12862
CPU 0 L1D next line prefetcher final stats
CPU 0 L2C PC-based stride prefetcher final stats
All Misses: 740112
All Hits: 4686727
SD Algo Stats - Switches: 0 SRR-Repls: 309801 BRR-Repls: 0

DRAM Statistics
 CHANNEL 0
 RQ ROW_BUFFER_HIT:     121926  ROW_BUFFER_MISS:     452665
 DBUS_CONGESTED:     298746
 WQ ROW_BUFFER_HIT:       8421  ROW_BUFFER_MISS:     134128  FULL:          0

 AVG_CONGESTED_CYCLE: 13
LOADS RETIRED: 136549171
INSTR RETIRED: 500000000
