
*** ChampSim Multicore Out-of-Order Simulator ***

Warmup Instructions: 100000000
Simulation Instructions: 500000000
Number of CPUs: 1
LLC sets: 2048
LLC ways: 16
Clean RRIP Policies: 1213230112132301 Dirty RRIP Policies: 2213130122131301 PSEL Width: 10 Track Set: 4294967295 PSEL Mask: 1 Demote Mask: 1310100013101000DS Algo: 0Window size: 0
Off-chip DRAM Size: 4096 MB Channels: 1 Width: 64-bit Data Rate: 1600 MT/s

CPU 0 runs /mnt/beegfs/iconst01/spec2017/Blender.trace.gz
NOT SORTED
TRACE STRING: /mnt/beegfs/iconst01/spec2017/Blender.trace.gz
SORTED
TRACE STRING: /mnt/beegfs/iconst01/spec2017/Blender.trace.gz
INITIAL
TRACE STRING: /mnt/beegfs/iconst01/spec2017/Blender.trace.gz

champsim_seed used: 700

CPU 0 L1D next line prefetcher
CPU 0 L2C IP-based stride prefetcher
Initialize DRRIP state
Assign rand_sets[0]: 454  LLC: 2048
rand_sets[0]: 454
Assign rand_sets[1]: 1662  LLC: 2048
rand_sets[1]: 1662
Assign rand_sets[2]: 1921  LLC: 2048
rand_sets[2]: 1921
Assign rand_sets[3]: 1131  LLC: 2048
rand_sets[3]: 1131
Assign rand_sets[4]: 331  LLC: 2048
rand_sets[4]: 331
Assign rand_sets[5]: 1531  LLC: 2048
rand_sets[5]: 1531
Assign rand_sets[6]: 482  LLC: 2048
rand_sets[6]: 482
Assign rand_sets[7]: 1275  LLC: 2048
rand_sets[7]: 1275
Assign rand_sets[8]: 1876  LLC: 2048
rand_sets[8]: 1876
Assign rand_sets[9]: 2038  LLC: 2048
rand_sets[9]: 2038
Assign rand_sets[10]: 701  LLC: 2048
rand_sets[10]: 701
Assign rand_sets[11]: 479  LLC: 2048
rand_sets[11]: 479
Assign rand_sets[12]: 892  LLC: 2048
rand_sets[12]: 892
Assign rand_sets[13]: 1820  LLC: 2048
rand_sets[13]: 1820
Assign rand_sets[14]: 1505  LLC: 2048
rand_sets[14]: 1505
Assign rand_sets[15]: 1159  LLC: 2048
rand_sets[15]: 1159
Assign rand_sets[16]: 513  LLC: 2048
rand_sets[16]: 513
Assign rand_sets[17]: 703  LLC: 2048
rand_sets[17]: 703
Assign rand_sets[18]: 561  LLC: 2048
rand_sets[18]: 561
Assign rand_sets[19]: 990  LLC: 2048
rand_sets[19]: 990
Assign rand_sets[20]: 342  LLC: 2048
rand_sets[20]: 342
Assign rand_sets[21]: 882  LLC: 2048
rand_sets[21]: 882
Assign rand_sets[22]: 15  LLC: 2048
rand_sets[22]: 15
Assign rand_sets[23]: 71  LLC: 2048
rand_sets[23]: 71
Assign rand_sets[24]: 1127  LLC: 2048
rand_sets[24]: 1127
Assign rand_sets[25]: 1382  LLC: 2048
rand_sets[25]: 1382
Assign rand_sets[26]: 647  LLC: 2048
rand_sets[26]: 647
Assign rand_sets[27]: 857  LLC: 2048
rand_sets[27]: 857
Assign rand_sets[28]: 1450  LLC: 2048
rand_sets[28]: 1450
Assign rand_sets[29]: 1160  LLC: 2048
rand_sets[29]: 1160
Assign rand_sets[30]: 1852  LLC: 2048
rand_sets[30]: 1852
Assign rand_sets[31]: 1881  LLC: 2048
rand_sets[31]: 1881
Assign rand_sets[32]: 1770  LLC: 2048
rand_sets[32]: 1770
Assign rand_sets[33]: 1622  LLC: 2048
rand_sets[33]: 1622
Assign rand_sets[34]: 275  LLC: 2048
rand_sets[34]: 275
Assign rand_sets[35]: 635  LLC: 2048
rand_sets[35]: 635
Assign rand_sets[36]: 466  LLC: 2048
rand_sets[36]: 466
Assign rand_sets[37]: 1413  LLC: 2048
rand_sets[37]: 1413
Assign rand_sets[38]: 417  LLC: 2048
rand_sets[38]: 417
Assign rand_sets[39]: 472  LLC: 2048
rand_sets[39]: 472
Assign rand_sets[40]: 1340  LLC: 2048
rand_sets[40]: 1340
Assign rand_sets[41]: 852  LLC: 2048
rand_sets[41]: 852
Assign rand_sets[42]: 1365  LLC: 2048
rand_sets[42]: 1365
Assign rand_sets[43]: 47  LLC: 2048
rand_sets[43]: 47
Assign rand_sets[44]: 823  LLC: 2048
rand_sets[44]: 823
Assign rand_sets[45]: 686  LLC: 2048
rand_sets[45]: 686
Assign rand_sets[46]: 1637  LLC: 2048
rand_sets[46]: 1637
Assign rand_sets[47]: 1115  LLC: 2048
rand_sets[47]: 1115
Assign rand_sets[48]: 986  LLC: 2048
rand_sets[48]: 986
Assign rand_sets[49]: 258  LLC: 2048
rand_sets[49]: 258
Assign rand_sets[50]: 633  LLC: 2048
rand_sets[50]: 633
Assign rand_sets[51]: 920  LLC: 2048
rand_sets[51]: 920
Assign rand_sets[52]: 204  LLC: 2048
rand_sets[52]: 204
Assign rand_sets[53]: 227  LLC: 2048
rand_sets[53]: 227
Assign rand_sets[54]: 1818  LLC: 2048
rand_sets[54]: 1818
Assign rand_sets[55]: 886  LLC: 2048
rand_sets[55]: 886
Assign rand_sets[56]: 1422  LLC: 2048
rand_sets[56]: 1422
Assign rand_sets[57]: 607  LLC: 2048
rand_sets[57]: 607
Assign rand_sets[58]: 217  LLC: 2048
rand_sets[58]: 217
Assign rand_sets[59]: 1945  LLC: 2048
rand_sets[59]: 1945
Assign rand_sets[60]: 143  LLC: 2048
rand_sets[60]: 143
Assign rand_sets[61]: 1311  LLC: 2048
rand_sets[61]: 1311
Assign rand_sets[62]: 319  LLC: 2048
rand_sets[62]: 319
Assign rand_sets[63]: 1846  LLC: 2048
rand_sets[63]: 1846
 CLEAN-RRIP-POLICY-1: 1-2-1-3-2-3-0-1- CLEAN-RRIP-POLICY-2: 1-2-1-3-2-3-0-1-
 DIRTY-RRIP-POLICY-1: 2-2-1-3-1-3-0-1- DIRTY-RRIP-POLICY-2: 2-2-1-3-1-3-0-1-
 PSEL width: 10
Heartbeat CPU 0 instructions: 10000002 cycles: 5480930 heartbeat IPC: 1.82451 cumulative IPC: 1.82451 (Simulation time: 0 hr 0 min 13 sec) 
Heartbeat CPU 0 instructions: 20000000 cycles: 10913521 heartbeat IPC: 1.84074 cumulative IPC: 1.83259 (Simulation time: 0 hr 0 min 26 sec) 
Heartbeat CPU 0 instructions: 30000000 cycles: 16447389 heartbeat IPC: 1.80705 cumulative IPC: 1.824 (Simulation time: 0 hr 0 min 39 sec) 
Heartbeat CPU 0 instructions: 40000000 cycles: 21898152 heartbeat IPC: 1.83461 cumulative IPC: 1.82664 (Simulation time: 0 hr 0 min 52 sec) 
Heartbeat CPU 0 instructions: 50000000 cycles: 27400065 heartbeat IPC: 1.81755 cumulative IPC: 1.82481 (Simulation time: 0 hr 1 min 5 sec) 
Heartbeat CPU 0 instructions: 60000000 cycles: 32778899 heartbeat IPC: 1.85914 cumulative IPC: 1.83045 (Simulation time: 0 hr 1 min 18 sec) 
Heartbeat CPU 0 instructions: 70000001 cycles: 38335190 heartbeat IPC: 1.79976 cumulative IPC: 1.826 (Simulation time: 0 hr 1 min 31 sec) 
Heartbeat CPU 0 instructions: 80000000 cycles: 43795391 heartbeat IPC: 1.83143 cumulative IPC: 1.82668 (Simulation time: 0 hr 1 min 44 sec) 
Heartbeat CPU 0 instructions: 90000000 cycles: 49242150 heartbeat IPC: 1.83595 cumulative IPC: 1.8277 (Simulation time: 0 hr 1 min 57 sec) 
Heartbeat CPU 0 instructions: 100000000 cycles: 54787282 heartbeat IPC: 1.80338 cumulative IPC: 1.82524 (Simulation time: 0 hr 2 min 10 sec) 

Warmup complete CPU 0 instructions: 100000002 cycles: 54787283 (Simulation time: 0 hr 2 min 10 sec) 

Heartbeat CPU 0 instructions: 110000001 cycles: 69189406 heartbeat IPC: 0.694342 cumulative IPC: 0.694342 (Simulation time: 0 hr 2 min 28 sec) 
Heartbeat CPU 0 instructions: 120000000 cycles: 84193188 heartbeat IPC: 0.666499 cumulative IPC: 0.680135 (Simulation time: 0 hr 2 min 48 sec) 
Heartbeat CPU 0 instructions: 130000000 cycles: 98694044 heartbeat IPC: 0.689614 cumulative IPC: 0.683266 (Simulation time: 0 hr 3 min 7 sec) 
Heartbeat CPU 0 instructions: 140000000 cycles: 113038705 heartbeat IPC: 0.697123 cumulative IPC: 0.686678 (Simulation time: 0 hr 3 min 25 sec) 
Heartbeat CPU 0 instructions: 150000000 cycles: 127748563 heartbeat IPC: 0.679816 cumulative IPC: 0.685295 (Simulation time: 0 hr 3 min 44 sec) 
Heartbeat CPU 0 instructions: 160000000 cycles: 142870044 heartbeat IPC: 0.661311 cumulative IPC: 0.681178 (Simulation time: 0 hr 4 min 3 sec) 
Heartbeat CPU 0 instructions: 170000001 cycles: 157734753 heartbeat IPC: 0.672734 cumulative IPC: 0.679958 (Simulation time: 0 hr 4 min 21 sec) 
Heartbeat CPU 0 instructions: 180000000 cycles: 172666826 heartbeat IPC: 0.669699 cumulative IPC: 0.678659 (Simulation time: 0 hr 4 min 40 sec) 
Heartbeat CPU 0 instructions: 190000002 cycles: 187142081 heartbeat IPC: 0.690834 cumulative IPC: 0.67999 (Simulation time: 0 hr 4 min 59 sec) 
Heartbeat CPU 0 instructions: 200000000 cycles: 201498882 heartbeat IPC: 0.696534 cumulative IPC: 0.681609 (Simulation time: 0 hr 5 min 18 sec) 
Heartbeat CPU 0 instructions: 210000003 cycles: 216121235 heartbeat IPC: 0.683885 cumulative IPC: 0.681816 (Simulation time: 0 hr 5 min 37 sec) 
Heartbeat CPU 0 instructions: 220000000 cycles: 230816357 heartbeat IPC: 0.680498 cumulative IPC: 0.681706 (Simulation time: 0 hr 5 min 56 sec) 
Heartbeat CPU 0 instructions: 230000001 cycles: 245929920 heartbeat IPC: 0.661657 cumulative IPC: 0.68012 (Simulation time: 0 hr 6 min 15 sec) 
Heartbeat CPU 0 instructions: 240000000 cycles: 260845969 heartbeat IPC: 0.670419 cumulative IPC: 0.679418 (Simulation time: 0 hr 6 min 34 sec) 
Heartbeat CPU 0 instructions: 250000003 cycles: 275677059 heartbeat IPC: 0.674259 cumulative IPC: 0.679072 (Simulation time: 0 hr 6 min 52 sec) 
Heartbeat CPU 0 instructions: 260000000 cycles: 291164890 heartbeat IPC: 0.645668 cumulative IPC: 0.676883 (Simulation time: 0 hr 7 min 11 sec) 
Heartbeat CPU 0 instructions: 270000003 cycles: 305748140 heartbeat IPC: 0.685718 cumulative IPC: 0.677396 (Simulation time: 0 hr 7 min 30 sec) 
Heartbeat CPU 0 instructions: 280000000 cycles: 320245444 heartbeat IPC: 0.689783 cumulative IPC: 0.678073 (Simulation time: 0 hr 7 min 49 sec) 
Heartbeat CPU 0 instructions: 290000002 cycles: 334693741 heartbeat IPC: 0.692123 cumulative IPC: 0.678798 (Simulation time: 0 hr 8 min 8 sec) 
Heartbeat CPU 0 instructions: 300000000 cycles: 350086660 heartbeat IPC: 0.649649 cumulative IPC: 0.677279 (Simulation time: 0 hr 8 min 27 sec) 
Heartbeat CPU 0 instructions: 310000000 cycles: 365060872 heartbeat IPC: 0.667815 cumulative IPC: 0.676822 (Simulation time: 0 hr 8 min 46 sec) 
Heartbeat CPU 0 instructions: 320000000 cycles: 379868197 heartbeat IPC: 0.675341 cumulative IPC: 0.676755 (Simulation time: 0 hr 9 min 4 sec) 
Heartbeat CPU 0 instructions: 330000000 cycles: 395628321 heartbeat IPC: 0.634513 cumulative IPC: 0.674801 (Simulation time: 0 hr 9 min 24 sec) 
Heartbeat CPU 0 instructions: 340000000 cycles: 410264413 heartbeat IPC: 0.683242 cumulative IPC: 0.675149 (Simulation time: 0 hr 9 min 42 sec) 
Heartbeat CPU 0 instructions: 350000000 cycles: 424896440 heartbeat IPC: 0.683432 cumulative IPC: 0.675476 (Simulation time: 0 hr 10 min 1 sec) 
Heartbeat CPU 0 instructions: 360000000 cycles: 439559545 heartbeat IPC: 0.681984 cumulative IPC: 0.675724 (Simulation time: 0 hr 10 min 19 sec) 
Heartbeat CPU 0 instructions: 370000002 cycles: 454984139 heartbeat IPC: 0.648315 cumulative IPC: 0.674668 (Simulation time: 0 hr 10 min 39 sec) 
Heartbeat CPU 0 instructions: 380000000 cycles: 469840271 heartbeat IPC: 0.673123 cumulative IPC: 0.674613 (Simulation time: 0 hr 10 min 57 sec) 
Heartbeat CPU 0 instructions: 390000003 cycles: 484800825 heartbeat IPC: 0.668425 cumulative IPC: 0.674397 (Simulation time: 0 hr 11 min 16 sec) 
Heartbeat CPU 0 instructions: 400000000 cycles: 500652900 heartbeat IPC: 0.630832 cumulative IPC: 0.672848 (Simulation time: 0 hr 11 min 35 sec) 
Heartbeat CPU 0 instructions: 410000001 cycles: 515681861 heartbeat IPC: 0.665382 cumulative IPC: 0.672605 (Simulation time: 0 hr 11 min 54 sec) 
Heartbeat CPU 0 instructions: 420000000 cycles: 530416312 heartbeat IPC: 0.678681 cumulative IPC: 0.672793 (Simulation time: 0 hr 12 min 12 sec) 
Heartbeat CPU 0 instructions: 430000000 cycles: 545828771 heartbeat IPC: 0.648826 cumulative IPC: 0.672041 (Simulation time: 0 hr 12 min 32 sec) 
Heartbeat CPU 0 instructions: 440000000 cycles: 560633150 heartbeat IPC: 0.675476 cumulative IPC: 0.672141 (Simulation time: 0 hr 12 min 50 sec) 
Heartbeat CPU 0 instructions: 450000000 cycles: 575614190 heartbeat IPC: 0.66751 cumulative IPC: 0.672008 (Simulation time: 0 hr 13 min 9 sec) 
Heartbeat CPU 0 instructions: 460000000 cycles: 591349889 heartbeat IPC: 0.635498 cumulative IPC: 0.670938 (Simulation time: 0 hr 13 min 28 sec) 
Heartbeat CPU 0 instructions: 470000000 cycles: 606425758 heartbeat IPC: 0.663312 cumulative IPC: 0.670729 (Simulation time: 0 hr 13 min 46 sec) 
Heartbeat CPU 0 instructions: 480000000 cycles: 621290350 heartbeat IPC: 0.67274 cumulative IPC: 0.670782 (Simulation time: 0 hr 14 min 5 sec) 
Heartbeat CPU 0 instructions: 490000002 cycles: 636557965 heartbeat IPC: 0.654981 cumulative IPC: 0.670367 (Simulation time: 0 hr 14 min 24 sec) 
Heartbeat CPU 0 instructions: 500000000 cycles: 651428441 heartbeat IPC: 0.672473 cumulative IPC: 0.67042 (Simulation time: 0 hr 14 min 42 sec) 
Heartbeat CPU 0 instructions: 510000001 cycles: 666533888 heartbeat IPC: 0.662013 cumulative IPC: 0.670212 (Simulation time: 0 hr 15 min 1 sec) 
Heartbeat CPU 0 instructions: 520000000 cycles: 681999207 heartbeat IPC: 0.646608 cumulative IPC: 0.66963 (Simulation time: 0 hr 15 min 20 sec) 
Heartbeat CPU 0 instructions: 530000001 cycles: 697416580 heartbeat IPC: 0.648619 cumulative IPC: 0.669126 (Simulation time: 0 hr 15 min 39 sec) 
Heartbeat CPU 0 instructions: 540000000 cycles: 712000697 heartbeat IPC: 0.685677 cumulative IPC: 0.669493 (Simulation time: 0 hr 15 min 57 sec) 
Heartbeat CPU 0 instructions: 550000001 cycles: 727257435 heartbeat IPC: 0.655448 cumulative IPC: 0.669175 (Simulation time: 0 hr 16 min 16 sec) 
Heartbeat CPU 0 instructions: 560000000 cycles: 742059650 heartbeat IPC: 0.675574 cumulative IPC: 0.669313 (Simulation time: 0 hr 16 min 35 sec) 
Heartbeat CPU 0 instructions: 570000002 cycles: 757206389 heartbeat IPC: 0.660208 cumulative IPC: 0.669116 (Simulation time: 0 hr 16 min 53 sec) 
Heartbeat CPU 0 instructions: 580000000 cycles: 772216709 heartbeat IPC: 0.666208 cumulative IPC: 0.669055 (Simulation time: 0 hr 17 min 12 sec) 
Heartbeat CPU 0 instructions: 590000001 cycles: 787216153 heartbeat IPC: 0.666691 cumulative IPC: 0.669007 (Simulation time: 0 hr 17 min 30 sec) 
Heartbeat CPU 0 instructions: 600000000 cycles: 801866018 heartbeat IPC: 0.6826 cumulative IPC: 0.669273 (Simulation time: 0 hr 17 min 49 sec) 
Finished CPU 0 instructions: 500000000 cycles: 747078743 cumulative IPC: 0.669273 (Simulation time: 0 hr 17 min 49 sec) 

CPU 0 Branch Prediction Accuracy: 93.7783% MPKI: 10.0718
Number of Branches: 80940586 Number of Mispredictions: 5035908
Number of LOAD Instructions: 184238101
Number of LOAD Instructions (ROI): 184238101
Number of STORE Instructions: 33143298
Number of STORE Instructions (ROI): 33143298
Total Destination Memory Operands: 33324321
Total Destination Memory Operands (ROI): 33324321
Total Source Memory Operands: 184238101
Total Source Memory Operands (ROI): 184238101
Number of DEPENDED LOADS: 4461347
Number of DEPENDED LOADS (ROI): 4461347
Number of SQ_ADDED: 33324292
Number of SQ_ADDED (ROI): 33324292
Number of LQ_ADDED: 184867383
Number of LQ_ADDED (ROI): 184867383
Number of Instructions read from trace: 600000256

ChampSim completed all CPUs

Region of Interest Statistics

CPU 0 cumulative IPC: 0.669273 instructions: 500000000 cycles: 747078743
ITLB TOTAL     ACCESS:   77746055  HIT:   77746055  MISS:          0
ITLB LOAD      ACCESS:   77746055  HIT:   77746055  MISS:          0
ITLB RFO       ACCESS:          0  HIT:          0  MISS:          0
ITLB PREFETCH  ACCESS:          0  HIT:          0  MISS:          0
ITLB WRITEBACK ACCESS:          0  HIT:          0  MISS:          0
ITLB PREFETCH  REQUESTED:          0  ISSUED:          0  USEFUL:          0  USELESS:          0
ITLB TOTAL MSHR MERGED:          0
ITLB LOAD MSHR MERGED:          0
ITLB RFO MSHR MERGED:          0
ITLB PREFETCH MSHR MERGED:          0
ITLB WRITEBACK MSHR MERGED:          0
ITLB TOTAL ACCESSES:   77746055 HITS:   77746055 MISSES:          0
ITLB LOAD ACCESSES:   77746055 HITS:   77746055 MISSES:          0
ITLB RFO ACCESSES:          0 HITS:          0 MISSES:          0
ITLB PREFETCH ACCESSES:          0 HITS:          0 MISSES:          0
ITLB WRITEBACK ACCESSES:          0 HITS:          0 MISSES:          0
ITLB RQ ACCESS:  500000245
ITLB RQ TO_CACHE:   77746055
ITLB RQ MERGED:  422254190
ITLB RQ FORWARD:          0
ITLB WQ ACCESS:          0
ITLB WQ TO_CACHE:          0
ITLB WQ MERGED:          0
ITLB WQ FORWARD:          0
DTLB TOTAL     ACCESS:   88436821  HIT:   87299971  MISS:    1136850
DTLB LOAD      ACCESS:   66310082  HIT:   65177472  MISS:    1132610
DTLB RFO       ACCESS:   22126739  HIT:   22122499  MISS:       4240
DTLB PREFETCH  ACCESS:          0  HIT:          0  MISS:          0
DTLB WRITEBACK ACCESS:          0  HIT:          0  MISS:          0
DTLB PREFETCH  REQUESTED:          0  ISSUED:          0  USEFUL:          0  USELESS:          0
DTLB TOTAL MSHR MERGED:     135526
DTLB LOAD MSHR MERGED:     133709
DTLB RFO MSHR MERGED:       1817
DTLB PREFETCH MSHR MERGED:          0
DTLB WRITEBACK MSHR MERGED:          0
DTLB TOTAL ACCESSES:   88572347 HITS:   87299971 MISSES:    1272376
DTLB LOAD ACCESSES:   66443791 HITS:   65177472 MISSES:    1266319
DTLB RFO ACCESSES:   22128556 HITS:   22122499 MISSES:       6057
DTLB PREFETCH ACCESSES:          0 HITS:          0 MISSES:          0
DTLB WRITEBACK ACCESSES:          0 HITS:          0 MISSES:          0
DTLB RQ ACCESS:  177579392
DTLB RQ TO_CACHE:   88572347
DTLB RQ MERGED:   89007045
DTLB RQ FORWARD:          0
DTLB WQ ACCESS:          0
DTLB WQ TO_CACHE:          0
DTLB WQ MERGED:          0
DTLB WQ FORWARD:          0
L1D TOTAL     ACCESS:  142081270  HIT:  136522221  MISS:    5559049
L1D LOAD      ACCESS:   61384044  HIT:   58275703  MISS:    3108341
L1D RFO       ACCESS:   27668755  HIT:   27586946  MISS:      81809
L1D PREFETCH  ACCESS:   53028471  HIT:   50659572  MISS:    2368899
L1D WRITEBACK ACCESS:          0  HIT:          0  MISS:          0
L1D PREFETCH  REQUESTED:   61670235  ISSUED:   60752066  USEFUL:     662018  USELESS:    1706886
L1D TOTAL MSHR MERGED:    1198315
L1D LOAD MSHR MERGED:     388894
L1D RFO MSHR MERGED:     164324
L1D PREFETCH MSHR MERGED:     645097
L1D WRITEBACK MSHR MERGED:          0
L1D TOTAL ACCESSES:  143377199 HITS:  136619835 MISSES:    6757364
L1D LOAD ACCESSES:   61670245 HITS:   58275713 MISSES:    3394532
L1D RFO ACCESSES:   27829287 HITS:   27586946 MISSES:     242341
L1D PREFETCH ACCESSES:   53877667 HITS:   50757176 MISSES:    3120491
L1D WRITEBACK ACCESSES:          0 HITS:          0 MISSES:          0
L1D RQ ACCESS:  149746426
L1D RQ TO_CACHE:   61670235
L1D RQ MERGED:   88076181
L1D RQ FORWARD:          0
L1D WQ ACCESS:   27832966
L1D WQ TO_CACHE:   27829287
L1D WQ MERGED:       3679
L1D WQ FORWARD:      97614
L1I TOTAL     ACCESS:   96223381  HIT:   96064113  MISS:     159268
L1I LOAD      ACCESS:   96223381  HIT:   96064113  MISS:     159268
L1I RFO       ACCESS:          0  HIT:          0  MISS:          0
L1I PREFETCH  ACCESS:          0  HIT:          0  MISS:          0
L1I WRITEBACK ACCESS:          0  HIT:          0  MISS:          0
L1I PREFETCH  REQUESTED:          0  ISSUED:          0  USEFUL:          0  USELESS:          0
L1I TOTAL MSHR MERGED:     130256
L1I LOAD MSHR MERGED:     130256
L1I RFO MSHR MERGED:          0
L1I PREFETCH MSHR MERGED:          0
L1I WRITEBACK MSHR MERGED:          0
L1I TOTAL ACCESSES:   96353637 HITS:   96064113 MISSES:     289524
L1I LOAD ACCESSES:   96353637 HITS:   96064113 MISSES:     289524
L1I RFO ACCESSES:          0 HITS:          0 MISSES:          0
L1I PREFETCH ACCESSES:          0 HITS:          0 MISSES:          0
L1I WRITEBACK ACCESSES:          0 HITS:          0 MISSES:          0
L1I RQ ACCESS:  500000245
L1I RQ TO_CACHE:   96353637
L1I RQ MERGED:  403646608
L1I RQ FORWARD:          0
L1I WQ ACCESS:          0
L1I WQ TO_CACHE:          0
L1I WQ MERGED:          0
L1I WQ FORWARD:          0
L2C TOTAL     ACCESS:    5910974  HIT:    3062303  MISS:    2848671
L2C LOAD      ACCESS:    3164896  HIT:    1583015  MISS:    1581881
L2C RFO       ACCESS:      77941  HIT:      45087  MISS:      32854
L2C PREFETCH  ACCESS:    2524607  HIT:    1296254  MISS:    1228353
L2C WRITEBACK ACCESS:     143530  HIT:     137947  MISS:       5583
L2C PREFETCH  REQUESTED:      52724  ISSUED:      52724  USEFUL:      18672  USELESS:    1209721
L2C TOTAL MSHR MERGED:       2577
L2C LOAD MSHR MERGED:        936
L2C RFO MSHR MERGED:          0
L2C PREFETCH MSHR MERGED:       1641
L2C WRITEBACK MSHR MERGED:          0
L2C TOTAL ACCESSES:    5913645 HITS:    3062389 MISSES:    2851256
L2C LOAD ACCESSES:    3164906 HITS:    1583025 MISSES:    1581881
L2C RFO ACCESSES:      78017 HITS:      45163 MISSES:      32854
L2C PREFETCH ACCESSES:    2527192 HITS:    1296254 MISSES:    1230938
L2C WRITEBACK ACCESSES:     143530 HITS:     137947 MISSES:       5583
L2C RQ ACCESS:    3242923
L2C RQ TO_CACHE:    3242837
L2C RQ MERGED:          0
L2C RQ FORWARD:          0
L2C WQ ACCESS:     143530
L2C WQ TO_CACHE:     143530
L2C WQ MERGED:          0
L2C WQ FORWARD:         86
LLC TOTAL     ACCESS:    2892631  HIT:    1808017  MISS:    1084614
LLC LOAD      ACCESS:    1580945  HIT:    1132736  MISS:     448209
LLC RFO       ACCESS:      32844  HIT:      32398  MISS:        446
LLC PREFETCH  ACCESS:    1229297  HIT:     593999  MISS:     635298
LLC WRITEBACK ACCESS:      49545  HIT:      48884  MISS:        661
LLC PREFETCH  REQUESTED:          0  ISSUED:          0  USEFUL:       3096  USELESS:     632218
LLC TOTAL MSHR MERGED:          0
LLC LOAD MSHR MERGED:          0
LLC RFO MSHR MERGED:          0
LLC PREFETCH MSHR MERGED:          0
LLC WRITEBACK MSHR MERGED:          0
LLC TOTAL ACCESSES:    2892641 HITS:    1808027 MISSES:    1084614
LLC LOAD ACCESSES:    1580945 HITS:    1132736 MISSES:     448209
LLC RFO ACCESSES:      32854 HITS:      32408 MISSES:        446
LLC PREFETCH ACCESSES:    1229297 HITS:     593999 MISSES:     635298
LLC WRITEBACK ACCESSES:      49545 HITS:      48884 MISSES:        661
LLC 0 RQ ACCESS:    1613799
LLC 0 RQ TO_CACHE:    1613789
LLC 0 RQ MERGED:          0
LLC 0 RQ FORWARD:          0
LLC WQ ACCESS:      49545
LLC WQ TO_CACHE:      49545
LLC WQ MERGED:          0
LLC WQ FORWARD:         10
Major fault: 0 Minor fault: 8460
CPU 0 L1D next line prefetcher final stats
CPU 0 L2C PC-based stride prefetcher final stats
All Misses: 1316814
All Hits: 2112413
SD Algo Stats - Switches: 0 SRR-Repls: 519442 BRR-Repls: 0

DRAM Statistics
 CHANNEL 0
 RQ ROW_BUFFER_HIT:     370175  ROW_BUFFER_MISS:     713451
 DBUS_CONGESTED:     332813
 WQ ROW_BUFFER_HIT:        108  ROW_BUFFER_MISS:        917  FULL:          0

 AVG_CONGESTED_CYCLE: 12
LOADS RETIRED: 153532848
INSTR RETIRED: 500000000
