
*** ChampSim Multicore Out-of-Order Simulator ***

Warmup Instructions: 100000000
Simulation Instructions: 500000000
Number of CPUs: 1
LLC sets: 2048
LLC ways: 16
Clean RRIP Policies: 1213230112132301 Dirty RRIP Policies: 2203131122031311 PSEL Width: 10 Track Set: 4294967295 PSEL Mask: 1 Demote Mask: 3010100030101000DS Algo: 0Window size: 0
Off-chip DRAM Size: 4096 MB Channels: 1 Width: 64-bit Data Rate: 1600 MT/s

CPU 0 runs /mnt/beegfs/iconst01/spec2017/Xz.trace.gz
NOT SORTED
TRACE STRING: /mnt/beegfs/iconst01/spec2017/Xz.trace.gz
SORTED
TRACE STRING: /mnt/beegfs/iconst01/spec2017/Xz.trace.gz
INITIAL
TRACE STRING: /mnt/beegfs/iconst01/spec2017/Xz.trace.gz

champsim_seed used: 210

CPU 0 L1D next line prefetcher
CPU 0 L2C IP-based stride prefetcher
Initialize DRRIP state
Assign rand_sets[0]: 454  LLC: 2048
rand_sets[0]: 454
Assign rand_sets[1]: 1662  LLC: 2048
rand_sets[1]: 1662
Assign rand_sets[2]: 1921  LLC: 2048
rand_sets[2]: 1921
Assign rand_sets[3]: 1131  LLC: 2048
rand_sets[3]: 1131
Assign rand_sets[4]: 331  LLC: 2048
rand_sets[4]: 331
Assign rand_sets[5]: 1531  LLC: 2048
rand_sets[5]: 1531
Assign rand_sets[6]: 482  LLC: 2048
rand_sets[6]: 482
Assign rand_sets[7]: 1275  LLC: 2048
rand_sets[7]: 1275
Assign rand_sets[8]: 1876  LLC: 2048
rand_sets[8]: 1876
Assign rand_sets[9]: 2038  LLC: 2048
rand_sets[9]: 2038
Assign rand_sets[10]: 701  LLC: 2048
rand_sets[10]: 701
Assign rand_sets[11]: 479  LLC: 2048
rand_sets[11]: 479
Assign rand_sets[12]: 892  LLC: 2048
rand_sets[12]: 892
Assign rand_sets[13]: 1820  LLC: 2048
rand_sets[13]: 1820
Assign rand_sets[14]: 1505  LLC: 2048
rand_sets[14]: 1505
Assign rand_sets[15]: 1159  LLC: 2048
rand_sets[15]: 1159
Assign rand_sets[16]: 513  LLC: 2048
rand_sets[16]: 513
Assign rand_sets[17]: 703  LLC: 2048
rand_sets[17]: 703
Assign rand_sets[18]: 561  LLC: 2048
rand_sets[18]: 561
Assign rand_sets[19]: 990  LLC: 2048
rand_sets[19]: 990
Assign rand_sets[20]: 342  LLC: 2048
rand_sets[20]: 342
Assign rand_sets[21]: 882  LLC: 2048
rand_sets[21]: 882
Assign rand_sets[22]: 15  LLC: 2048
rand_sets[22]: 15
Assign rand_sets[23]: 71  LLC: 2048
rand_sets[23]: 71
Assign rand_sets[24]: 1127  LLC: 2048
rand_sets[24]: 1127
Assign rand_sets[25]: 1382  LLC: 2048
rand_sets[25]: 1382
Assign rand_sets[26]: 647  LLC: 2048
rand_sets[26]: 647
Assign rand_sets[27]: 857  LLC: 2048
rand_sets[27]: 857
Assign rand_sets[28]: 1450  LLC: 2048
rand_sets[28]: 1450
Assign rand_sets[29]: 1160  LLC: 2048
rand_sets[29]: 1160
Assign rand_sets[30]: 1852  LLC: 2048
rand_sets[30]: 1852
Assign rand_sets[31]: 1881  LLC: 2048
rand_sets[31]: 1881
Assign rand_sets[32]: 1770  LLC: 2048
rand_sets[32]: 1770
Assign rand_sets[33]: 1622  LLC: 2048
rand_sets[33]: 1622
Assign rand_sets[34]: 275  LLC: 2048
rand_sets[34]: 275
Assign rand_sets[35]: 635  LLC: 2048
rand_sets[35]: 635
Assign rand_sets[36]: 466  LLC: 2048
rand_sets[36]: 466
Assign rand_sets[37]: 1413  LLC: 2048
rand_sets[37]: 1413
Assign rand_sets[38]: 417  LLC: 2048
rand_sets[38]: 417
Assign rand_sets[39]: 472  LLC: 2048
rand_sets[39]: 472
Assign rand_sets[40]: 1340  LLC: 2048
rand_sets[40]: 1340
Assign rand_sets[41]: 852  LLC: 2048
rand_sets[41]: 852
Assign rand_sets[42]: 1365  LLC: 2048
rand_sets[42]: 1365
Assign rand_sets[43]: 47  LLC: 2048
rand_sets[43]: 47
Assign rand_sets[44]: 823  LLC: 2048
rand_sets[44]: 823
Assign rand_sets[45]: 686  LLC: 2048
rand_sets[45]: 686
Assign rand_sets[46]: 1637  LLC: 2048
rand_sets[46]: 1637
Assign rand_sets[47]: 1115  LLC: 2048
rand_sets[47]: 1115
Assign rand_sets[48]: 986  LLC: 2048
rand_sets[48]: 986
Assign rand_sets[49]: 258  LLC: 2048
rand_sets[49]: 258
Assign rand_sets[50]: 633  LLC: 2048
rand_sets[50]: 633
Assign rand_sets[51]: 920  LLC: 2048
rand_sets[51]: 920
Assign rand_sets[52]: 204  LLC: 2048
rand_sets[52]: 204
Assign rand_sets[53]: 227  LLC: 2048
rand_sets[53]: 227
Assign rand_sets[54]: 1818  LLC: 2048
rand_sets[54]: 1818
Assign rand_sets[55]: 886  LLC: 2048
rand_sets[55]: 886
Assign rand_sets[56]: 1422  LLC: 2048
rand_sets[56]: 1422
Assign rand_sets[57]: 607  LLC: 2048
rand_sets[57]: 607
Assign rand_sets[58]: 217  LLC: 2048
rand_sets[58]: 217
Assign rand_sets[59]: 1945  LLC: 2048
rand_sets[59]: 1945
Assign rand_sets[60]: 143  LLC: 2048
rand_sets[60]: 143
Assign rand_sets[61]: 1311  LLC: 2048
rand_sets[61]: 1311
Assign rand_sets[62]: 319  LLC: 2048
rand_sets[62]: 319
Assign rand_sets[63]: 1846  LLC: 2048
rand_sets[63]: 1846
 CLEAN-RRIP-POLICY-1: 1-2-1-3-2-3-0-1- CLEAN-RRIP-POLICY-2: 1-2-1-3-2-3-0-1-
 DIRTY-RRIP-POLICY-1: 2-2-0-3-1-3-1-1- DIRTY-RRIP-POLICY-2: 2-2-0-3-1-3-1-1-
 PSEL width: 10
Heartbeat CPU 0 instructions: 10000000 cycles: 4305270 heartbeat IPC: 2.32273 cumulative IPC: 2.32273 (Simulation time: 0 hr 0 min 12 sec) 
Heartbeat CPU 0 instructions: 20000000 cycles: 8617102 heartbeat IPC: 2.3192 cumulative IPC: 2.32097 (Simulation time: 0 hr 0 min 24 sec) 
Heartbeat CPU 0 instructions: 30000003 cycles: 13160987 heartbeat IPC: 2.20076 cumulative IPC: 2.27946 (Simulation time: 0 hr 0 min 37 sec) 
Heartbeat CPU 0 instructions: 40000000 cycles: 17515469 heartbeat IPC: 2.29648 cumulative IPC: 2.2837 (Simulation time: 0 hr 0 min 49 sec) 
Heartbeat CPU 0 instructions: 50000001 cycles: 21878292 heartbeat IPC: 2.29209 cumulative IPC: 2.28537 (Simulation time: 0 hr 1 min 1 sec) 
Heartbeat CPU 0 instructions: 60000000 cycles: 26178512 heartbeat IPC: 2.32546 cumulative IPC: 2.29196 (Simulation time: 0 hr 1 min 12 sec) 
Heartbeat CPU 0 instructions: 70000001 cycles: 30244395 heartbeat IPC: 2.45949 cumulative IPC: 2.31448 (Simulation time: 0 hr 1 min 24 sec) 
Heartbeat CPU 0 instructions: 80000000 cycles: 34523179 heartbeat IPC: 2.33711 cumulative IPC: 2.31728 (Simulation time: 0 hr 1 min 35 sec) 
Heartbeat CPU 0 instructions: 90000001 cycles: 38739825 heartbeat IPC: 2.37155 cumulative IPC: 2.32319 (Simulation time: 0 hr 1 min 47 sec) 
Heartbeat CPU 0 instructions: 100000000 cycles: 42980224 heartbeat IPC: 2.35827 cumulative IPC: 2.32665 (Simulation time: 0 hr 1 min 58 sec) 

Warmup complete CPU 0 instructions: 100000001 cycles: 42980225 (Simulation time: 0 hr 1 min 58 sec) 

Heartbeat CPU 0 instructions: 110000000 cycles: 53125169 heartbeat IPC: 0.985713 cumulative IPC: 0.985713 (Simulation time: 0 hr 2 min 16 sec) 
Heartbeat CPU 0 instructions: 120000000 cycles: 63772516 heartbeat IPC: 0.939201 cumulative IPC: 0.961895 (Simulation time: 0 hr 2 min 34 sec) 
Heartbeat CPU 0 instructions: 130000001 cycles: 74386999 heartbeat IPC: 0.942109 cumulative IPC: 0.955208 (Simulation time: 0 hr 2 min 51 sec) 
Heartbeat CPU 0 instructions: 140000000 cycles: 84091500 heartbeat IPC: 1.03045 cumulative IPC: 0.972969 (Simulation time: 0 hr 3 min 8 sec) 
Heartbeat CPU 0 instructions: 150000001 cycles: 94422700 heartbeat IPC: 0.967942 cumulative IPC: 0.971959 (Simulation time: 0 hr 3 min 26 sec) 
Heartbeat CPU 0 instructions: 160000000 cycles: 104490588 heartbeat IPC: 0.993257 cumulative IPC: 0.975445 (Simulation time: 0 hr 3 min 44 sec) 
Heartbeat CPU 0 instructions: 170000000 cycles: 114176963 heartbeat IPC: 1.03238 cumulative IPC: 0.983191 (Simulation time: 0 hr 4 min 1 sec) 
Heartbeat CPU 0 instructions: 180000000 cycles: 124748822 heartbeat IPC: 0.945907 cumulative IPC: 0.978371 (Simulation time: 0 hr 4 min 19 sec) 
Heartbeat CPU 0 instructions: 190000001 cycles: 135025942 heartbeat IPC: 0.973035 cumulative IPC: 0.977775 (Simulation time: 0 hr 4 min 36 sec) 
Heartbeat CPU 0 instructions: 200000000 cycles: 145611580 heartbeat IPC: 0.944676 cumulative IPC: 0.974361 (Simulation time: 0 hr 4 min 54 sec) 
Heartbeat CPU 0 instructions: 210000002 cycles: 158092096 heartbeat IPC: 0.801249 cumulative IPC: 0.955592 (Simulation time: 0 hr 5 min 13 sec) 
Heartbeat CPU 0 instructions: 220000000 cycles: 170649335 heartbeat IPC: 0.796353 cumulative IPC: 0.93993 (Simulation time: 0 hr 5 min 32 sec) 
Heartbeat CPU 0 instructions: 230000000 cycles: 182853145 heartbeat IPC: 0.819416 cumulative IPC: 0.929415 (Simulation time: 0 hr 5 min 51 sec) 
Heartbeat CPU 0 instructions: 240000000 cycles: 195015651 heartbeat IPC: 0.822199 cumulative IPC: 0.920838 (Simulation time: 0 hr 6 min 10 sec) 
Heartbeat CPU 0 instructions: 250000000 cycles: 207015766 heartbeat IPC: 0.833325 cumulative IPC: 0.914436 (Simulation time: 0 hr 6 min 28 sec) 
Heartbeat CPU 0 instructions: 260000000 cycles: 218613188 heartbeat IPC: 0.862261 cumulative IPC: 0.910991 (Simulation time: 0 hr 6 min 47 sec) 
Heartbeat CPU 0 instructions: 270000003 cycles: 230536370 heartbeat IPC: 0.838703 cumulative IPC: 0.906395 (Simulation time: 0 hr 7 min 6 sec) 
Heartbeat CPU 0 instructions: 280000000 cycles: 242113893 heartbeat IPC: 0.863742 cumulative IPC: 0.903915 (Simulation time: 0 hr 7 min 24 sec) 
Heartbeat CPU 0 instructions: 290000002 cycles: 253676205 heartbeat IPC: 0.864879 cumulative IPC: 0.901773 (Simulation time: 0 hr 7 min 43 sec) 
Heartbeat CPU 0 instructions: 300000000 cycles: 266176884 heartbeat IPC: 0.799956 cumulative IPC: 0.896071 (Simulation time: 0 hr 8 min 2 sec) 
Heartbeat CPU 0 instructions: 310000000 cycles: 278400427 heartbeat IPC: 0.818093 cumulative IPC: 0.892022 (Simulation time: 0 hr 8 min 20 sec) 
Heartbeat CPU 0 instructions: 320000000 cycles: 291107378 heartbeat IPC: 0.786971 cumulative IPC: 0.886642 (Simulation time: 0 hr 8 min 39 sec) 
Heartbeat CPU 0 instructions: 330000003 cycles: 303110542 heartbeat IPC: 0.833114 cumulative IPC: 0.884172 (Simulation time: 0 hr 8 min 58 sec) 
Heartbeat CPU 0 instructions: 340000000 cycles: 315282553 heartbeat IPC: 0.821557 cumulative IPC: 0.881373 (Simulation time: 0 hr 9 min 17 sec) 
Heartbeat CPU 0 instructions: 350000001 cycles: 326303869 heartbeat IPC: 0.907333 cumulative IPC: 0.882383 (Simulation time: 0 hr 9 min 35 sec) 
Heartbeat CPU 0 instructions: 360000000 cycles: 338124819 heartbeat IPC: 0.845956 cumulative IPC: 0.880924 (Simulation time: 0 hr 9 min 54 sec) 
Heartbeat CPU 0 instructions: 370000001 cycles: 349563618 heartbeat IPC: 0.874218 cumulative IPC: 0.880674 (Simulation time: 0 hr 10 min 12 sec) 
Heartbeat CPU 0 instructions: 380000000 cycles: 360587222 heartbeat IPC: 0.907144 cumulative IPC: 0.881593 (Simulation time: 0 hr 10 min 30 sec) 
Heartbeat CPU 0 instructions: 390000003 cycles: 371234681 heartbeat IPC: 0.939192 cumulative IPC: 0.883461 (Simulation time: 0 hr 10 min 48 sec) 
Heartbeat CPU 0 instructions: 400000000 cycles: 381473630 heartbeat IPC: 0.976662 cumulative IPC: 0.88628 (Simulation time: 0 hr 11 min 6 sec) 
Heartbeat CPU 0 instructions: 410000000 cycles: 392020094 heartbeat IPC: 0.948185 cumulative IPC: 0.888151 (Simulation time: 0 hr 11 min 24 sec) 
Heartbeat CPU 0 instructions: 420000000 cycles: 401413927 heartbeat IPC: 1.06453 cumulative IPC: 0.892773 (Simulation time: 0 hr 11 min 42 sec) 
Heartbeat CPU 0 instructions: 430000002 cycles: 410505888 heartbeat IPC: 1.09987 cumulative IPC: 0.897896 (Simulation time: 0 hr 11 min 59 sec) 
Heartbeat CPU 0 instructions: 440000000 cycles: 420783886 heartbeat IPC: 0.972952 cumulative IPC: 0.899938 (Simulation time: 0 hr 12 min 17 sec) 
Heartbeat CPU 0 instructions: 450000002 cycles: 431891306 heartbeat IPC: 0.900299 cumulative IPC: 0.899949 (Simulation time: 0 hr 12 min 35 sec) 
Heartbeat CPU 0 instructions: 460000000 cycles: 443460367 heartbeat IPC: 0.864374 cumulative IPC: 0.898921 (Simulation time: 0 hr 12 min 53 sec) 
Heartbeat CPU 0 instructions: 470000003 cycles: 453673249 heartbeat IPC: 0.979156 cumulative IPC: 0.900916 (Simulation time: 0 hr 13 min 10 sec) 
Heartbeat CPU 0 instructions: 480000000 cycles: 464232384 heartbeat IPC: 0.947047 cumulative IPC: 0.902073 (Simulation time: 0 hr 13 min 28 sec) 
Heartbeat CPU 0 instructions: 490000000 cycles: 474202804 heartbeat IPC: 1.00297 cumulative IPC: 0.904405 (Simulation time: 0 hr 13 min 45 sec) 
Heartbeat CPU 0 instructions: 500000000 cycles: 486023517 heartbeat IPC: 0.845973 cumulative IPC: 0.902846 (Simulation time: 0 hr 14 min 4 sec) 
Heartbeat CPU 0 instructions: 510000002 cycles: 498457391 heartbeat IPC: 0.804255 cumulative IPC: 0.900155 (Simulation time: 0 hr 14 min 22 sec) 
Heartbeat CPU 0 instructions: 520000000 cycles: 510321271 heartbeat IPC: 0.842894 cumulative IPC: 0.898701 (Simulation time: 0 hr 14 min 41 sec) 
Heartbeat CPU 0 instructions: 530000001 cycles: 522183852 heartbeat IPC: 0.842987 cumulative IPC: 0.897322 (Simulation time: 0 hr 14 min 59 sec) 
Heartbeat CPU 0 instructions: 540000000 cycles: 533811703 heartbeat IPC: 0.860004 cumulative IPC: 0.896438 (Simulation time: 0 hr 15 min 17 sec) 
Heartbeat CPU 0 instructions: 550000001 cycles: 545222281 heartbeat IPC: 0.87638 cumulative IPC: 0.895982 (Simulation time: 0 hr 15 min 35 sec) 
Heartbeat CPU 0 instructions: 560000000 cycles: 556815226 heartbeat IPC: 0.862593 cumulative IPC: 0.895229 (Simulation time: 0 hr 15 min 53 sec) 
Heartbeat CPU 0 instructions: 570000000 cycles: 568248195 heartbeat IPC: 0.874663 cumulative IPC: 0.894781 (Simulation time: 0 hr 16 min 11 sec) 
Heartbeat CPU 0 instructions: 580000000 cycles: 579029182 heartbeat IPC: 0.927559 cumulative IPC: 0.895441 (Simulation time: 0 hr 16 min 29 sec) 
Heartbeat CPU 0 instructions: 590000003 cycles: 590470084 heartbeat IPC: 0.874057 cumulative IPC: 0.894994 (Simulation time: 0 hr 16 min 47 sec) 
Heartbeat CPU 0 instructions: 600000000 cycles: 601073966 heartbeat IPC: 0.943051 cumulative IPC: 0.895907 (Simulation time: 0 hr 17 min 4 sec) 
Finished CPU 0 instructions: 500000001 cycles: 558093749 cumulative IPC: 0.895907 (Simulation time: 0 hr 17 min 4 sec) 

CPU 0 Branch Prediction Accuracy: 93.0095% MPKI: 10.0046
Number of Branches: 71558147 Number of Mispredictions: 5002285
Number of LOAD Instructions: 145708893
Number of LOAD Instructions (ROI): 145708893
Number of STORE Instructions: 40463820
Number of STORE Instructions (ROI): 40463820
Total Destination Memory Operands: 45240498
Total Destination Memory Operands (ROI): 45240498
Total Source Memory Operands: 145708893
Total Source Memory Operands (ROI): 145708893
Number of DEPENDED LOADS: 10670724
Number of DEPENDED LOADS (ROI): 10670724
Number of SQ_ADDED: 45240498
Number of SQ_ADDED (ROI): 45240498
Number of LQ_ADDED: 193321093
Number of LQ_ADDED (ROI): 193321093
Number of Instructions read from trace: 600000002

ChampSim completed all CPUs

Region of Interest Statistics

CPU 0 cumulative IPC: 0.895907 instructions: 500000001 cycles: 558093749
ITLB TOTAL     ACCESS:   77992588  HIT:   77992587  MISS:          1
ITLB LOAD      ACCESS:   77992588  HIT:   77992587  MISS:          1
ITLB RFO       ACCESS:          0  HIT:          0  MISS:          0
ITLB PREFETCH  ACCESS:          0  HIT:          0  MISS:          0
ITLB WRITEBACK ACCESS:          0  HIT:          0  MISS:          0
ITLB PREFETCH  REQUESTED:          0  ISSUED:          0  USEFUL:          0  USELESS:          0
ITLB TOTAL MSHR MERGED:          0
ITLB LOAD MSHR MERGED:          0
ITLB RFO MSHR MERGED:          0
ITLB PREFETCH MSHR MERGED:          0
ITLB WRITEBACK MSHR MERGED:          0
ITLB TOTAL ACCESSES:   77992588 HITS:   77992587 MISSES:          1
ITLB LOAD ACCESSES:   77992588 HITS:   77992587 MISSES:          1
ITLB RFO ACCESSES:          0 HITS:          0 MISSES:          0
ITLB PREFETCH ACCESSES:          0 HITS:          0 MISSES:          0
ITLB WRITEBACK ACCESSES:          0 HITS:          0 MISSES:          0
ITLB RQ ACCESS:  499999995
ITLB RQ TO_CACHE:   77992588
ITLB RQ MERGED:  422007407
ITLB RQ FORWARD:          0
ITLB WQ ACCESS:          0
ITLB WQ TO_CACHE:          0
ITLB WQ MERGED:          0
ITLB WQ FORWARD:          0
DTLB TOTAL     ACCESS:   98672247  HIT:   97790911  MISS:     881336
DTLB LOAD      ACCESS:   70892583  HIT:   70031050  MISS:     861533
DTLB RFO       ACCESS:   27779664  HIT:   27759861  MISS:      19803
DTLB PREFETCH  ACCESS:          0  HIT:          0  MISS:          0
DTLB WRITEBACK ACCESS:          0  HIT:          0  MISS:          0
DTLB PREFETCH  REQUESTED:          0  ISSUED:          0  USEFUL:          0  USELESS:          0
DTLB TOTAL MSHR MERGED:      87358
DTLB LOAD MSHR MERGED:      65617
DTLB RFO MSHR MERGED:      21741
DTLB PREFETCH MSHR MERGED:          0
DTLB WRITEBACK MSHR MERGED:          0
DTLB TOTAL ACCESSES:   98759605 HITS:   97790911 MISSES:     968694
DTLB LOAD ACCESSES:   70958200 HITS:   70031050 MISSES:     927150
DTLB RFO ACCESSES:   27801405 HITS:   27759861 MISSES:      41544
DTLB PREFETCH ACCESSES:          0 HITS:          0 MISSES:          0
DTLB WRITEBACK ACCESSES:          0 HITS:          0 MISSES:          0
DTLB RQ ACCESS:  150274329
DTLB RQ TO_CACHE:   98759605
DTLB RQ MERGED:   51514724
DTLB RQ FORWARD:          0
DTLB WQ ACCESS:          0
DTLB WQ TO_CACHE:          0
DTLB WQ MERGED:          0
DTLB WQ FORWARD:          0
L1D TOTAL     ACCESS:  173331709  HIT:  169163077  MISS:    4168632
L1D LOAD      ACCESS:   75283049  HIT:   73401709  MISS:    1881340
L1D RFO       ACCESS:   36778315  HIT:   36571689  MISS:     206626
L1D PREFETCH  ACCESS:   61270345  HIT:   59189679  MISS:    2080666
L1D WRITEBACK ACCESS:          0  HIT:          0  MISS:          0
L1D PREFETCH  REQUESTED:   75386346  ISSUED:   74822156  USEFUL:     415112  USELESS:    1665543
L1D TOTAL MSHR MERGED:     373320
L1D LOAD MSHR MERGED:     112077
L1D RFO MSHR MERGED:     133072
L1D PREFETCH MSHR MERGED:     128171
L1D WRITEBACK MSHR MERGED:          0
L1D TOTAL ACCESSES:  173856722 HITS:  169314770 MISSES:    4541952
L1D LOAD ACCESSES:   75389328 HITS:   73404691 MISSES:    1984637
L1D RFO ACCESSES:   36909974 HITS:   36571689 MISSES:     338285
L1D PREFETCH ACCESSES:   61557420 HITS:   59338390 MISSES:    2219030
L1D WRITEBACK ACCESSES:          0 HITS:          0 MISSES:          0
L1D RQ ACCESS:  112611926
L1D RQ TO_CACHE:   75386346
L1D RQ MERGED:   37222598
L1D RQ FORWARD:          0
L1D WQ ACCESS:   37662403
L1D WQ TO_CACHE:   36909974
L1D WQ MERGED:     752429
L1D WQ FORWARD:     151693
L1I TOTAL     ACCESS:  100700476  HIT:  100700451  MISS:         25
L1I LOAD      ACCESS:  100700476  HIT:  100700451  MISS:         25
L1I RFO       ACCESS:          0  HIT:          0  MISS:          0
L1I PREFETCH  ACCESS:          0  HIT:          0  MISS:          0
L1I WRITEBACK ACCESS:          0  HIT:          0  MISS:          0
L1I PREFETCH  REQUESTED:          0  ISSUED:          0  USEFUL:          0  USELESS:          0
L1I TOTAL MSHR MERGED:         10
L1I LOAD MSHR MERGED:         10
L1I RFO MSHR MERGED:          0
L1I PREFETCH MSHR MERGED:          0
L1I WRITEBACK MSHR MERGED:          0
L1I TOTAL ACCESSES:  100700486 HITS:  100700451 MISSES:         35
L1I LOAD ACCESSES:  100700486 HITS:  100700451 MISSES:         35
L1I RFO ACCESSES:          0 HITS:          0 MISSES:          0
L1I PREFETCH ACCESSES:          0 HITS:          0 MISSES:          0
L1I WRITEBACK ACCESSES:          0 HITS:          0 MISSES:          0
L1I RQ ACCESS:  499999995
L1I RQ TO_CACHE:  100700486
L1I RQ MERGED:  399299509
L1I RQ FORWARD:          0
L1I WQ ACCESS:          0
L1I WQ TO_CACHE:          0
L1I WQ MERGED:          0
L1I WQ FORWARD:          0
L2C TOTAL     ACCESS:    5852582  HIT:    4009399  MISS:    1843183
L2C LOAD      ACCESS:    1872460  HIT:    1061497  MISS:     810963
L2C RFO       ACCESS:     205206  HIT:     100567  MISS:     104639
L2C PREFETCH  ACCESS:    2169277  HIT:    1246116  MISS:     923161
L2C WRITEBACK ACCESS:    1605639  HIT:    1601219  MISS:       4420
L2C PREFETCH  REQUESTED:      91710  ISSUED:      91710  USEFUL:      86450  USELESS:     836734
L2C TOTAL MSHR MERGED:       1028
L2C LOAD MSHR MERGED:        265
L2C RFO MSHR MERGED:          0
L2C PREFETCH MSHR MERGED:        763
L2C WRITEBACK MSHR MERGED:          0
L2C TOTAL ACCESSES:    5853948 HITS:    4009568 MISSES:    1844380
L2C LOAD ACCESSES:    1872585 HITS:    1061622 MISSES:     810963
L2C RFO ACCESSES:     205213 HITS:     100574 MISSES:     104639
L2C PREFETCH ACCESSES:    2170511 HITS:    1246153 MISSES:     924358
L2C WRITEBACK ACCESSES:    1605639 HITS:    1601219 MISSES:       4420
L2C RQ ACCESS:    2077798
L2C RQ TO_CACHE:    2077666
L2C RQ MERGED:          0
L2C RQ FORWARD:          0
L2C WQ ACCESS:    1605639
L2C WQ TO_CACHE:    1605639
L2C WQ MERGED:          0
L2C WQ FORWARD:        169
LLC TOTAL     ACCESS:    2673580  HIT:    2164627  MISS:     508953
LLC LOAD      ACCESS:     810689  HIT:     628443  MISS:     182246
LLC RFO       ACCESS:     104639  HIT:      59344  MISS:      45295
LLC PREFETCH  ACCESS:     923576  HIT:     673731  MISS:     249845
LLC WRITEBACK ACCESS:     834676  HIT:     803109  MISS:      31567
LLC PREFETCH  REQUESTED:          0  ISSUED:          0  USEFUL:       9547  USELESS:     240384
LLC TOTAL MSHR MERGED:          4
LLC LOAD MSHR MERGED:          1
LLC RFO MSHR MERGED:          0
LLC PREFETCH MSHR MERGED:          3
LLC WRITEBACK MSHR MERGED:          0
LLC TOTAL ACCESSES:    2673595 HITS:    2164638 MISSES:     508957
LLC LOAD ACCESSES:     810698 HITS:     628452 MISSES:     182246
LLC RFO ACCESSES:     104639 HITS:      59344 MISSES:      45295
LLC PREFETCH ACCESSES:     923582 HITS:     673733 MISSES:     249849
LLC WRITEBACK ACCESSES:     834676 HITS:     803109 MISSES:      31567
LLC 0 RQ ACCESS:     915337
LLC 0 RQ TO_CACHE:     915328
LLC 0 RQ MERGED:          0
LLC 0 RQ FORWARD:          0
LLC WQ ACCESS:     834676
LLC WQ TO_CACHE:     834676
LLC WQ MERGED:          0
LLC WQ FORWARD:         11
Major fault: 0 Minor fault: 11278
CPU 0 L1D next line prefetcher final stats
CPU 0 L2C PC-based stride prefetcher final stats
All Misses: 623573
All Hits: 2431025
SD Algo Stats - Switches: 0 SRR-Repls: 215877 BRR-Repls: 0

DRAM Statistics
 CHANNEL 0
 RQ ROW_BUFFER_HIT:      29534  ROW_BUFFER_MISS:     447364
 DBUS_CONGESTED:     369136
 WQ ROW_BUFFER_HIT:      15950  ROW_BUFFER_MISS:     218401  FULL:          0

 AVG_CONGESTED_CYCLE: 13
LOADS RETIRED: 121769268
INSTR RETIRED: 500000000
