
*** ChampSim Multicore Out-of-Order Simulator ***

Warmup Instructions: 100000000
Simulation Instructions: 500000000
Number of CPUs: 1
LLC sets: 2048
LLC ways: 16
Clean RRIP Policies: 2213230222132302 Dirty RRIP Policies: 1203130212031302 PSEL Width: 10 Track Set: 4294967295 PSEL Mask: 1 Demote Mask: 1040110010401100DS Algo: 0Window size: 0
Off-chip DRAM Size: 4096 MB Channels: 1 Width: 64-bit Data Rate: 1600 MT/s

CPU 0 runs /mnt/beegfs/iconst01/spec2017/Xz.trace.gz
NOT SORTED
TRACE STRING: /mnt/beegfs/iconst01/spec2017/Xz.trace.gz
SORTED
TRACE STRING: /mnt/beegfs/iconst01/spec2017/Xz.trace.gz
INITIAL
TRACE STRING: /mnt/beegfs/iconst01/spec2017/Xz.trace.gz

champsim_seed used: 210

CPU 0 L1D next line prefetcher
CPU 0 L2C IP-based stride prefetcher
Initialize DRRIP state
Assign rand_sets[0]: 454  LLC: 2048
rand_sets[0]: 454
Assign rand_sets[1]: 1662  LLC: 2048
rand_sets[1]: 1662
Assign rand_sets[2]: 1921  LLC: 2048
rand_sets[2]: 1921
Assign rand_sets[3]: 1131  LLC: 2048
rand_sets[3]: 1131
Assign rand_sets[4]: 331  LLC: 2048
rand_sets[4]: 331
Assign rand_sets[5]: 1531  LLC: 2048
rand_sets[5]: 1531
Assign rand_sets[6]: 482  LLC: 2048
rand_sets[6]: 482
Assign rand_sets[7]: 1275  LLC: 2048
rand_sets[7]: 1275
Assign rand_sets[8]: 1876  LLC: 2048
rand_sets[8]: 1876
Assign rand_sets[9]: 2038  LLC: 2048
rand_sets[9]: 2038
Assign rand_sets[10]: 701  LLC: 2048
rand_sets[10]: 701
Assign rand_sets[11]: 479  LLC: 2048
rand_sets[11]: 479
Assign rand_sets[12]: 892  LLC: 2048
rand_sets[12]: 892
Assign rand_sets[13]: 1820  LLC: 2048
rand_sets[13]: 1820
Assign rand_sets[14]: 1505  LLC: 2048
rand_sets[14]: 1505
Assign rand_sets[15]: 1159  LLC: 2048
rand_sets[15]: 1159
Assign rand_sets[16]: 513  LLC: 2048
rand_sets[16]: 513
Assign rand_sets[17]: 703  LLC: 2048
rand_sets[17]: 703
Assign rand_sets[18]: 561  LLC: 2048
rand_sets[18]: 561
Assign rand_sets[19]: 990  LLC: 2048
rand_sets[19]: 990
Assign rand_sets[20]: 342  LLC: 2048
rand_sets[20]: 342
Assign rand_sets[21]: 882  LLC: 2048
rand_sets[21]: 882
Assign rand_sets[22]: 15  LLC: 2048
rand_sets[22]: 15
Assign rand_sets[23]: 71  LLC: 2048
rand_sets[23]: 71
Assign rand_sets[24]: 1127  LLC: 2048
rand_sets[24]: 1127
Assign rand_sets[25]: 1382  LLC: 2048
rand_sets[25]: 1382
Assign rand_sets[26]: 647  LLC: 2048
rand_sets[26]: 647
Assign rand_sets[27]: 857  LLC: 2048
rand_sets[27]: 857
Assign rand_sets[28]: 1450  LLC: 2048
rand_sets[28]: 1450
Assign rand_sets[29]: 1160  LLC: 2048
rand_sets[29]: 1160
Assign rand_sets[30]: 1852  LLC: 2048
rand_sets[30]: 1852
Assign rand_sets[31]: 1881  LLC: 2048
rand_sets[31]: 1881
Assign rand_sets[32]: 1770  LLC: 2048
rand_sets[32]: 1770
Assign rand_sets[33]: 1622  LLC: 2048
rand_sets[33]: 1622
Assign rand_sets[34]: 275  LLC: 2048
rand_sets[34]: 275
Assign rand_sets[35]: 635  LLC: 2048
rand_sets[35]: 635
Assign rand_sets[36]: 466  LLC: 2048
rand_sets[36]: 466
Assign rand_sets[37]: 1413  LLC: 2048
rand_sets[37]: 1413
Assign rand_sets[38]: 417  LLC: 2048
rand_sets[38]: 417
Assign rand_sets[39]: 472  LLC: 2048
rand_sets[39]: 472
Assign rand_sets[40]: 1340  LLC: 2048
rand_sets[40]: 1340
Assign rand_sets[41]: 852  LLC: 2048
rand_sets[41]: 852
Assign rand_sets[42]: 1365  LLC: 2048
rand_sets[42]: 1365
Assign rand_sets[43]: 47  LLC: 2048
rand_sets[43]: 47
Assign rand_sets[44]: 823  LLC: 2048
rand_sets[44]: 823
Assign rand_sets[45]: 686  LLC: 2048
rand_sets[45]: 686
Assign rand_sets[46]: 1637  LLC: 2048
rand_sets[46]: 1637
Assign rand_sets[47]: 1115  LLC: 2048
rand_sets[47]: 1115
Assign rand_sets[48]: 986  LLC: 2048
rand_sets[48]: 986
Assign rand_sets[49]: 258  LLC: 2048
rand_sets[49]: 258
Assign rand_sets[50]: 633  LLC: 2048
rand_sets[50]: 633
Assign rand_sets[51]: 920  LLC: 2048
rand_sets[51]: 920
Assign rand_sets[52]: 204  LLC: 2048
rand_sets[52]: 204
Assign rand_sets[53]: 227  LLC: 2048
rand_sets[53]: 227
Assign rand_sets[54]: 1818  LLC: 2048
rand_sets[54]: 1818
Assign rand_sets[55]: 886  LLC: 2048
rand_sets[55]: 886
Assign rand_sets[56]: 1422  LLC: 2048
rand_sets[56]: 1422
Assign rand_sets[57]: 607  LLC: 2048
rand_sets[57]: 607
Assign rand_sets[58]: 217  LLC: 2048
rand_sets[58]: 217
Assign rand_sets[59]: 1945  LLC: 2048
rand_sets[59]: 1945
Assign rand_sets[60]: 143  LLC: 2048
rand_sets[60]: 143
Assign rand_sets[61]: 1311  LLC: 2048
rand_sets[61]: 1311
Assign rand_sets[62]: 319  LLC: 2048
rand_sets[62]: 319
Assign rand_sets[63]: 1846  LLC: 2048
rand_sets[63]: 1846
 CLEAN-RRIP-POLICY-1: 2-2-1-3-2-3-0-2- CLEAN-RRIP-POLICY-2: 2-2-1-3-2-3-0-2-
 DIRTY-RRIP-POLICY-1: 1-2-0-3-1-3-0-2- DIRTY-RRIP-POLICY-2: 1-2-0-3-1-3-0-2-
 PSEL width: 10
Heartbeat CPU 0 instructions: 10000000 cycles: 4305270 heartbeat IPC: 2.32273 cumulative IPC: 2.32273 (Simulation time: 0 hr 0 min 11 sec) 
Heartbeat CPU 0 instructions: 20000000 cycles: 8617101 heartbeat IPC: 2.3192 cumulative IPC: 2.32097 (Simulation time: 0 hr 0 min 23 sec) 
Heartbeat CPU 0 instructions: 30000003 cycles: 13160977 heartbeat IPC: 2.20076 cumulative IPC: 2.27947 (Simulation time: 0 hr 0 min 35 sec) 
Heartbeat CPU 0 instructions: 40000000 cycles: 17515453 heartbeat IPC: 2.29649 cumulative IPC: 2.2837 (Simulation time: 0 hr 0 min 47 sec) 
Heartbeat CPU 0 instructions: 50000001 cycles: 21878229 heartbeat IPC: 2.29212 cumulative IPC: 2.28538 (Simulation time: 0 hr 0 min 58 sec) 
Heartbeat CPU 0 instructions: 60000000 cycles: 26178390 heartbeat IPC: 2.32549 cumulative IPC: 2.29197 (Simulation time: 0 hr 1 min 10 sec) 
Heartbeat CPU 0 instructions: 70000001 cycles: 30244256 heartbeat IPC: 2.4595 cumulative IPC: 2.31449 (Simulation time: 0 hr 1 min 20 sec) 
Heartbeat CPU 0 instructions: 80000000 cycles: 34522999 heartbeat IPC: 2.33713 cumulative IPC: 2.3173 (Simulation time: 0 hr 1 min 32 sec) 
Heartbeat CPU 0 instructions: 90000001 cycles: 38739591 heartbeat IPC: 2.37158 cumulative IPC: 2.3232 (Simulation time: 0 hr 1 min 43 sec) 
Heartbeat CPU 0 instructions: 100000000 cycles: 42979940 heartbeat IPC: 2.3583 cumulative IPC: 2.32667 (Simulation time: 0 hr 1 min 54 sec) 

Warmup complete CPU 0 instructions: 100000001 cycles: 42979941 (Simulation time: 0 hr 1 min 54 sec) 

Heartbeat CPU 0 instructions: 110000000 cycles: 53095163 heartbeat IPC: 0.988609 cumulative IPC: 0.988609 (Simulation time: 0 hr 2 min 11 sec) 
Heartbeat CPU 0 instructions: 120000000 cycles: 63691114 heartbeat IPC: 0.943757 cumulative IPC: 0.965662 (Simulation time: 0 hr 2 min 28 sec) 
Heartbeat CPU 0 instructions: 130000001 cycles: 74261958 heartbeat IPC: 0.945998 cumulative IPC: 0.959017 (Simulation time: 0 hr 2 min 45 sec) 
Heartbeat CPU 0 instructions: 140000000 cycles: 83935583 heartbeat IPC: 1.03374 cumulative IPC: 0.976666 (Simulation time: 0 hr 3 min 1 sec) 
Heartbeat CPU 0 instructions: 150000001 cycles: 94226708 heartbeat IPC: 0.971711 cumulative IPC: 0.975671 (Simulation time: 0 hr 3 min 18 sec) 
Heartbeat CPU 0 instructions: 160000000 cycles: 104257365 heartbeat IPC: 0.996944 cumulative IPC: 0.979153 (Simulation time: 0 hr 3 min 35 sec) 
Heartbeat CPU 0 instructions: 170000000 cycles: 113902632 heartbeat IPC: 1.03678 cumulative IPC: 0.98699 (Simulation time: 0 hr 3 min 52 sec) 
Heartbeat CPU 0 instructions: 180000000 cycles: 124427462 heartbeat IPC: 0.950134 cumulative IPC: 0.982228 (Simulation time: 0 hr 4 min 9 sec) 
Heartbeat CPU 0 instructions: 190000001 cycles: 134660800 heartbeat IPC: 0.977198 cumulative IPC: 0.981666 (Simulation time: 0 hr 4 min 26 sec) 
Heartbeat CPU 0 instructions: 200000000 cycles: 145211165 heartbeat IPC: 0.947834 cumulative IPC: 0.978175 (Simulation time: 0 hr 4 min 43 sec) 
Heartbeat CPU 0 instructions: 210000002 cycles: 157643029 heartbeat IPC: 0.804385 cumulative IPC: 0.959332 (Simulation time: 0 hr 5 min 1 sec) 
Heartbeat CPU 0 instructions: 220000000 cycles: 170158138 heartbeat IPC: 0.799034 cumulative IPC: 0.943558 (Simulation time: 0 hr 5 min 20 sec) 
Heartbeat CPU 0 instructions: 230000000 cycles: 182293303 heartbeat IPC: 0.824051 cumulative IPC: 0.933148 (Simulation time: 0 hr 5 min 38 sec) 
Heartbeat CPU 0 instructions: 240000000 cycles: 194387673 heartbeat IPC: 0.826831 cumulative IPC: 0.924656 (Simulation time: 0 hr 5 min 56 sec) 
Heartbeat CPU 0 instructions: 250000000 cycles: 206321004 heartbeat IPC: 0.837989 cumulative IPC: 0.918324 (Simulation time: 0 hr 6 min 14 sec) 
Heartbeat CPU 0 instructions: 260000000 cycles: 217836537 heartbeat IPC: 0.868392 cumulative IPC: 0.915036 (Simulation time: 0 hr 6 min 32 sec) 
Heartbeat CPU 0 instructions: 270000003 cycles: 229668107 heartbeat IPC: 0.845197 cumulative IPC: 0.910609 (Simulation time: 0 hr 6 min 50 sec) 
Heartbeat CPU 0 instructions: 280000000 cycles: 241174224 heartbeat IPC: 0.869103 cumulative IPC: 0.9082 (Simulation time: 0 hr 7 min 8 sec) 
Heartbeat CPU 0 instructions: 290000002 cycles: 252648110 heartbeat IPC: 0.871544 cumulative IPC: 0.906194 (Simulation time: 0 hr 7 min 26 sec) 
Heartbeat CPU 0 instructions: 300000000 cycles: 265045849 heartbeat IPC: 0.806599 cumulative IPC: 0.900634 (Simulation time: 0 hr 7 min 44 sec) 
Heartbeat CPU 0 instructions: 310000000 cycles: 277153488 heartbeat IPC: 0.825925 cumulative IPC: 0.896771 (Simulation time: 0 hr 8 min 2 sec) 
Heartbeat CPU 0 instructions: 320000000 cycles: 289754689 heartbeat IPC: 0.793575 cumulative IPC: 0.891501 (Simulation time: 0 hr 8 min 21 sec) 
Heartbeat CPU 0 instructions: 330000003 cycles: 301648518 heartbeat IPC: 0.840772 cumulative IPC: 0.889169 (Simulation time: 0 hr 8 min 39 sec) 
Heartbeat CPU 0 instructions: 340000000 cycles: 313701517 heartbeat IPC: 0.829669 cumulative IPC: 0.88652 (Simulation time: 0 hr 8 min 57 sec) 
Heartbeat CPU 0 instructions: 350000001 cycles: 324664279 heartbeat IPC: 0.912179 cumulative IPC: 0.887518 (Simulation time: 0 hr 9 min 14 sec) 
Heartbeat CPU 0 instructions: 360000000 cycles: 336408873 heartbeat IPC: 0.851456 cumulative IPC: 0.886075 (Simulation time: 0 hr 9 min 32 sec) 
Heartbeat CPU 0 instructions: 370000001 cycles: 347807668 heartbeat IPC: 0.877286 cumulative IPC: 0.885746 (Simulation time: 0 hr 9 min 50 sec) 
Heartbeat CPU 0 instructions: 380000000 cycles: 358783265 heartbeat IPC: 0.911112 cumulative IPC: 0.886628 (Simulation time: 0 hr 10 min 8 sec) 
Heartbeat CPU 0 instructions: 390000003 cycles: 369381936 heartbeat IPC: 0.943515 cumulative IPC: 0.888475 (Simulation time: 0 hr 10 min 25 sec) 
Heartbeat CPU 0 instructions: 400000000 cycles: 379589202 heartbeat IPC: 0.979694 cumulative IPC: 0.891241 (Simulation time: 0 hr 10 min 43 sec) 
Heartbeat CPU 0 instructions: 410000000 cycles: 390094198 heartbeat IPC: 0.951928 cumulative IPC: 0.893078 (Simulation time: 0 hr 11 min 0 sec) 
Heartbeat CPU 0 instructions: 420000000 cycles: 399474277 heartbeat IPC: 1.06609 cumulative IPC: 0.89763 (Simulation time: 0 hr 11 min 17 sec) 
Heartbeat CPU 0 instructions: 430000002 cycles: 408562104 heartbeat IPC: 1.10037 cumulative IPC: 0.90267 (Simulation time: 0 hr 11 min 34 sec) 
Heartbeat CPU 0 instructions: 440000000 cycles: 418802771 heartbeat IPC: 0.976499 cumulative IPC: 0.904682 (Simulation time: 0 hr 11 min 51 sec) 
Heartbeat CPU 0 instructions: 450000002 cycles: 429854537 heartbeat IPC: 0.904833 cumulative IPC: 0.904686 (Simulation time: 0 hr 12 min 8 sec) 
Heartbeat CPU 0 instructions: 460000000 cycles: 441362109 heartbeat IPC: 0.868993 cumulative IPC: 0.903655 (Simulation time: 0 hr 12 min 25 sec) 
Heartbeat CPU 0 instructions: 470000003 cycles: 451541420 heartbeat IPC: 0.982385 cumulative IPC: 0.905616 (Simulation time: 0 hr 12 min 42 sec) 
Heartbeat CPU 0 instructions: 480000000 cycles: 462061753 heartbeat IPC: 0.95054 cumulative IPC: 0.906744 (Simulation time: 0 hr 12 min 59 sec) 
Heartbeat CPU 0 instructions: 490000000 cycles: 472008905 heartbeat IPC: 1.00531 cumulative IPC: 0.90903 (Simulation time: 0 hr 13 min 16 sec) 
Heartbeat CPU 0 instructions: 500000000 cycles: 483760165 heartbeat IPC: 0.850973 cumulative IPC: 0.907482 (Simulation time: 0 hr 13 min 33 sec) 
Heartbeat CPU 0 instructions: 510000002 cycles: 496152706 heartbeat IPC: 0.806937 cumulative IPC: 0.904732 (Simulation time: 0 hr 13 min 51 sec) 
Heartbeat CPU 0 instructions: 520000000 cycles: 507996226 heartbeat IPC: 0.844343 cumulative IPC: 0.903194 (Simulation time: 0 hr 14 min 9 sec) 
Heartbeat CPU 0 instructions: 530000001 cycles: 519813000 heartbeat IPC: 0.846255 cumulative IPC: 0.901783 (Simulation time: 0 hr 14 min 26 sec) 
Heartbeat CPU 0 instructions: 540000000 cycles: 531381980 heartbeat IPC: 0.86438 cumulative IPC: 0.900897 (Simulation time: 0 hr 14 min 44 sec) 
Heartbeat CPU 0 instructions: 550000001 cycles: 542734554 heartbeat IPC: 0.880858 cumulative IPC: 0.900442 (Simulation time: 0 hr 15 min 1 sec) 
Heartbeat CPU 0 instructions: 560000000 cycles: 554257802 heartbeat IPC: 0.867811 cumulative IPC: 0.899706 (Simulation time: 0 hr 15 min 18 sec) 
Heartbeat CPU 0 instructions: 570000000 cycles: 565634470 heartbeat IPC: 0.878992 cumulative IPC: 0.899256 (Simulation time: 0 hr 15 min 35 sec) 
Heartbeat CPU 0 instructions: 580000000 cycles: 576373401 heartbeat IPC: 0.931191 cumulative IPC: 0.899899 (Simulation time: 0 hr 15 min 52 sec) 
Heartbeat CPU 0 instructions: 590000003 cycles: 587728779 heartbeat IPC: 0.88064 cumulative IPC: 0.899497 (Simulation time: 0 hr 16 min 10 sec) 
Heartbeat CPU 0 instructions: 600000000 cycles: 598282828 heartbeat IPC: 0.947503 cumulative IPC: 0.90041 (Simulation time: 0 hr 16 min 26 sec) 
Finished CPU 0 instructions: 500000001 cycles: 555302895 cumulative IPC: 0.900409 (Simulation time: 0 hr 16 min 26 sec) 

CPU 0 Branch Prediction Accuracy: 93.0095% MPKI: 10.0046
Number of Branches: 71558147 Number of Mispredictions: 5002285
Number of LOAD Instructions: 145708893
Number of LOAD Instructions (ROI): 145708893
Number of STORE Instructions: 40463820
Number of STORE Instructions (ROI): 40463820
Total Destination Memory Operands: 45240498
Total Destination Memory Operands (ROI): 45240498
Total Source Memory Operands: 145708893
Total Source Memory Operands (ROI): 145708893
Number of DEPENDED LOADS: 10673569
Number of DEPENDED LOADS (ROI): 10673569
Number of SQ_ADDED: 45240498
Number of SQ_ADDED (ROI): 45240498
Number of LQ_ADDED: 193320747
Number of LQ_ADDED (ROI): 193320747
Number of Instructions read from trace: 600000002

ChampSim completed all CPUs

Region of Interest Statistics

CPU 0 cumulative IPC: 0.900409 instructions: 500000001 cycles: 555302895
ITLB TOTAL     ACCESS:   77992118  HIT:   77992117  MISS:          1
ITLB LOAD      ACCESS:   77992118  HIT:   77992117  MISS:          1
ITLB RFO       ACCESS:          0  HIT:          0  MISS:          0
ITLB PREFETCH  ACCESS:          0  HIT:          0  MISS:          0
ITLB WRITEBACK ACCESS:          0  HIT:          0  MISS:          0
ITLB PREFETCH  REQUESTED:          0  ISSUED:          0  USEFUL:          0  USELESS:          0
ITLB TOTAL MSHR MERGED:          0
ITLB LOAD MSHR MERGED:          0
ITLB RFO MSHR MERGED:          0
ITLB PREFETCH MSHR MERGED:          0
ITLB WRITEBACK MSHR MERGED:          0
ITLB TOTAL ACCESSES:   77992118 HITS:   77992117 MISSES:          1
ITLB LOAD ACCESSES:   77992118 HITS:   77992117 MISSES:          1
ITLB RFO ACCESSES:          0 HITS:          0 MISSES:          0
ITLB PREFETCH ACCESSES:          0 HITS:          0 MISSES:          0
ITLB WRITEBACK ACCESSES:          0 HITS:          0 MISSES:          0
ITLB RQ ACCESS:  499999995
ITLB RQ TO_CACHE:   77992118
ITLB RQ MERGED:  422007877
ITLB RQ FORWARD:          0
ITLB WQ ACCESS:          0
ITLB WQ TO_CACHE:          0
ITLB WQ MERGED:          0
ITLB WQ FORWARD:          0
DTLB TOTAL     ACCESS:   98669645  HIT:   97788309  MISS:     881336
DTLB LOAD      ACCESS:   70889598  HIT:   70028065  MISS:     861533
DTLB RFO       ACCESS:   27780047  HIT:   27760244  MISS:      19803
DTLB PREFETCH  ACCESS:          0  HIT:          0  MISS:          0
DTLB WRITEBACK ACCESS:          0  HIT:          0  MISS:          0
DTLB PREFETCH  REQUESTED:          0  ISSUED:          0  USEFUL:          0  USELESS:          0
DTLB TOTAL MSHR MERGED:      87430
DTLB LOAD MSHR MERGED:      65689
DTLB RFO MSHR MERGED:      21741
DTLB PREFETCH MSHR MERGED:          0
DTLB WRITEBACK MSHR MERGED:          0
DTLB TOTAL ACCESSES:   98757075 HITS:   97788309 MISSES:     968766
DTLB LOAD ACCESSES:   70955287 HITS:   70028065 MISSES:     927222
DTLB RFO ACCESSES:   27801788 HITS:   27760244 MISSES:      41544
DTLB PREFETCH ACCESSES:          0 HITS:          0 MISSES:          0
DTLB WRITEBACK ACCESSES:          0 HITS:          0 MISSES:          0
DTLB RQ ACCESS:  150271484
DTLB RQ TO_CACHE:   98757075
DTLB RQ MERGED:   51514409
DTLB RQ FORWARD:          0
DTLB WQ ACCESS:          0
DTLB WQ TO_CACHE:          0
DTLB WQ MERGED:          0
DTLB WQ FORWARD:          0
L1D TOTAL     ACCESS:  173326590  HIT:  169157967  MISS:    4168623
L1D LOAD      ACCESS:   75280136  HIT:   73398813  MISS:    1881323
L1D RFO       ACCESS:   36778482  HIT:   36571891  MISS:     206591
L1D PREFETCH  ACCESS:   61267972  HIT:   59187263  MISS:    2080709
L1D WRITEBACK ACCESS:          0  HIT:          0  MISS:          0
L1D PREFETCH  REQUESTED:   75383153  ISSUED:   74818972  USEFUL:     415158  USELESS:    1665540
L1D TOTAL MSHR MERGED:     372433
L1D LOAD MSHR MERGED:     111776
L1D RFO MSHR MERGED:     132945
L1D PREFETCH MSHR MERGED:     127712
L1D WRITEBACK MSHR MERGED:          0
L1D TOTAL ACCESSES:  173850780 HITS:  169309724 MISSES:    4541056
L1D LOAD ACCESSES:   75386257 HITS:   73401917 MISSES:    1984340
L1D RFO ACCESSES:   36910048 HITS:   36571891 MISSES:     338157
L1D PREFETCH ACCESSES:   61554475 HITS:   59335916 MISSES:    2218559
L1D WRITEBACK ACCESSES:          0 HITS:          0 MISSES:          0
L1D RQ ACCESS:  112609081
L1D RQ TO_CACHE:   75383153
L1D RQ MERGED:   37222824
L1D RQ FORWARD:          0
L1D WQ ACCESS:   37662403
L1D WQ TO_CACHE:   36910048
L1D WQ MERGED:     752355
L1D WQ FORWARD:     151757
L1I TOTAL     ACCESS:  100700113  HIT:  100700088  MISS:         25
L1I LOAD      ACCESS:  100700113  HIT:  100700088  MISS:         25
L1I RFO       ACCESS:          0  HIT:          0  MISS:          0
L1I PREFETCH  ACCESS:          0  HIT:          0  MISS:          0
L1I WRITEBACK ACCESS:          0  HIT:          0  MISS:          0
L1I PREFETCH  REQUESTED:          0  ISSUED:          0  USEFUL:          0  USELESS:          0
L1I TOTAL MSHR MERGED:         10
L1I LOAD MSHR MERGED:         10
L1I RFO MSHR MERGED:          0
L1I PREFETCH MSHR MERGED:          0
L1I WRITEBACK MSHR MERGED:          0
L1I TOTAL ACCESSES:  100700123 HITS:  100700088 MISSES:         35
L1I LOAD ACCESSES:  100700123 HITS:  100700088 MISSES:         35
L1I RFO ACCESSES:          0 HITS:          0 MISSES:          0
L1I PREFETCH ACCESSES:          0 HITS:          0 MISSES:          0
L1I WRITEBACK ACCESSES:          0 HITS:          0 MISSES:          0
L1I RQ ACCESS:  499999995
L1I RQ TO_CACHE:  100700123
L1I RQ MERGED:  399299872
L1I RQ FORWARD:          0
L1I WQ ACCESS:          0
L1I WQ TO_CACHE:          0
L1I WQ MERGED:          0
L1I WQ FORWARD:          0
L2C TOTAL     ACCESS:    5852579  HIT:    4009397  MISS:    1843182
L2C LOAD      ACCESS:    1872462  HIT:    1061508  MISS:     810954
L2C RFO       ACCESS:     205206  HIT:     100567  MISS:     104639
L2C PREFETCH  ACCESS:    2169278  HIT:    1246108  MISS:     923170
L2C WRITEBACK ACCESS:    1605633  HIT:    1601214  MISS:       4419
L2C PREFETCH  REQUESTED:      91709  ISSUED:      91709  USEFUL:      86454  USELESS:     836739
L2C TOTAL MSHR MERGED:        993
L2C LOAD MSHR MERGED:        247
L2C RFO MSHR MERGED:          0
L2C PREFETCH MSHR MERGED:        746
L2C WRITEBACK MSHR MERGED:          0
L2C TOTAL ACCESSES:    5853923 HITS:    4009567 MISSES:    1844356
L2C LOAD ACCESSES:    1872589 HITS:    1061635 MISSES:     810954
L2C RFO ACCESSES:     205212 HITS:     100573 MISSES:     104639
L2C PREFETCH ACCESSES:    2170489 HITS:    1246145 MISSES:     924344
L2C WRITEBACK ACCESSES:    1605633 HITS:    1601214 MISSES:       4419
L2C RQ ACCESS:    2077801
L2C RQ TO_CACHE:    2077668
L2C RQ MERGED:          0
L2C RQ FORWARD:          0
L2C WQ ACCESS:    1605633
L2C WQ TO_CACHE:    1605633
L2C WQ MERGED:          0
L2C WQ FORWARD:        170
LLC TOTAL     ACCESS:    2673582  HIT:    2210047  MISS:     463535
LLC LOAD      ACCESS:     810698  HIT:     646996  MISS:     163702
LLC RFO       ACCESS:     104639  HIT:      60551  MISS:      44088
LLC PREFETCH  ACCESS:     923571  HIT:     695897  MISS:     227674
LLC WRITEBACK ACCESS:     834674  HIT:     806603  MISS:      28071
LLC PREFETCH  REQUESTED:          0  ISSUED:          0  USEFUL:       7493  USELESS:     220228
LLC TOTAL MSHR MERGED:          5
LLC LOAD MSHR MERGED:          4
LLC RFO MSHR MERGED:          0
LLC PREFETCH MSHR MERGED:          1
LLC WRITEBACK MSHR MERGED:          0
LLC TOTAL ACCESSES:    2673599 HITS:    2210059 MISSES:     463540
LLC LOAD ACCESSES:     810707 HITS:     647005 MISSES:     163702
LLC RFO ACCESSES:     104639 HITS:      60551 MISSES:      44088
LLC PREFETCH ACCESSES:     923579 HITS:     695900 MISSES:     227679
LLC WRITEBACK ACCESSES:     834674 HITS:     806603 MISSES:      28071
LLC 0 RQ ACCESS:     915346
LLC 0 RQ TO_CACHE:     915337
LLC 0 RQ MERGED:          0
LLC 0 RQ FORWARD:          0
LLC WQ ACCESS:     834674
LLC WQ TO_CACHE:     834674
LLC WQ MERGED:          0
LLC WQ FORWARD:         12
Major fault: 0 Minor fault: 11278
CPU 0 L1D next line prefetcher final stats
CPU 0 L2C PC-based stride prefetcher final stats
All Misses: 573499
All Hits: 2481101
SD Algo Stats - Switches: 0 SRR-Repls: 196034 BRR-Repls: 0

DRAM Statistics
 CHANNEL 0
 RQ ROW_BUFFER_HIT:      28601  ROW_BUFFER_MISS:     406539
 DBUS_CONGESTED:     339314
 WQ ROW_BUFFER_HIT:      13839  ROW_BUFFER_MISS:     199074  FULL:          0

 AVG_CONGESTED_CYCLE: 13
LOADS RETIRED: 121769268
INSTR RETIRED: 500000000
