
*** ChampSim Multicore Out-of-Order Simulator ***

Warmup Instructions: 100000000
Simulation Instructions: 500000000
Number of CPUs: 1
LLC sets: 2048
LLC ways: 16
Clean RRIP Policies: 2203230222032302 Dirty RRIP Policies: 1203030212030302 PSEL Width: 10 Track Set: 4294967295 PSEL Mask: 1 Demote Mask: 3040100430401004DS Algo: 0Window size: 0
Off-chip DRAM Size: 4096 MB Channels: 1 Width: 64-bit Data Rate: 1600 MT/s

CPU 0 runs /mnt/beegfs/iconst01/spec2017/cactuBSSN.trace.gz
NOT SORTED
TRACE STRING: /mnt/beegfs/iconst01/spec2017/cactuBSSN.trace.gz
SORTED
TRACE STRING: /mnt/beegfs/iconst01/spec2017/cactuBSSN.trace.gz
INITIAL
TRACE STRING: /mnt/beegfs/iconst01/spec2017/cactuBSSN.trace.gz

champsim_seed used: 838

CPU 0 L1D next line prefetcher
CPU 0 L2C IP-based stride prefetcher
Initialize DRRIP state
Assign rand_sets[0]: 454  LLC: 2048
rand_sets[0]: 454
Assign rand_sets[1]: 1662  LLC: 2048
rand_sets[1]: 1662
Assign rand_sets[2]: 1921  LLC: 2048
rand_sets[2]: 1921
Assign rand_sets[3]: 1131  LLC: 2048
rand_sets[3]: 1131
Assign rand_sets[4]: 331  LLC: 2048
rand_sets[4]: 331
Assign rand_sets[5]: 1531  LLC: 2048
rand_sets[5]: 1531
Assign rand_sets[6]: 482  LLC: 2048
rand_sets[6]: 482
Assign rand_sets[7]: 1275  LLC: 2048
rand_sets[7]: 1275
Assign rand_sets[8]: 1876  LLC: 2048
rand_sets[8]: 1876
Assign rand_sets[9]: 2038  LLC: 2048
rand_sets[9]: 2038
Assign rand_sets[10]: 701  LLC: 2048
rand_sets[10]: 701
Assign rand_sets[11]: 479  LLC: 2048
rand_sets[11]: 479
Assign rand_sets[12]: 892  LLC: 2048
rand_sets[12]: 892
Assign rand_sets[13]: 1820  LLC: 2048
rand_sets[13]: 1820
Assign rand_sets[14]: 1505  LLC: 2048
rand_sets[14]: 1505
Assign rand_sets[15]: 1159  LLC: 2048
rand_sets[15]: 1159
Assign rand_sets[16]: 513  LLC: 2048
rand_sets[16]: 513
Assign rand_sets[17]: 703  LLC: 2048
rand_sets[17]: 703
Assign rand_sets[18]: 561  LLC: 2048
rand_sets[18]: 561
Assign rand_sets[19]: 990  LLC: 2048
rand_sets[19]: 990
Assign rand_sets[20]: 342  LLC: 2048
rand_sets[20]: 342
Assign rand_sets[21]: 882  LLC: 2048
rand_sets[21]: 882
Assign rand_sets[22]: 15  LLC: 2048
rand_sets[22]: 15
Assign rand_sets[23]: 71  LLC: 2048
rand_sets[23]: 71
Assign rand_sets[24]: 1127  LLC: 2048
rand_sets[24]: 1127
Assign rand_sets[25]: 1382  LLC: 2048
rand_sets[25]: 1382
Assign rand_sets[26]: 647  LLC: 2048
rand_sets[26]: 647
Assign rand_sets[27]: 857  LLC: 2048
rand_sets[27]: 857
Assign rand_sets[28]: 1450  LLC: 2048
rand_sets[28]: 1450
Assign rand_sets[29]: 1160  LLC: 2048
rand_sets[29]: 1160
Assign rand_sets[30]: 1852  LLC: 2048
rand_sets[30]: 1852
Assign rand_sets[31]: 1881  LLC: 2048
rand_sets[31]: 1881
Assign rand_sets[32]: 1770  LLC: 2048
rand_sets[32]: 1770
Assign rand_sets[33]: 1622  LLC: 2048
rand_sets[33]: 1622
Assign rand_sets[34]: 275  LLC: 2048
rand_sets[34]: 275
Assign rand_sets[35]: 635  LLC: 2048
rand_sets[35]: 635
Assign rand_sets[36]: 466  LLC: 2048
rand_sets[36]: 466
Assign rand_sets[37]: 1413  LLC: 2048
rand_sets[37]: 1413
Assign rand_sets[38]: 417  LLC: 2048
rand_sets[38]: 417
Assign rand_sets[39]: 472  LLC: 2048
rand_sets[39]: 472
Assign rand_sets[40]: 1340  LLC: 2048
rand_sets[40]: 1340
Assign rand_sets[41]: 852  LLC: 2048
rand_sets[41]: 852
Assign rand_sets[42]: 1365  LLC: 2048
rand_sets[42]: 1365
Assign rand_sets[43]: 47  LLC: 2048
rand_sets[43]: 47
Assign rand_sets[44]: 823  LLC: 2048
rand_sets[44]: 823
Assign rand_sets[45]: 686  LLC: 2048
rand_sets[45]: 686
Assign rand_sets[46]: 1637  LLC: 2048
rand_sets[46]: 1637
Assign rand_sets[47]: 1115  LLC: 2048
rand_sets[47]: 1115
Assign rand_sets[48]: 986  LLC: 2048
rand_sets[48]: 986
Assign rand_sets[49]: 258  LLC: 2048
rand_sets[49]: 258
Assign rand_sets[50]: 633  LLC: 2048
rand_sets[50]: 633
Assign rand_sets[51]: 920  LLC: 2048
rand_sets[51]: 920
Assign rand_sets[52]: 204  LLC: 2048
rand_sets[52]: 204
Assign rand_sets[53]: 227  LLC: 2048
rand_sets[53]: 227
Assign rand_sets[54]: 1818  LLC: 2048
rand_sets[54]: 1818
Assign rand_sets[55]: 886  LLC: 2048
rand_sets[55]: 886
Assign rand_sets[56]: 1422  LLC: 2048
rand_sets[56]: 1422
Assign rand_sets[57]: 607  LLC: 2048
rand_sets[57]: 607
Assign rand_sets[58]: 217  LLC: 2048
rand_sets[58]: 217
Assign rand_sets[59]: 1945  LLC: 2048
rand_sets[59]: 1945
Assign rand_sets[60]: 143  LLC: 2048
rand_sets[60]: 143
Assign rand_sets[61]: 1311  LLC: 2048
rand_sets[61]: 1311
Assign rand_sets[62]: 319  LLC: 2048
rand_sets[62]: 319
Assign rand_sets[63]: 1846  LLC: 2048
rand_sets[63]: 1846
 CLEAN-RRIP-POLICY-1: 2-2-0-3-2-3-0-2- CLEAN-RRIP-POLICY-2: 2-2-0-3-2-3-0-2-
 DIRTY-RRIP-POLICY-1: 1-2-0-3-0-3-0-2- DIRTY-RRIP-POLICY-2: 1-2-0-3-0-3-0-2-
 PSEL width: 10
Heartbeat CPU 0 instructions: 10000000 cycles: 6588002 heartbeat IPC: 1.51791 cumulative IPC: 1.51791 (Simulation time: 0 hr 0 min 24 sec) 
Heartbeat CPU 0 instructions: 20000000 cycles: 13179600 heartbeat IPC: 1.51708 cumulative IPC: 1.5175 (Simulation time: 0 hr 0 min 49 sec) 
Heartbeat CPU 0 instructions: 30000003 cycles: 19772923 heartbeat IPC: 1.51669 cumulative IPC: 1.51723 (Simulation time: 0 hr 1 min 13 sec) 
Heartbeat CPU 0 instructions: 40000000 cycles: 26364662 heartbeat IPC: 1.51705 cumulative IPC: 1.51718 (Simulation time: 0 hr 1 min 38 sec) 
Heartbeat CPU 0 instructions: 50000001 cycles: 32957338 heartbeat IPC: 1.51683 cumulative IPC: 1.51711 (Simulation time: 0 hr 2 min 3 sec) 
Heartbeat CPU 0 instructions: 60000000 cycles: 39556156 heartbeat IPC: 1.51542 cumulative IPC: 1.51683 (Simulation time: 0 hr 2 min 27 sec) 
Heartbeat CPU 0 instructions: 70000003 cycles: 46154494 heartbeat IPC: 1.51553 cumulative IPC: 1.51665 (Simulation time: 0 hr 2 min 52 sec) 
Heartbeat CPU 0 instructions: 80000000 cycles: 52752549 heartbeat IPC: 1.5156 cumulative IPC: 1.51651 (Simulation time: 0 hr 3 min 17 sec) 
Heartbeat CPU 0 instructions: 90000002 cycles: 59348244 heartbeat IPC: 1.51614 cumulative IPC: 1.51647 (Simulation time: 0 hr 3 min 41 sec) 
Heartbeat CPU 0 instructions: 100000000 cycles: 65943273 heartbeat IPC: 1.51629 cumulative IPC: 1.51645 (Simulation time: 0 hr 4 min 6 sec) 

Warmup complete CPU 0 instructions: 100000002 cycles: 65943274 (Simulation time: 0 hr 4 min 6 sec) 

Heartbeat CPU 0 instructions: 110000000 cycles: 79187835 heartbeat IPC: 0.755027 cumulative IPC: 0.755027 (Simulation time: 0 hr 4 min 36 sec) 
Heartbeat CPU 0 instructions: 120000000 cycles: 92391423 heartbeat IPC: 0.75737 cumulative IPC: 0.756196 (Simulation time: 0 hr 5 min 6 sec) 
Heartbeat CPU 0 instructions: 130000001 cycles: 105675961 heartbeat IPC: 0.752755 cumulative IPC: 0.755046 (Simulation time: 0 hr 5 min 36 sec) 
Heartbeat CPU 0 instructions: 140000000 cycles: 118853257 heartbeat IPC: 0.758881 cumulative IPC: 0.756001 (Simulation time: 0 hr 6 min 6 sec) 
Heartbeat CPU 0 instructions: 150000001 cycles: 132040625 heartbeat IPC: 0.758301 cumulative IPC: 0.75646 (Simulation time: 0 hr 6 min 36 sec) 
Heartbeat CPU 0 instructions: 160000000 cycles: 145275826 heartbeat IPC: 0.755561 cumulative IPC: 0.75631 (Simulation time: 0 hr 7 min 6 sec) 
Heartbeat CPU 0 instructions: 170000000 cycles: 158495072 heartbeat IPC: 0.756473 cumulative IPC: 0.756333 (Simulation time: 0 hr 7 min 36 sec) 
Heartbeat CPU 0 instructions: 180000000 cycles: 171699971 heartbeat IPC: 0.757295 cumulative IPC: 0.756453 (Simulation time: 0 hr 8 min 6 sec) 
Heartbeat CPU 0 instructions: 190000000 cycles: 184865217 heartbeat IPC: 0.759576 cumulative IPC: 0.756799 (Simulation time: 0 hr 8 min 36 sec) 
Heartbeat CPU 0 instructions: 200000000 cycles: 198123652 heartbeat IPC: 0.754237 cumulative IPC: 0.756542 (Simulation time: 0 hr 9 min 6 sec) 
Heartbeat CPU 0 instructions: 210000002 cycles: 211333918 heartbeat IPC: 0.756987 cumulative IPC: 0.756582 (Simulation time: 0 hr 9 min 36 sec) 
Heartbeat CPU 0 instructions: 220000000 cycles: 224512659 heartbeat IPC: 0.758798 cumulative IPC: 0.756766 (Simulation time: 0 hr 10 min 6 sec) 
Heartbeat CPU 0 instructions: 230000003 cycles: 237762816 heartbeat IPC: 0.754708 cumulative IPC: 0.756608 (Simulation time: 0 hr 10 min 36 sec) 
Heartbeat CPU 0 instructions: 240000000 cycles: 250955726 heartbeat IPC: 0.757983 cumulative IPC: 0.756706 (Simulation time: 0 hr 11 min 6 sec) 
Heartbeat CPU 0 instructions: 250000001 cycles: 264175793 heartbeat IPC: 0.756426 cumulative IPC: 0.756687 (Simulation time: 0 hr 11 min 36 sec) 
Heartbeat CPU 0 instructions: 260000000 cycles: 277394171 heartbeat IPC: 0.756522 cumulative IPC: 0.756677 (Simulation time: 0 hr 12 min 6 sec) 
Heartbeat CPU 0 instructions: 270000003 cycles: 290635529 heartbeat IPC: 0.75521 cumulative IPC: 0.75659 (Simulation time: 0 hr 12 min 36 sec) 
Heartbeat CPU 0 instructions: 280000000 cycles: 303842841 heartbeat IPC: 0.757156 cumulative IPC: 0.756622 (Simulation time: 0 hr 13 min 6 sec) 
Heartbeat CPU 0 instructions: 290000000 cycles: 317014401 heartbeat IPC: 0.759212 cumulative IPC: 0.756758 (Simulation time: 0 hr 13 min 36 sec) 
Heartbeat CPU 0 instructions: 300000000 cycles: 330276375 heartbeat IPC: 0.754036 cumulative IPC: 0.756621 (Simulation time: 0 hr 14 min 6 sec) 
Heartbeat CPU 0 instructions: 310000001 cycles: 343464080 heartbeat IPC: 0.758282 cumulative IPC: 0.7567 (Simulation time: 0 hr 14 min 37 sec) 
Heartbeat CPU 0 instructions: 320000000 cycles: 356654013 heartbeat IPC: 0.758154 cumulative IPC: 0.756766 (Simulation time: 0 hr 15 min 7 sec) 
Heartbeat CPU 0 instructions: 330000002 cycles: 369858081 heartbeat IPC: 0.757343 cumulative IPC: 0.756791 (Simulation time: 0 hr 15 min 37 sec) 
Heartbeat CPU 0 instructions: 340000000 cycles: 383102642 heartbeat IPC: 0.755027 cumulative IPC: 0.756717 (Simulation time: 0 hr 16 min 6 sec) 
Heartbeat CPU 0 instructions: 350000000 cycles: 396356845 heartbeat IPC: 0.754478 cumulative IPC: 0.756628 (Simulation time: 0 hr 16 min 36 sec) 
Heartbeat CPU 0 instructions: 360000000 cycles: 409579239 heartbeat IPC: 0.756293 cumulative IPC: 0.756615 (Simulation time: 0 hr 17 min 6 sec) 
Heartbeat CPU 0 instructions: 370000002 cycles: 422855258 heartbeat IPC: 0.753238 cumulative IPC: 0.756489 (Simulation time: 0 hr 17 min 36 sec) 
Heartbeat CPU 0 instructions: 380000000 cycles: 436061990 heartbeat IPC: 0.757189 cumulative IPC: 0.756514 (Simulation time: 0 hr 18 min 6 sec) 
Heartbeat CPU 0 instructions: 390000000 cycles: 449237131 heartbeat IPC: 0.759005 cumulative IPC: 0.7566 (Simulation time: 0 hr 18 min 36 sec) 
Heartbeat CPU 0 instructions: 400000000 cycles: 462438195 heartbeat IPC: 0.757515 cumulative IPC: 0.75663 (Simulation time: 0 hr 19 min 6 sec) 
Heartbeat CPU 0 instructions: 410000001 cycles: 475689820 heartbeat IPC: 0.754624 cumulative IPC: 0.756565 (Simulation time: 0 hr 19 min 35 sec) 
Heartbeat CPU 0 instructions: 420000000 cycles: 488872729 heartbeat IPC: 0.758558 cumulative IPC: 0.756627 (Simulation time: 0 hr 20 min 5 sec) 
Heartbeat CPU 0 instructions: 430000001 cycles: 502064462 heartbeat IPC: 0.758051 cumulative IPC: 0.75667 (Simulation time: 0 hr 20 min 35 sec) 
Heartbeat CPU 0 instructions: 440000000 cycles: 515233774 heartbeat IPC: 0.759341 cumulative IPC: 0.756749 (Simulation time: 0 hr 21 min 5 sec) 
Heartbeat CPU 0 instructions: 450000002 cycles: 528532706 heartbeat IPC: 0.75194 cumulative IPC: 0.75661 (Simulation time: 0 hr 21 min 35 sec) 
Heartbeat CPU 0 instructions: 460000000 cycles: 541750302 heartbeat IPC: 0.756567 cumulative IPC: 0.756609 (Simulation time: 0 hr 22 min 5 sec) 
Heartbeat CPU 0 instructions: 470000003 cycles: 554948467 heartbeat IPC: 0.757681 cumulative IPC: 0.756638 (Simulation time: 0 hr 22 min 34 sec) 
Heartbeat CPU 0 instructions: 480000000 cycles: 568190476 heartbeat IPC: 0.755172 cumulative IPC: 0.7566 (Simulation time: 0 hr 23 min 4 sec) 
Heartbeat CPU 0 instructions: 490000000 cycles: 581402186 heartbeat IPC: 0.756904 cumulative IPC: 0.756607 (Simulation time: 0 hr 23 min 34 sec) 
Heartbeat CPU 0 instructions: 500000000 cycles: 594607996 heartbeat IPC: 0.757242 cumulative IPC: 0.756623 (Simulation time: 0 hr 24 min 4 sec) 
Heartbeat CPU 0 instructions: 510000001 cycles: 607789660 heartbeat IPC: 0.75863 cumulative IPC: 0.756672 (Simulation time: 0 hr 24 min 34 sec) 
Heartbeat CPU 0 instructions: 520000000 cycles: 621082254 heartbeat IPC: 0.752299 cumulative IPC: 0.756567 (Simulation time: 0 hr 25 min 3 sec) 
Heartbeat CPU 0 instructions: 530000000 cycles: 634330657 heartbeat IPC: 0.754808 cumulative IPC: 0.756526 (Simulation time: 0 hr 25 min 33 sec) 
Heartbeat CPU 0 instructions: 540000000 cycles: 647563976 heartbeat IPC: 0.755668 cumulative IPC: 0.756507 (Simulation time: 0 hr 26 min 3 sec) 
Heartbeat CPU 0 instructions: 550000002 cycles: 660819849 heartbeat IPC: 0.754383 cumulative IPC: 0.756459 (Simulation time: 0 hr 26 min 33 sec) 
Heartbeat CPU 0 instructions: 560000000 cycles: 674014949 heartbeat IPC: 0.757857 cumulative IPC: 0.75649 (Simulation time: 0 hr 27 min 3 sec) 
Heartbeat CPU 0 instructions: 570000001 cycles: 687217197 heartbeat IPC: 0.757447 cumulative IPC: 0.75651 (Simulation time: 0 hr 27 min 32 sec) 
Heartbeat CPU 0 instructions: 580000000 cycles: 700417749 heartbeat IPC: 0.757544 cumulative IPC: 0.756532 (Simulation time: 0 hr 28 min 2 sec) 
Heartbeat CPU 0 instructions: 590000003 cycles: 713647373 heartbeat IPC: 0.75588 cumulative IPC: 0.756518 (Simulation time: 0 hr 28 min 32 sec) 
Heartbeat CPU 0 instructions: 600000000 cycles: 726904485 heartbeat IPC: 0.754312 cumulative IPC: 0.756474 (Simulation time: 0 hr 29 min 2 sec) 
Finished CPU 0 instructions: 500000000 cycles: 660961221 cumulative IPC: 0.756474 (Simulation time: 0 hr 29 min 2 sec) 

CPU 0 Branch Prediction Accuracy: 99.968% MPKI: 0.002246
Number of Branches: 3513331 Number of Mispredictions: 1123
Number of LOAD Instructions: 287251172
Number of LOAD Instructions (ROI): 287251172
Number of STORE Instructions: 51060820
Number of STORE Instructions (ROI): 51060820
Total Destination Memory Operands: 51166221
Total Destination Memory Operands (ROI): 51166221
Total Source Memory Operands: 287251172
Total Source Memory Operands (ROI): 287251172
Number of DEPENDED LOADS: 9555452
Number of DEPENDED LOADS (ROI): 9555452
Number of SQ_ADDED: 51166208
Number of SQ_ADDED (ROI): 51166208
Number of LQ_ADDED: 290419878
Number of LQ_ADDED (ROI): 290419878
Number of Instructions read from trace: 600000257

ChampSim completed all CPUs

Region of Interest Statistics

CPU 0 cumulative IPC: 0.756474 instructions: 500000000 cycles: 660961221
ITLB TOTAL     ACCESS:  108952171  HIT:  108952171  MISS:          0
ITLB LOAD      ACCESS:  108952171  HIT:  108952171  MISS:          0
ITLB RFO       ACCESS:          0  HIT:          0  MISS:          0
ITLB PREFETCH  ACCESS:          0  HIT:          0  MISS:          0
ITLB WRITEBACK ACCESS:          0  HIT:          0  MISS:          0
ITLB PREFETCH  REQUESTED:          0  ISSUED:          0  USEFUL:          0  USELESS:          0
ITLB TOTAL MSHR MERGED:          0
ITLB LOAD MSHR MERGED:          0
ITLB RFO MSHR MERGED:          0
ITLB PREFETCH MSHR MERGED:          0
ITLB WRITEBACK MSHR MERGED:          0
ITLB TOTAL ACCESSES:  108952171 HITS:  108952171 MISSES:          0
ITLB LOAD ACCESSES:  108952171 HITS:  108952171 MISSES:          0
ITLB RFO ACCESSES:          0 HITS:          0 MISSES:          0
ITLB PREFETCH ACCESSES:          0 HITS:          0 MISSES:          0
ITLB WRITEBACK ACCESSES:          0 HITS:          0 MISSES:          0
ITLB RQ ACCESS:  500000001
ITLB RQ TO_CACHE:  108952171
ITLB RQ MERGED:  391047830
ITLB RQ FORWARD:          0
ITLB WQ ACCESS:          0
ITLB WQ TO_CACHE:          0
ITLB WQ MERGED:          0
ITLB WQ FORWARD:          0
DTLB TOTAL     ACCESS:  171131429  HIT:  161115093  MISS:   10016336
DTLB LOAD      ACCESS:  143472281  HIT:  135596195  MISS:    7876086
DTLB RFO       ACCESS:   27659148  HIT:   25518898  MISS:    2140250
DTLB PREFETCH  ACCESS:          0  HIT:          0  MISS:          0
DTLB WRITEBACK ACCESS:          0  HIT:          0  MISS:          0
DTLB PREFETCH  REQUESTED:          0  ISSUED:          0  USEFUL:          0  USELESS:          0
DTLB TOTAL MSHR MERGED:     360464
DTLB LOAD MSHR MERGED:     360464
DTLB RFO MSHR MERGED:          0
DTLB PREFETCH MSHR MERGED:          0
DTLB WRITEBACK MSHR MERGED:          0
DTLB TOTAL ACCESSES:  171491893 HITS:  161115093 MISSES:   10376800
DTLB LOAD ACCESSES:  143832745 HITS:  135596195 MISSES:    8236550
DTLB RFO ACCESSES:   27659148 HITS:   25518898 MISSES:    2140250
DTLB PREFETCH ACCESSES:          0 HITS:          0 MISSES:          0
DTLB WRITEBACK ACCESSES:          0 HITS:          0 MISSES:          0
DTLB RQ ACCESS:  274072365
DTLB RQ TO_CACHE:  171491893
DTLB RQ MERGED:  102580472
DTLB RQ FORWARD:          0
DTLB WQ ACCESS:          0
DTLB WQ TO_CACHE:          0
DTLB WQ MERGED:          0
DTLB WQ FORWARD:          0
L1D TOTAL     ACCESS:  350967506  HIT:  283768209  MISS:   67199297
L1D LOAD      ACCESS:  175628097  HIT:  142588887  MISS:   33039210
L1D RFO       ACCESS:   42020713  HIT:   39215343  MISS:    2805370
L1D PREFETCH  ACCESS:  133318696  HIT:  101963979  MISS:   31354717
L1D WRITEBACK ACCESS:          0  HIT:          0  MISS:          0
L1D PREFETCH  REQUESTED:  176232153  ISSUED:  175294091  USEFUL:    2180820  USELESS:   29173899
L1D TOTAL MSHR MERGED:    1482404
L1D LOAD MSHR MERGED:     704050
L1D RFO MSHR MERGED:     348407
L1D PREFETCH MSHR MERGED:     429947
L1D WRITEBACK MSHR MERGED:          0
L1D TOTAL ACCESSES:  352561927 HITS:  283880226 MISSES:   68681701
L1D LOAD ACCESSES:  176238314 HITS:  142595048 MISSES:   33643266
L1D RFO ACCESSES:   42368453 HITS:   39215343 MISSES:    3153110
L1D PREFETCH ACCESSES:  133955160 HITS:  102069835 MISSES:   31885325
L1D WRITEBACK ACCESSES:          0 HITS:          0 MISSES:          0
L1D RQ ACCESS:  231433892
L1D RQ TO_CACHE:  176232153
L1D RQ MERGED:   55195578
L1D RQ FORWARD:          0
L1D WQ ACCESS:   42638475
L1D WQ TO_CACHE:   42368453
L1D WQ MERGED:     270022
L1D WQ FORWARD:     112017
L1I TOTAL     ACCESS:  109344859  HIT:   77829155  MISS:   31515704
L1I LOAD      ACCESS:  109344859  HIT:   77829155  MISS:   31515704
L1I RFO       ACCESS:          0  HIT:          0  MISS:          0
L1I PREFETCH  ACCESS:          0  HIT:          0  MISS:          0
L1I WRITEBACK ACCESS:          0  HIT:          0  MISS:          0
L1I PREFETCH  REQUESTED:          0  ISSUED:          0  USEFUL:          0  USELESS:          0
L1I TOTAL MSHR MERGED:   30750822
L1I LOAD MSHR MERGED:   30750822
L1I RFO MSHR MERGED:          0
L1I PREFETCH MSHR MERGED:          0
L1I WRITEBACK MSHR MERGED:          0
L1I TOTAL ACCESSES:  140095683 HITS:   77829155 MISSES:   62266528
L1I LOAD ACCESSES:  140095683 HITS:   77829155 MISSES:   62266528
L1I RFO ACCESSES:          0 HITS:          0 MISSES:          0
L1I PREFETCH ACCESSES:          0 HITS:          0 MISSES:          0
L1I WRITEBACK ACCESSES:          0 HITS:          0 MISSES:          0
L1I RQ ACCESS:  500000003
L1I RQ TO_CACHE:  140095683
L1I RQ MERGED:  359904320
L1I RQ FORWARD:          0
L1I WQ ACCESS:          0
L1I WQ TO_CACHE:          0
L1I WQ MERGED:          0
L1I WQ FORWARD:          0
L2C TOTAL     ACCESS:  113706019  HIT:  110703021  MISS:    3002998
L2C LOAD      ACCESS:   64453033  HIT:   63892321  MISS:     560712
L2C RFO       ACCESS:    2802802  HIT:    2193260  MISS:     609542
L2C PREFETCH  ACCESS:   43289154  HIT:   41462693  MISS:    1826461
L2C WRITEBACK ACCESS:    3161030  HIT:    3154747  MISS:       6283
L2C PREFETCH  REQUESTED:   15134456  ISSUED:   14619675  USEFUL:    1701236  USELESS:     125229
L2C TOTAL MSHR MERGED:      12503
L2C LOAD MSHR MERGED:          0
L2C RFO MSHR MERGED:          0
L2C PREFETCH MSHR MERGED:      12503
L2C WRITEBACK MSHR MERGED:          0
L2C TOTAL ACCESSES:  113901719 HITS:  110708906 MISSES:    3192813
L2C LOAD ACCESSES:   64454921 HITS:   63894208 MISSES:     560713
L2C RFO ACCESSES:    2804703 HITS:    2195161 MISSES:     609542
L2C PREFETCH ACCESSES:   43481065 HITS:   41464790 MISSES:    2016275
L2C WRITEBACK ACCESSES:    3161030 HITS:    3154747 MISSES:       6283
L2C RQ ACCESS:   67259625
L2C RQ TO_CACHE:   67255837
L2C RQ MERGED:          0
L2C RQ FORWARD:          0
L2C WQ ACCESS:    3161030
L2C WQ TO_CACHE:    3161030
L2C WQ MERGED:          0
L2C WQ FORWARD:       5885
LLC TOTAL     ACCESS:    3705602  HIT:    1893522  MISS:    1812080
LLC LOAD      ACCESS:     560681  HIT:     496158  MISS:      64523
LLC RFO       ACCESS:     527401  HIT:     239297  MISS:     288104
LLC PREFETCH  ACCESS:    1998949  HIT:     684271  MISS:    1314678
LLC WRITEBACK ACCESS:     618571  HIT:     473796  MISS:     144775
LLC PREFETCH  REQUESTED:          0  ISSUED:          0  USEFUL:      44466  USELESS:    1261916
LLC TOTAL MSHR MERGED:       4141
LLC LOAD MSHR MERGED:          0
LLC RFO MSHR MERGED:          0
LLC PREFETCH MSHR MERGED:       4141
LLC WRITEBACK MSHR MERGED:          0
LLC TOTAL ACCESSES:    3791999 HITS:    1975778 MISSES:    1816221
LLC LOAD ACCESSES:     560712 HITS:     496189 MISSES:      64523
LLC RFO ACCESSES:     609542 HITS:     321438 MISSES:     288104
LLC PREFETCH ACCESSES:    2003174 HITS:     684355 MISSES:    1318819
LLC WRITEBACK ACCESSES:     618571 HITS:     473796 MISSES:     144775
LLC 0 RQ ACCESS:    1170255
LLC 0 RQ TO_CACHE:    1088083
LLC 0 RQ MERGED:          0
LLC 0 RQ FORWARD:          0
LLC WQ ACCESS:     618571
LLC WQ TO_CACHE:     618571
LLC WQ MERGED:          0
LLC WQ FORWARD:      82256
Major fault: 0 Minor fault: 12800
CPU 0 L1D next line prefetcher final stats
CPU 0 L2C PC-based stride prefetcher final stats
All Misses: 2208116
All Hits: 2348431
SD Algo Stats - Switches: 0 SRR-Repls: 82077 BRR-Repls: 0

DRAM Statistics
 CHANNEL 0
 RQ ROW_BUFFER_HIT:     816415  ROW_BUFFER_MISS:     850886
 DBUS_CONGESTED:     880235
 WQ ROW_BUFFER_HIT:      32289  ROW_BUFFER_MISS:     261211  FULL:          0

 AVG_CONGESTED_CYCLE: 13
LOADS RETIRED: 239375970
INSTR RETIRED: 500000000
