
*** ChampSim Multicore Out-of-Order Simulator ***

Warmup Instructions: 100000000
Simulation Instructions: 500000000
Number of CPUs: 1
LLC sets: 2048
LLC ways: 16
Clean RRIP Policies: 2203230222032302 Dirty RRIP Policies: 1203030212030302 PSEL Width: 10 Track Set: 4294967295 PSEL Mask: 1 Demote Mask: 3040100430401004DS Algo: 0Window size: 0
Off-chip DRAM Size: 4096 MB Channels: 1 Width: 64-bit Data Rate: 1600 MT/s

CPU 0 runs /mnt/beegfs/iconst01/spec2017/Parest.trace.gz
NOT SORTED
TRACE STRING: /mnt/beegfs/iconst01/spec2017/Parest.trace.gz
SORTED
TRACE STRING: /mnt/beegfs/iconst01/spec2017/Parest.trace.gz
INITIAL
TRACE STRING: /mnt/beegfs/iconst01/spec2017/Parest.trace.gz

champsim_seed used: 623

CPU 0 L1D next line prefetcher
CPU 0 L2C IP-based stride prefetcher
Initialize DRRIP state
Assign rand_sets[0]: 454  LLC: 2048
rand_sets[0]: 454
Assign rand_sets[1]: 1662  LLC: 2048
rand_sets[1]: 1662
Assign rand_sets[2]: 1921  LLC: 2048
rand_sets[2]: 1921
Assign rand_sets[3]: 1131  LLC: 2048
rand_sets[3]: 1131
Assign rand_sets[4]: 331  LLC: 2048
rand_sets[4]: 331
Assign rand_sets[5]: 1531  LLC: 2048
rand_sets[5]: 1531
Assign rand_sets[6]: 482  LLC: 2048
rand_sets[6]: 482
Assign rand_sets[7]: 1275  LLC: 2048
rand_sets[7]: 1275
Assign rand_sets[8]: 1876  LLC: 2048
rand_sets[8]: 1876
Assign rand_sets[9]: 2038  LLC: 2048
rand_sets[9]: 2038
Assign rand_sets[10]: 701  LLC: 2048
rand_sets[10]: 701
Assign rand_sets[11]: 479  LLC: 2048
rand_sets[11]: 479
Assign rand_sets[12]: 892  LLC: 2048
rand_sets[12]: 892
Assign rand_sets[13]: 1820  LLC: 2048
rand_sets[13]: 1820
Assign rand_sets[14]: 1505  LLC: 2048
rand_sets[14]: 1505
Assign rand_sets[15]: 1159  LLC: 2048
rand_sets[15]: 1159
Assign rand_sets[16]: 513  LLC: 2048
rand_sets[16]: 513
Assign rand_sets[17]: 703  LLC: 2048
rand_sets[17]: 703
Assign rand_sets[18]: 561  LLC: 2048
rand_sets[18]: 561
Assign rand_sets[19]: 990  LLC: 2048
rand_sets[19]: 990
Assign rand_sets[20]: 342  LLC: 2048
rand_sets[20]: 342
Assign rand_sets[21]: 882  LLC: 2048
rand_sets[21]: 882
Assign rand_sets[22]: 15  LLC: 2048
rand_sets[22]: 15
Assign rand_sets[23]: 71  LLC: 2048
rand_sets[23]: 71
Assign rand_sets[24]: 1127  LLC: 2048
rand_sets[24]: 1127
Assign rand_sets[25]: 1382  LLC: 2048
rand_sets[25]: 1382
Assign rand_sets[26]: 647  LLC: 2048
rand_sets[26]: 647
Assign rand_sets[27]: 857  LLC: 2048
rand_sets[27]: 857
Assign rand_sets[28]: 1450  LLC: 2048
rand_sets[28]: 1450
Assign rand_sets[29]: 1160  LLC: 2048
rand_sets[29]: 1160
Assign rand_sets[30]: 1852  LLC: 2048
rand_sets[30]: 1852
Assign rand_sets[31]: 1881  LLC: 2048
rand_sets[31]: 1881
Assign rand_sets[32]: 1770  LLC: 2048
rand_sets[32]: 1770
Assign rand_sets[33]: 1622  LLC: 2048
rand_sets[33]: 1622
Assign rand_sets[34]: 275  LLC: 2048
rand_sets[34]: 275
Assign rand_sets[35]: 635  LLC: 2048
rand_sets[35]: 635
Assign rand_sets[36]: 466  LLC: 2048
rand_sets[36]: 466
Assign rand_sets[37]: 1413  LLC: 2048
rand_sets[37]: 1413
Assign rand_sets[38]: 417  LLC: 2048
rand_sets[38]: 417
Assign rand_sets[39]: 472  LLC: 2048
rand_sets[39]: 472
Assign rand_sets[40]: 1340  LLC: 2048
rand_sets[40]: 1340
Assign rand_sets[41]: 852  LLC: 2048
rand_sets[41]: 852
Assign rand_sets[42]: 1365  LLC: 2048
rand_sets[42]: 1365
Assign rand_sets[43]: 47  LLC: 2048
rand_sets[43]: 47
Assign rand_sets[44]: 823  LLC: 2048
rand_sets[44]: 823
Assign rand_sets[45]: 686  LLC: 2048
rand_sets[45]: 686
Assign rand_sets[46]: 1637  LLC: 2048
rand_sets[46]: 1637
Assign rand_sets[47]: 1115  LLC: 2048
rand_sets[47]: 1115
Assign rand_sets[48]: 986  LLC: 2048
rand_sets[48]: 986
Assign rand_sets[49]: 258  LLC: 2048
rand_sets[49]: 258
Assign rand_sets[50]: 633  LLC: 2048
rand_sets[50]: 633
Assign rand_sets[51]: 920  LLC: 2048
rand_sets[51]: 920
Assign rand_sets[52]: 204  LLC: 2048
rand_sets[52]: 204
Assign rand_sets[53]: 227  LLC: 2048
rand_sets[53]: 227
Assign rand_sets[54]: 1818  LLC: 2048
rand_sets[54]: 1818
Assign rand_sets[55]: 886  LLC: 2048
rand_sets[55]: 886
Assign rand_sets[56]: 1422  LLC: 2048
rand_sets[56]: 1422
Assign rand_sets[57]: 607  LLC: 2048
rand_sets[57]: 607
Assign rand_sets[58]: 217  LLC: 2048
rand_sets[58]: 217
Assign rand_sets[59]: 1945  LLC: 2048
rand_sets[59]: 1945
Assign rand_sets[60]: 143  LLC: 2048
rand_sets[60]: 143
Assign rand_sets[61]: 1311  LLC: 2048
rand_sets[61]: 1311
Assign rand_sets[62]: 319  LLC: 2048
rand_sets[62]: 319
Assign rand_sets[63]: 1846  LLC: 2048
rand_sets[63]: 1846
 CLEAN-RRIP-POLICY-1: 2-2-0-3-2-3-0-2- CLEAN-RRIP-POLICY-2: 2-2-0-3-2-3-0-2-
 DIRTY-RRIP-POLICY-1: 1-2-0-3-0-3-0-2- DIRTY-RRIP-POLICY-2: 1-2-0-3-0-3-0-2-
 PSEL width: 10
Heartbeat CPU 0 instructions: 10000001 cycles: 4387160 heartbeat IPC: 2.27938 cumulative IPC: 2.27938 (Simulation time: 0 hr 0 min 15 sec) 
Heartbeat CPU 0 instructions: 20000000 cycles: 8781444 heartbeat IPC: 2.27568 cumulative IPC: 2.27753 (Simulation time: 0 hr 0 min 29 sec) 
Heartbeat CPU 0 instructions: 30000003 cycles: 13213415 heartbeat IPC: 2.25633 cumulative IPC: 2.27042 (Simulation time: 0 hr 0 min 44 sec) 
Heartbeat CPU 0 instructions: 40000000 cycles: 17644175 heartbeat IPC: 2.25695 cumulative IPC: 2.26704 (Simulation time: 0 hr 0 min 58 sec) 
Heartbeat CPU 0 instructions: 50000000 cycles: 22052819 heartbeat IPC: 2.26827 cumulative IPC: 2.26728 (Simulation time: 0 hr 1 min 12 sec) 
Heartbeat CPU 0 instructions: 60000000 cycles: 26458906 heartbeat IPC: 2.26959 cumulative IPC: 2.26767 (Simulation time: 0 hr 1 min 27 sec) 
Heartbeat CPU 0 instructions: 70000000 cycles: 30860055 heartbeat IPC: 2.27213 cumulative IPC: 2.2683 (Simulation time: 0 hr 1 min 41 sec) 
Heartbeat CPU 0 instructions: 80000000 cycles: 35255861 heartbeat IPC: 2.2749 cumulative IPC: 2.26913 (Simulation time: 0 hr 1 min 56 sec) 
Heartbeat CPU 0 instructions: 90000000 cycles: 39650280 heartbeat IPC: 2.27561 cumulative IPC: 2.26985 (Simulation time: 0 hr 2 min 10 sec) 
Heartbeat CPU 0 instructions: 100000000 cycles: 44047803 heartbeat IPC: 2.27401 cumulative IPC: 2.27026 (Simulation time: 0 hr 2 min 25 sec) 

Warmup complete CPU 0 instructions: 100000002 cycles: 44047813 (Simulation time: 0 hr 2 min 25 sec) 

Heartbeat CPU 0 instructions: 110000000 cycles: 54016073 heartbeat IPC: 1.00318 cumulative IPC: 1.00318 (Simulation time: 0 hr 2 min 44 sec) 
Heartbeat CPU 0 instructions: 120000000 cycles: 63049530 heartbeat IPC: 1.107 cumulative IPC: 1.05254 (Simulation time: 0 hr 3 min 2 sec) 
Heartbeat CPU 0 instructions: 130000001 cycles: 72198900 heartbeat IPC: 1.09297 cumulative IPC: 1.06568 (Simulation time: 0 hr 3 min 21 sec) 
Heartbeat CPU 0 instructions: 140000000 cycles: 81541240 heartbeat IPC: 1.0704 cumulative IPC: 1.06685 (Simulation time: 0 hr 3 min 39 sec) 
Heartbeat CPU 0 instructions: 150000000 cycles: 92525939 heartbeat IPC: 0.910357 cumulative IPC: 1.03139 (Simulation time: 0 hr 3 min 58 sec) 
Heartbeat CPU 0 instructions: 160000000 cycles: 102522104 heartbeat IPC: 1.00038 cumulative IPC: 1.02609 (Simulation time: 0 hr 4 min 17 sec) 
Heartbeat CPU 0 instructions: 170000003 cycles: 112327094 heartbeat IPC: 1.01989 cumulative IPC: 1.0252 (Simulation time: 0 hr 4 min 36 sec) 
Heartbeat CPU 0 instructions: 180000000 cycles: 122054406 heartbeat IPC: 1.02803 cumulative IPC: 1.02555 (Simulation time: 0 hr 4 min 54 sec) 
Heartbeat CPU 0 instructions: 190000002 cycles: 131930788 heartbeat IPC: 1.01252 cumulative IPC: 1.02409 (Simulation time: 0 hr 5 min 13 sec) 
Heartbeat CPU 0 instructions: 200000000 cycles: 141339769 heartbeat IPC: 1.06281 cumulative IPC: 1.02783 (Simulation time: 0 hr 5 min 31 sec) 
Heartbeat CPU 0 instructions: 210000000 cycles: 151097100 heartbeat IPC: 1.02487 cumulative IPC: 1.02756 (Simulation time: 0 hr 5 min 50 sec) 
Heartbeat CPU 0 instructions: 220000000 cycles: 160294327 heartbeat IPC: 1.08728 cumulative IPC: 1.03229 (Simulation time: 0 hr 6 min 8 sec) 
Heartbeat CPU 0 instructions: 230000001 cycles: 172512626 heartbeat IPC: 0.818445 cumulative IPC: 1.01195 (Simulation time: 0 hr 6 min 29 sec) 
Heartbeat CPU 0 instructions: 240000000 cycles: 182971158 heartbeat IPC: 0.956157 cumulative IPC: 1.00775 (Simulation time: 0 hr 6 min 47 sec) 
Heartbeat CPU 0 instructions: 250000002 cycles: 192820008 heartbeat IPC: 1.01535 cumulative IPC: 1.00825 (Simulation time: 0 hr 7 min 6 sec) 
Heartbeat CPU 0 instructions: 260000000 cycles: 202446958 heartbeat IPC: 1.03875 cumulative IPC: 1.01011 (Simulation time: 0 hr 7 min 24 sec) 
Heartbeat CPU 0 instructions: 270000001 cycles: 212002431 heartbeat IPC: 1.04652 cumulative IPC: 1.01218 (Simulation time: 0 hr 7 min 43 sec) 
Heartbeat CPU 0 instructions: 280000000 cycles: 221811991 heartbeat IPC: 1.01941 cumulative IPC: 1.01258 (Simulation time: 0 hr 8 min 1 sec) 
Heartbeat CPU 0 instructions: 290000002 cycles: 231097204 heartbeat IPC: 1.07698 cumulative IPC: 1.01577 (Simulation time: 0 hr 8 min 20 sec) 
Heartbeat CPU 0 instructions: 300000000 cycles: 240782387 heartbeat IPC: 1.0325 cumulative IPC: 1.0166 (Simulation time: 0 hr 8 min 38 sec) 
Heartbeat CPU 0 instructions: 310000000 cycles: 250007499 heartbeat IPC: 1.084 cumulative IPC: 1.01962 (Simulation time: 0 hr 8 min 57 sec) 
Heartbeat CPU 0 instructions: 320000000 cycles: 259350781 heartbeat IPC: 1.07029 cumulative IPC: 1.02182 (Simulation time: 0 hr 9 min 15 sec) 
Heartbeat CPU 0 instructions: 330000003 cycles: 268832463 heartbeat IPC: 1.05467 cumulative IPC: 1.0232 (Simulation time: 0 hr 9 min 34 sec) 
Heartbeat CPU 0 instructions: 340000000 cycles: 278861864 heartbeat IPC: 0.997068 cumulative IPC: 1.02209 (Simulation time: 0 hr 9 min 53 sec) 
Heartbeat CPU 0 instructions: 350000000 cycles: 289031200 heartbeat IPC: 0.983348 cumulative IPC: 1.02048 (Simulation time: 0 hr 10 min 11 sec) 
Heartbeat CPU 0 instructions: 360000000 cycles: 298780750 heartbeat IPC: 1.02569 cumulative IPC: 1.02068 (Simulation time: 0 hr 10 min 30 sec) 
Heartbeat CPU 0 instructions: 370000000 cycles: 308340716 heartbeat IPC: 1.04603 cumulative IPC: 1.02159 (Simulation time: 0 hr 10 min 48 sec) 
Heartbeat CPU 0 instructions: 380000000 cycles: 317792434 heartbeat IPC: 1.05801 cumulative IPC: 1.02285 (Simulation time: 0 hr 11 min 7 sec) 
Heartbeat CPU 0 instructions: 390000002 cycles: 327070904 heartbeat IPC: 1.07776 cumulative IPC: 1.02465 (Simulation time: 0 hr 11 min 25 sec) 
Heartbeat CPU 0 instructions: 400000000 cycles: 336737082 heartbeat IPC: 1.03453 cumulative IPC: 1.02498 (Simulation time: 0 hr 11 min 44 sec) 
Heartbeat CPU 0 instructions: 410000000 cycles: 345867585 heartbeat IPC: 1.09523 cumulative IPC: 1.0271 (Simulation time: 0 hr 12 min 2 sec) 
Heartbeat CPU 0 instructions: 420000000 cycles: 356885229 heartbeat IPC: 0.907635 cumulative IPC: 1.0229 (Simulation time: 0 hr 12 min 21 sec) 
Heartbeat CPU 0 instructions: 430000000 cycles: 367689848 heartbeat IPC: 0.92553 cumulative IPC: 1.01965 (Simulation time: 0 hr 12 min 40 sec) 
Heartbeat CPU 0 instructions: 440000000 cycles: 377553760 heartbeat IPC: 1.0138 cumulative IPC: 1.01947 (Simulation time: 0 hr 12 min 58 sec) 
Heartbeat CPU 0 instructions: 450000000 cycles: 387375691 heartbeat IPC: 1.01813 cumulative IPC: 1.01943 (Simulation time: 0 hr 13 min 17 sec) 
Heartbeat CPU 0 instructions: 460000000 cycles: 397229598 heartbeat IPC: 1.01483 cumulative IPC: 1.01931 (Simulation time: 0 hr 13 min 35 sec) 
Heartbeat CPU 0 instructions: 470000001 cycles: 407114549 heartbeat IPC: 1.01164 cumulative IPC: 1.0191 (Simulation time: 0 hr 13 min 53 sec) 
Heartbeat CPU 0 instructions: 480000000 cycles: 416540843 heartbeat IPC: 1.06086 cumulative IPC: 1.02015 (Simulation time: 0 hr 14 min 12 sec) 
Heartbeat CPU 0 instructions: 490000000 cycles: 426394899 heartbeat IPC: 1.01481 cumulative IPC: 1.02002 (Simulation time: 0 hr 14 min 30 sec) 
Heartbeat CPU 0 instructions: 500000000 cycles: 435908907 heartbeat IPC: 1.05108 cumulative IPC: 1.02077 (Simulation time: 0 hr 14 min 49 sec) 
Heartbeat CPU 0 instructions: 510000000 cycles: 445283996 heartbeat IPC: 1.06666 cumulative IPC: 1.02184 (Simulation time: 0 hr 15 min 7 sec) 
Heartbeat CPU 0 instructions: 520000000 cycles: 454902865 heartbeat IPC: 1.03962 cumulative IPC: 1.02226 (Simulation time: 0 hr 15 min 25 sec) 
Heartbeat CPU 0 instructions: 530000001 cycles: 465196720 heartbeat IPC: 0.971453 cumulative IPC: 1.02102 (Simulation time: 0 hr 15 min 44 sec) 
Heartbeat CPU 0 instructions: 540000000 cycles: 475530891 heartbeat IPC: 0.967663 cumulative IPC: 1.01974 (Simulation time: 0 hr 16 min 2 sec) 
Heartbeat CPU 0 instructions: 550000003 cycles: 485472203 heartbeat IPC: 1.0059 cumulative IPC: 1.01943 (Simulation time: 0 hr 16 min 21 sec) 
Heartbeat CPU 0 instructions: 560000000 cycles: 495225637 heartbeat IPC: 1.02528 cumulative IPC: 1.01955 (Simulation time: 0 hr 16 min 39 sec) 
Heartbeat CPU 0 instructions: 570000002 cycles: 504886564 heartbeat IPC: 1.0351 cumulative IPC: 1.01988 (Simulation time: 0 hr 16 min 57 sec) 
Heartbeat CPU 0 instructions: 580000000 cycles: 514389770 heartbeat IPC: 1.05228 cumulative IPC: 1.02053 (Simulation time: 0 hr 17 min 15 sec) 
Heartbeat CPU 0 instructions: 590000001 cycles: 524206267 heartbeat IPC: 1.01869 cumulative IPC: 1.0205 (Simulation time: 0 hr 17 min 33 sec) 
Heartbeat CPU 0 instructions: 600000000 cycles: 533624810 heartbeat IPC: 1.06174 cumulative IPC: 1.02129 (Simulation time: 0 hr 17 min 52 sec) 
Finished CPU 0 instructions: 500000000 cycles: 489577011 cumulative IPC: 1.02129 (Simulation time: 0 hr 17 min 52 sec) 

CPU 0 Branch Prediction Accuracy: 97.8526% MPKI: 2.66709
Number of Branches: 62099103 Number of Mispredictions: 1333545
Number of LOAD Instructions: 210576465
Number of LOAD Instructions (ROI): 210576465
Number of STORE Instructions: 16915507
Number of STORE Instructions (ROI): 16915507
Total Destination Memory Operands: 16918869
Total Destination Memory Operands (ROI): 16918869
Total Source Memory Operands: 210576465
Total Source Memory Operands (ROI): 210576465
Number of DEPENDED LOADS: 344132
Number of DEPENDED LOADS (ROI): 344132
Number of SQ_ADDED: 16918826
Number of SQ_ADDED (ROI): 16918826
Number of LQ_ADDED: 210609869
Number of LQ_ADDED (ROI): 210609869
Number of Instructions read from trace: 600000257

ChampSim completed all CPUs

Region of Interest Statistics

CPU 0 cumulative IPC: 1.02129 instructions: 500000000 cycles: 489577011
ITLB TOTAL     ACCESS:   76321555  HIT:   76321517  MISS:         38
ITLB LOAD      ACCESS:   76321555  HIT:   76321517  MISS:         38
ITLB RFO       ACCESS:          0  HIT:          0  MISS:          0
ITLB PREFETCH  ACCESS:          0  HIT:          0  MISS:          0
ITLB WRITEBACK ACCESS:          0  HIT:          0  MISS:          0
ITLB PREFETCH  REQUESTED:          0  ISSUED:          0  USEFUL:          0  USELESS:          0
ITLB TOTAL MSHR MERGED:         37
ITLB LOAD MSHR MERGED:         37
ITLB RFO MSHR MERGED:          0
ITLB PREFETCH MSHR MERGED:          0
ITLB WRITEBACK MSHR MERGED:          0
ITLB TOTAL ACCESSES:   76321592 HITS:   76321517 MISSES:         75
ITLB LOAD ACCESSES:   76321592 HITS:   76321517 MISSES:         75
ITLB RFO ACCESSES:          0 HITS:          0 MISSES:          0
ITLB PREFETCH ACCESSES:          0 HITS:          0 MISSES:          0
ITLB WRITEBACK ACCESSES:          0 HITS:          0 MISSES:          0
ITLB RQ ACCESS:  500000188
ITLB RQ TO_CACHE:   76321593
ITLB RQ MERGED:  423678595
ITLB RQ FORWARD:          0
ITLB WQ ACCESS:          0
ITLB WQ TO_CACHE:          0
ITLB WQ MERGED:          0
ITLB WQ FORWARD:          0
DTLB TOTAL     ACCESS:  136769920  HIT:  136567125  MISS:     202795
DTLB LOAD      ACCESS:  128707458  HIT:  128507384  MISS:     200074
DTLB RFO       ACCESS:    8062462  HIT:    8059741  MISS:       2721
DTLB PREFETCH  ACCESS:          0  HIT:          0  MISS:          0
DTLB WRITEBACK ACCESS:          0  HIT:          0  MISS:          0
DTLB PREFETCH  REQUESTED:          0  ISSUED:          0  USEFUL:          0  USELESS:          0
DTLB TOTAL MSHR MERGED:     449535
DTLB LOAD MSHR MERGED:     445933
DTLB RFO MSHR MERGED:       3602
DTLB PREFETCH MSHR MERGED:          0
DTLB WRITEBACK MSHR MERGED:          0
DTLB TOTAL ACCESSES:  137219455 HITS:  136567125 MISSES:     652330
DTLB LOAD ACCESSES:  129153391 HITS:  128507384 MISSES:     646007
DTLB RFO ACCESSES:    8066064 HITS:    8059741 MISSES:       6323
DTLB PREFETCH ACCESSES:          0 HITS:          0 MISSES:          0
DTLB WRITEBACK ACCESSES:          0 HITS:          0 MISSES:          0
DTLB RQ ACCESS:  189420433
DTLB RQ TO_CACHE:  137219455
DTLB RQ MERGED:   52200978
DTLB RQ FORWARD:          0
DTLB WQ ACCESS:          0
DTLB WQ TO_CACHE:          0
DTLB WQ MERGED:          0
DTLB WQ FORWARD:          0
L1D TOTAL     ACCESS:  125275342  HIT:  107718387  MISS:   17556955
L1D LOAD      ACCESS:   72302540  HIT:   62022223  MISS:   10280317
L1D RFO       ACCESS:   14013621  HIT:   13860783  MISS:     152838
L1D PREFETCH  ACCESS:   38959181  HIT:   31835381  MISS:    7123800
L1D WRITEBACK ACCESS:          0  HIT:          0  MISS:          0
L1D PREFETCH  REQUESTED:   85479246  ISSUED:   84159259  USEFUL:    5864417  USELESS:    1259394
L1D TOTAL MSHR MERGED:   31557135
L1D LOAD MSHR MERGED:   18345814
L1D RFO MSHR MERGED:     267131
L1D PREFETCH MSHR MERGED:   12944190
L1D WRITEBACK MSHR MERGED:          0
L1D TOTAL ACCESSES:  156832972 HITS:  107718883 MISSES:   49114089
L1D LOAD ACCESSES:   85479253 HITS:   62022230 MISSES:   23457023
L1D RFO ACCESSES:   14280723 HITS:   13860783 MISSES:     419940
L1D PREFETCH ACCESSES:   57072996 HITS:   31835870 MISSES:   25237126
L1D WRITEBACK ACCESSES:          0 HITS:          0 MISSES:          0
L1D RQ ACCESS:  175131411
L1D RQ TO_CACHE:   85479246
L1D RQ MERGED:   89652158
L1D RQ FORWARD:          0
L1D WQ ACCESS:   14289037
L1D WQ TO_CACHE:   14280723
L1D WQ MERGED:       8314
L1D WQ FORWARD:        496
L1I TOTAL     ACCESS:   93351836  HIT:   93350040  MISS:       1796
L1I LOAD      ACCESS:   93351836  HIT:   93350040  MISS:       1796
L1I RFO       ACCESS:          0  HIT:          0  MISS:          0
L1I PREFETCH  ACCESS:          0  HIT:          0  MISS:          0
L1I WRITEBACK ACCESS:          0  HIT:          0  MISS:          0
L1I PREFETCH  REQUESTED:          0  ISSUED:          0  USEFUL:          0  USELESS:          0
L1I TOTAL MSHR MERGED:       2345
L1I LOAD MSHR MERGED:       2345
L1I RFO MSHR MERGED:          0
L1I PREFETCH MSHR MERGED:          0
L1I WRITEBACK MSHR MERGED:          0
L1I TOTAL ACCESSES:   93354181 HITS:   93350040 MISSES:       4141
L1I LOAD ACCESSES:   93354181 HITS:   93350040 MISSES:       4141
L1I RFO ACCESSES:          0 HITS:          0 MISSES:          0
L1I PREFETCH ACCESSES:          0 HITS:          0 MISSES:          0
L1I WRITEBACK ACCESSES:          0 HITS:          0 MISSES:          0
L1I RQ ACCESS:  500000187
L1I RQ TO_CACHE:   93354181
L1I RQ MERGED:  406646006
L1I RQ FORWARD:          0
L1I WQ ACCESS:          0
L1I WQ TO_CACHE:          0
L1I WQ MERGED:          0
L1I WQ FORWARD:          0
L2C TOTAL     ACCESS:   20903445  HIT:    8674188  MISS:   12229257
L2C LOAD      ACCESS:    5112981  HIT:    2147305  MISS:    2965676
L2C RFO       ACCESS:     152809  HIT:       6514  MISS:     146295
L2C PREFETCH  ACCESS:   13864900  HIT:    4747723  MISS:    9117177
L2C WRITEBACK ACCESS:    1772755  HIT:    1772646  MISS:        109
L2C PREFETCH  REQUESTED:    1811299  ISSUED:    1811299  USEFUL:    1068662  USELESS:    8050149
L2C TOTAL MSHR MERGED:      95194
L2C LOAD MSHR MERGED:      20976
L2C RFO MSHR MERGED:          0
L2C PREFETCH MSHR MERGED:      74218
L2C WRITEBACK MSHR MERGED:          0
L2C TOTAL ACCESSES:   21022797 HITS:    8674226 MISSES:   12348571
L2C LOAD ACCESSES:    5113005 HITS:    2147329 MISSES:    2965676
L2C RFO ACCESSES:     152809 HITS:       6514 MISSES:     146295
L2C PREFETCH ACCESSES:   13984228 HITS:    4747737 MISSES:    9236491
L2C WRITEBACK ACCESSES:    1772755 HITS:    1772646 MISSES:        109
L2C RQ ACCESS:    5265814
L2C RQ TO_CACHE:    5265790
L2C RQ MERGED:          0
L2C RQ FORWARD:          0
L2C WQ ACCESS:    1772755
L2C WQ TO_CACHE:    1772755
L2C WQ MERGED:          0
L2C WQ FORWARD:         38
LLC TOTAL     ACCESS:   12533951  HIT:    6806399  MISS:    5727552
LLC LOAD      ACCESS:    2944681  HIT:    2494097  MISS:     450584
LLC RFO       ACCESS:     146295  HIT:      69071  MISS:      77224
LLC PREFETCH  ACCESS:    9156990  HIT:    4019657  MISS:    5137333
LLC WRITEBACK ACCESS:     285985  HIT:     223574  MISS:      62411
LLC PREFETCH  REQUESTED:          0  ISSUED:          0  USEFUL:      15252  USELESS:    5121539
LLC TOTAL MSHR MERGED:       1013
LLC LOAD MSHR MERGED:        230
LLC RFO MSHR MERGED:          0
LLC PREFETCH MSHR MERGED:        783
LLC WRITEBACK MSHR MERGED:          0
LLC TOTAL ACCESSES:   12534996 HITS:    6806431 MISSES:    5728565
LLC LOAD ACCESSES:    2944700 HITS:    2494116 MISSES:     450584
LLC RFO ACCESSES:     146295 HITS:      69071 MISSES:      77224
LLC PREFETCH ACCESSES:    9158016 HITS:    4019670 MISSES:    5138346
LLC WRITEBACK ACCESSES:     285985 HITS:     223574 MISSES:      62411
LLC 0 RQ ACCESS:    3090995
LLC 0 RQ TO_CACHE:    3090976
LLC 0 RQ MERGED:          0
LLC 0 RQ FORWARD:          0
LLC WQ ACCESS:     285985
LLC WQ TO_CACHE:     285985
LLC WQ MERGED:          0
LLC WQ FORWARD:         32
Major fault: 0 Minor fault: 6524
CPU 0 L1D next line prefetcher final stats
CPU 0 L2C PC-based stride prefetcher final stats
All Misses: 7524652
All Hits: 7534311
SD Algo Stats - Switches: 0 SRR-Repls: 476366 BRR-Repls: 0

DRAM Statistics
 CHANNEL 0
 RQ ROW_BUFFER_HIT:    4826050  ROW_BUFFER_MISS:     829794
 DBUS_CONGESTED:    2000951
 WQ ROW_BUFFER_HIT:      20886  ROW_BUFFER_MISS:      86289  FULL:          0

 AVG_CONGESTED_CYCLE: 12
LOADS RETIRED: 175418235
INSTR RETIRED: 500000000
