
*** ChampSim Multicore Out-of-Order Simulator ***

Warmup Instructions: 100000000
Simulation Instructions: 500000000
Number of CPUs: 1
LLC sets: 2048
LLC ways: 16
Clean RRIP Policies: 1103030211030302 Dirty RRIP Policies: 1103130211031302 PSEL Width: 10 Track Set: 4294967295 PSEL Mask: 1 Demote Mask: 1430244014302440DS Algo: 0Window size: 0
Off-chip DRAM Size: 4096 MB Channels: 1 Width: 64-bit Data Rate: 1600 MT/s

CPU 0 runs /mnt/beegfs/iconst01/spec2017/Lbm.trace.gz
NOT SORTED
TRACE STRING: /mnt/beegfs/iconst01/spec2017/Lbm.trace.gz
SORTED
TRACE STRING: /mnt/beegfs/iconst01/spec2017/Lbm.trace.gz
INITIAL
TRACE STRING: /mnt/beegfs/iconst01/spec2017/Lbm.trace.gz

champsim_seed used: 283

CPU 0 L1D next line prefetcher
CPU 0 L2C IP-based stride prefetcher
Initialize DRRIP state
Assign rand_sets[0]: 454  LLC: 2048
rand_sets[0]: 454
Assign rand_sets[1]: 1662  LLC: 2048
rand_sets[1]: 1662
Assign rand_sets[2]: 1921  LLC: 2048
rand_sets[2]: 1921
Assign rand_sets[3]: 1131  LLC: 2048
rand_sets[3]: 1131
Assign rand_sets[4]: 331  LLC: 2048
rand_sets[4]: 331
Assign rand_sets[5]: 1531  LLC: 2048
rand_sets[5]: 1531
Assign rand_sets[6]: 482  LLC: 2048
rand_sets[6]: 482
Assign rand_sets[7]: 1275  LLC: 2048
rand_sets[7]: 1275
Assign rand_sets[8]: 1876  LLC: 2048
rand_sets[8]: 1876
Assign rand_sets[9]: 2038  LLC: 2048
rand_sets[9]: 2038
Assign rand_sets[10]: 701  LLC: 2048
rand_sets[10]: 701
Assign rand_sets[11]: 479  LLC: 2048
rand_sets[11]: 479
Assign rand_sets[12]: 892  LLC: 2048
rand_sets[12]: 892
Assign rand_sets[13]: 1820  LLC: 2048
rand_sets[13]: 1820
Assign rand_sets[14]: 1505  LLC: 2048
rand_sets[14]: 1505
Assign rand_sets[15]: 1159  LLC: 2048
rand_sets[15]: 1159
Assign rand_sets[16]: 513  LLC: 2048
rand_sets[16]: 513
Assign rand_sets[17]: 703  LLC: 2048
rand_sets[17]: 703
Assign rand_sets[18]: 561  LLC: 2048
rand_sets[18]: 561
Assign rand_sets[19]: 990  LLC: 2048
rand_sets[19]: 990
Assign rand_sets[20]: 342  LLC: 2048
rand_sets[20]: 342
Assign rand_sets[21]: 882  LLC: 2048
rand_sets[21]: 882
Assign rand_sets[22]: 15  LLC: 2048
rand_sets[22]: 15
Assign rand_sets[23]: 71  LLC: 2048
rand_sets[23]: 71
Assign rand_sets[24]: 1127  LLC: 2048
rand_sets[24]: 1127
Assign rand_sets[25]: 1382  LLC: 2048
rand_sets[25]: 1382
Assign rand_sets[26]: 647  LLC: 2048
rand_sets[26]: 647
Assign rand_sets[27]: 857  LLC: 2048
rand_sets[27]: 857
Assign rand_sets[28]: 1450  LLC: 2048
rand_sets[28]: 1450
Assign rand_sets[29]: 1160  LLC: 2048
rand_sets[29]: 1160
Assign rand_sets[30]: 1852  LLC: 2048
rand_sets[30]: 1852
Assign rand_sets[31]: 1881  LLC: 2048
rand_sets[31]: 1881
Assign rand_sets[32]: 1770  LLC: 2048
rand_sets[32]: 1770
Assign rand_sets[33]: 1622  LLC: 2048
rand_sets[33]: 1622
Assign rand_sets[34]: 275  LLC: 2048
rand_sets[34]: 275
Assign rand_sets[35]: 635  LLC: 2048
rand_sets[35]: 635
Assign rand_sets[36]: 466  LLC: 2048
rand_sets[36]: 466
Assign rand_sets[37]: 1413  LLC: 2048
rand_sets[37]: 1413
Assign rand_sets[38]: 417  LLC: 2048
rand_sets[38]: 417
Assign rand_sets[39]: 472  LLC: 2048
rand_sets[39]: 472
Assign rand_sets[40]: 1340  LLC: 2048
rand_sets[40]: 1340
Assign rand_sets[41]: 852  LLC: 2048
rand_sets[41]: 852
Assign rand_sets[42]: 1365  LLC: 2048
rand_sets[42]: 1365
Assign rand_sets[43]: 47  LLC: 2048
rand_sets[43]: 47
Assign rand_sets[44]: 823  LLC: 2048
rand_sets[44]: 823
Assign rand_sets[45]: 686  LLC: 2048
rand_sets[45]: 686
Assign rand_sets[46]: 1637  LLC: 2048
rand_sets[46]: 1637
Assign rand_sets[47]: 1115  LLC: 2048
rand_sets[47]: 1115
Assign rand_sets[48]: 986  LLC: 2048
rand_sets[48]: 986
Assign rand_sets[49]: 258  LLC: 2048
rand_sets[49]: 258
Assign rand_sets[50]: 633  LLC: 2048
rand_sets[50]: 633
Assign rand_sets[51]: 920  LLC: 2048
rand_sets[51]: 920
Assign rand_sets[52]: 204  LLC: 2048
rand_sets[52]: 204
Assign rand_sets[53]: 227  LLC: 2048
rand_sets[53]: 227
Assign rand_sets[54]: 1818  LLC: 2048
rand_sets[54]: 1818
Assign rand_sets[55]: 886  LLC: 2048
rand_sets[55]: 886
Assign rand_sets[56]: 1422  LLC: 2048
rand_sets[56]: 1422
Assign rand_sets[57]: 607  LLC: 2048
rand_sets[57]: 607
Assign rand_sets[58]: 217  LLC: 2048
rand_sets[58]: 217
Assign rand_sets[59]: 1945  LLC: 2048
rand_sets[59]: 1945
Assign rand_sets[60]: 143  LLC: 2048
rand_sets[60]: 143
Assign rand_sets[61]: 1311  LLC: 2048
rand_sets[61]: 1311
Assign rand_sets[62]: 319  LLC: 2048
rand_sets[62]: 319
Assign rand_sets[63]: 1846  LLC: 2048
rand_sets[63]: 1846
 CLEAN-RRIP-POLICY-1: 1-1-0-3-0-3-0-2- CLEAN-RRIP-POLICY-2: 1-1-0-3-0-3-0-2-
 DIRTY-RRIP-POLICY-1: 1-1-0-3-1-3-0-2- DIRTY-RRIP-POLICY-2: 1-1-0-3-1-3-0-2-
 PSEL width: 10
Heartbeat CPU 0 instructions: 10000000 cycles: 4321584 heartbeat IPC: 2.31397 cumulative IPC: 2.31397 (Simulation time: 0 hr 0 min 21 sec) 
Heartbeat CPU 0 instructions: 20000000 cycles: 8643631 heartbeat IPC: 2.31372 cumulative IPC: 2.31384 (Simulation time: 0 hr 0 min 42 sec) 
Heartbeat CPU 0 instructions: 30000000 cycles: 12965447 heartbeat IPC: 2.31384 cumulative IPC: 2.31384 (Simulation time: 0 hr 1 min 4 sec) 
Heartbeat CPU 0 instructions: 40000000 cycles: 17291407 heartbeat IPC: 2.31163 cumulative IPC: 2.31329 (Simulation time: 0 hr 1 min 25 sec) 
Heartbeat CPU 0 instructions: 50000000 cycles: 21613307 heartbeat IPC: 2.3138 cumulative IPC: 2.31339 (Simulation time: 0 hr 1 min 47 sec) 
Heartbeat CPU 0 instructions: 60000000 cycles: 25935215 heartbeat IPC: 2.31379 cumulative IPC: 2.31346 (Simulation time: 0 hr 2 min 8 sec) 
Heartbeat CPU 0 instructions: 70000000 cycles: 30256704 heartbeat IPC: 2.31402 cumulative IPC: 2.31354 (Simulation time: 0 hr 2 min 30 sec) 
Heartbeat CPU 0 instructions: 80000000 cycles: 34582898 heartbeat IPC: 2.3115 cumulative IPC: 2.31328 (Simulation time: 0 hr 2 min 51 sec) 
Heartbeat CPU 0 instructions: 90000003 cycles: 38904950 heartbeat IPC: 2.31372 cumulative IPC: 2.31333 (Simulation time: 0 hr 3 min 13 sec) 
Heartbeat CPU 0 instructions: 100000000 cycles: 43226379 heartbeat IPC: 2.31405 cumulative IPC: 2.3134 (Simulation time: 0 hr 3 min 35 sec) 

Warmup complete CPU 0 instructions: 100000001 cycles: 43226380 (Simulation time: 0 hr 3 min 35 sec) 

Heartbeat CPU 0 instructions: 110000000 cycles: 57767284 heartbeat IPC: 0.687715 cumulative IPC: 0.687715 (Simulation time: 0 hr 4 min 6 sec) 
Heartbeat CPU 0 instructions: 120000000 cycles: 72203485 heartbeat IPC: 0.692703 cumulative IPC: 0.6902 (Simulation time: 0 hr 4 min 37 sec) 
Heartbeat CPU 0 instructions: 130000000 cycles: 86539541 heartbeat IPC: 0.697542 cumulative IPC: 0.69263 (Simulation time: 0 hr 5 min 8 sec) 
Heartbeat CPU 0 instructions: 140000000 cycles: 100634820 heartbeat IPC: 0.709457 cumulative IPC: 0.696762 (Simulation time: 0 hr 5 min 39 sec) 
Heartbeat CPU 0 instructions: 150000003 cycles: 114350705 heartbeat IPC: 0.729082 cumulative IPC: 0.702994 (Simulation time: 0 hr 6 min 9 sec) 
Heartbeat CPU 0 instructions: 160000000 cycles: 128198418 heartbeat IPC: 0.722141 cumulative IPC: 0.706115 (Simulation time: 0 hr 6 min 40 sec) 
Heartbeat CPU 0 instructions: 170000002 cycles: 142649433 heartbeat IPC: 0.691993 cumulative IPC: 0.704062 (Simulation time: 0 hr 7 min 11 sec) 
Heartbeat CPU 0 instructions: 180000000 cycles: 156682002 heartbeat IPC: 0.712628 cumulative IPC: 0.705122 (Simulation time: 0 hr 7 min 42 sec) 
Heartbeat CPU 0 instructions: 190000003 cycles: 173619976 heartbeat IPC: 0.59039 cumulative IPC: 0.690218 (Simulation time: 0 hr 8 min 16 sec) 
Heartbeat CPU 0 instructions: 200000000 cycles: 193893303 heartbeat IPC: 0.493259 cumulative IPC: 0.663716 (Simulation time: 0 hr 8 min 54 sec) 
Heartbeat CPU 0 instructions: 210000001 cycles: 208068919 heartbeat IPC: 0.705437 cumulative IPC: 0.667304 (Simulation time: 0 hr 9 min 25 sec) 
Heartbeat CPU 0 instructions: 220000000 cycles: 222053113 heartbeat IPC: 0.715093 cumulative IPC: 0.671041 (Simulation time: 0 hr 9 min 56 sec) 
Heartbeat CPU 0 instructions: 230000001 cycles: 236149321 heartbeat IPC: 0.709411 cumulative IPC: 0.673844 (Simulation time: 0 hr 10 min 27 sec) 
Heartbeat CPU 0 instructions: 240000000 cycles: 250736403 heartbeat IPC: 0.685538 cumulative IPC: 0.674666 (Simulation time: 0 hr 10 min 58 sec) 
Heartbeat CPU 0 instructions: 250000000 cycles: 265360534 heartbeat IPC: 0.683801 cumulative IPC: 0.675268 (Simulation time: 0 hr 11 min 29 sec) 
Heartbeat CPU 0 instructions: 260000000 cycles: 280249209 heartbeat IPC: 0.671651 cumulative IPC: 0.67504 (Simulation time: 0 hr 12 min 1 sec) 
Heartbeat CPU 0 instructions: 270000002 cycles: 295106044 heartbeat IPC: 0.673091 cumulative IPC: 0.674925 (Simulation time: 0 hr 12 min 33 sec) 
Heartbeat CPU 0 instructions: 280000000 cycles: 310030246 heartbeat IPC: 0.670052 cumulative IPC: 0.674653 (Simulation time: 0 hr 13 min 5 sec) 
Heartbeat CPU 0 instructions: 290000003 cycles: 325790660 heartbeat IPC: 0.634501 cumulative IPC: 0.672413 (Simulation time: 0 hr 13 min 37 sec) 
Heartbeat CPU 0 instructions: 300000000 cycles: 340980052 heartbeat IPC: 0.658354 cumulative IPC: 0.671696 (Simulation time: 0 hr 14 min 9 sec) 
Heartbeat CPU 0 instructions: 310000000 cycles: 357033236 heartbeat IPC: 0.622929 cumulative IPC: 0.669201 (Simulation time: 0 hr 14 min 42 sec) 
Heartbeat CPU 0 instructions: 320000000 cycles: 372954869 heartbeat IPC: 0.628076 cumulative IPC: 0.667216 (Simulation time: 0 hr 15 min 14 sec) 
Heartbeat CPU 0 instructions: 330000002 cycles: 387990960 heartbeat IPC: 0.665067 cumulative IPC: 0.667122 (Simulation time: 0 hr 15 min 45 sec) 
Heartbeat CPU 0 instructions: 340000000 cycles: 404143535 heartbeat IPC: 0.619096 cumulative IPC: 0.664973 (Simulation time: 0 hr 16 min 17 sec) 
Heartbeat CPU 0 instructions: 350000001 cycles: 418810236 heartbeat IPC: 0.681817 cumulative IPC: 0.66563 (Simulation time: 0 hr 16 min 48 sec) 
Heartbeat CPU 0 instructions: 360000000 cycles: 434186143 heartbeat IPC: 0.650368 cumulative IPC: 0.66503 (Simulation time: 0 hr 17 min 20 sec) 
Heartbeat CPU 0 instructions: 370000000 cycles: 448920508 heartbeat IPC: 0.678685 cumulative IPC: 0.665526 (Simulation time: 0 hr 17 min 51 sec) 
Heartbeat CPU 0 instructions: 380000000 cycles: 464028737 heartbeat IPC: 0.661891 cumulative IPC: 0.665395 (Simulation time: 0 hr 18 min 22 sec) 
Heartbeat CPU 0 instructions: 390000000 cycles: 478486120 heartbeat IPC: 0.691688 cumulative IPC: 0.666269 (Simulation time: 0 hr 18 min 53 sec) 
Heartbeat CPU 0 instructions: 400000000 cycles: 492796426 heartbeat IPC: 0.698797 cumulative IPC: 0.667304 (Simulation time: 0 hr 19 min 23 sec) 
Heartbeat CPU 0 instructions: 410000000 cycles: 506960931 heartbeat IPC: 0.70599 cumulative IPC: 0.668486 (Simulation time: 0 hr 19 min 52 sec) 
Heartbeat CPU 0 instructions: 420000000 cycles: 521197912 heartbeat IPC: 0.702396 cumulative IPC: 0.669496 (Simulation time: 0 hr 20 min 21 sec) 
Heartbeat CPU 0 instructions: 430000002 cycles: 534902844 heartbeat IPC: 0.729664 cumulative IPC: 0.671173 (Simulation time: 0 hr 20 min 50 sec) 
Heartbeat CPU 0 instructions: 440000000 cycles: 548701221 heartbeat IPC: 0.724723 cumulative IPC: 0.672635 (Simulation time: 0 hr 21 min 18 sec) 
Heartbeat CPU 0 instructions: 450000000 cycles: 562743973 heartbeat IPC: 0.712111 cumulative IPC: 0.673702 (Simulation time: 0 hr 21 min 46 sec) 
Heartbeat CPU 0 instructions: 460000000 cycles: 577474347 heartbeat IPC: 0.678869 cumulative IPC: 0.673844 (Simulation time: 0 hr 22 min 16 sec) 
Heartbeat CPU 0 instructions: 470000000 cycles: 591644408 heartbeat IPC: 0.705713 cumulative IPC: 0.674668 (Simulation time: 0 hr 22 min 47 sec) 
Heartbeat CPU 0 instructions: 480000000 cycles: 605730930 heartbeat IPC: 0.709898 cumulative IPC: 0.67555 (Simulation time: 0 hr 23 min 17 sec) 
Heartbeat CPU 0 instructions: 490000001 cycles: 620235102 heartbeat IPC: 0.689457 cumulative IPC: 0.6759 (Simulation time: 0 hr 23 min 48 sec) 
Heartbeat CPU 0 instructions: 500000000 cycles: 634431919 heartbeat IPC: 0.704383 cumulative IPC: 0.676584 (Simulation time: 0 hr 24 min 18 sec) 
Heartbeat CPU 0 instructions: 510000002 cycles: 648472306 heartbeat IPC: 0.712231 cumulative IPC: 0.677411 (Simulation time: 0 hr 24 min 47 sec) 
Heartbeat CPU 0 instructions: 520000000 cycles: 662569818 heartbeat IPC: 0.709345 cumulative IPC: 0.678137 (Simulation time: 0 hr 25 min 17 sec) 
Heartbeat CPU 0 instructions: 530000001 cycles: 676498631 heartbeat IPC: 0.717936 cumulative IPC: 0.679013 (Simulation time: 0 hr 25 min 46 sec) 
Heartbeat CPU 0 instructions: 540000000 cycles: 690850952 heartbeat IPC: 0.696751 cumulative IPC: 0.679406 (Simulation time: 0 hr 26 min 16 sec) 
Heartbeat CPU 0 instructions: 550000003 cycles: 704721876 heartbeat IPC: 0.720933 cumulative IPC: 0.680277 (Simulation time: 0 hr 26 min 45 sec) 
Heartbeat CPU 0 instructions: 560000000 cycles: 719284589 heartbeat IPC: 0.686685 cumulative IPC: 0.680415 (Simulation time: 0 hr 27 min 15 sec) 
Heartbeat CPU 0 instructions: 570000001 cycles: 733339046 heartbeat IPC: 0.711518 cumulative IPC: 0.681048 (Simulation time: 0 hr 27 min 44 sec) 
Heartbeat CPU 0 instructions: 580000000 cycles: 746807522 heartbeat IPC: 0.742474 cumulative IPC: 0.682224 (Simulation time: 0 hr 28 min 13 sec) 
Heartbeat CPU 0 instructions: 590000003 cycles: 759964998 heartbeat IPC: 0.760024 cumulative IPC: 0.683652 (Simulation time: 0 hr 28 min 40 sec) 
Heartbeat CPU 0 instructions: 600000000 cycles: 773903962 heartbeat IPC: 0.717413 cumulative IPC: 0.684296 (Simulation time: 0 hr 29 min 9 sec) 
Finished CPU 0 instructions: 500000000 cycles: 730677590 cumulative IPC: 0.684296 (Simulation time: 0 hr 29 min 9 sec) 

CPU 0 Branch Prediction Accuracy: 99.5915% MPKI: 0.037126
Number of Branches: 4544106 Number of Mispredictions: 18563
Number of LOAD Instructions: 149787067
Number of LOAD Instructions (ROI): 149787067
Number of STORE Instructions: 77239062
Number of STORE Instructions (ROI): 77239062
Total Destination Memory Operands: 77239062
Total Destination Memory Operands (ROI): 77239062
Total Source Memory Operands: 149787067
Total Source Memory Operands (ROI): 149787067
Number of DEPENDED LOADS: 19247543
Number of DEPENDED LOADS (ROI): 19247543
Number of SQ_ADDED: 77239036
Number of SQ_ADDED (ROI): 77239036
Number of LQ_ADDED: 149787020
Number of LQ_ADDED (ROI): 149787020
Number of Instructions read from trace: 600000256

ChampSim completed all CPUs

Region of Interest Statistics

CPU 0 cumulative IPC: 0.684296 instructions: 500000000 cycles: 730677590
ITLB TOTAL     ACCESS:   86450248  HIT:   86450247  MISS:          1
ITLB LOAD      ACCESS:   86450248  HIT:   86450247  MISS:          1
ITLB RFO       ACCESS:          0  HIT:          0  MISS:          0
ITLB PREFETCH  ACCESS:          0  HIT:          0  MISS:          0
ITLB WRITEBACK ACCESS:          0  HIT:          0  MISS:          0
ITLB PREFETCH  REQUESTED:          0  ISSUED:          0  USEFUL:          0  USELESS:          0
ITLB TOTAL MSHR MERGED:          1
ITLB LOAD MSHR MERGED:          1
ITLB RFO MSHR MERGED:          0
ITLB PREFETCH MSHR MERGED:          0
ITLB WRITEBACK MSHR MERGED:          0
ITLB TOTAL ACCESSES:   86450249 HITS:   86450247 MISSES:          2
ITLB LOAD ACCESSES:   86450249 HITS:   86450247 MISSES:          2
ITLB RFO ACCESSES:          0 HITS:          0 MISSES:          0
ITLB PREFETCH ACCESSES:          0 HITS:          0 MISSES:          0
ITLB WRITEBACK ACCESSES:          0 HITS:          0 MISSES:          0
ITLB RQ ACCESS:  500000002
ITLB RQ TO_CACHE:   86450249
ITLB RQ MERGED:  413549753
ITLB RQ FORWARD:          0
ITLB WQ ACCESS:          0
ITLB WQ TO_CACHE:          0
ITLB WQ MERGED:          0
ITLB WQ FORWARD:          0
DTLB TOTAL     ACCESS:   98107117  HIT:   97921856  MISS:     185261
DTLB LOAD      ACCESS:   55041195  HIT:   54994884  MISS:      46311
DTLB RFO       ACCESS:   43065922  HIT:   42926972  MISS:     138950
DTLB PREFETCH  ACCESS:          0  HIT:          0  MISS:          0
DTLB WRITEBACK ACCESS:          0  HIT:          0  MISS:          0
DTLB PREFETCH  REQUESTED:          0  ISSUED:          0  USEFUL:          0  USELESS:          0
DTLB TOTAL MSHR MERGED:      83562
DTLB LOAD MSHR MERGED:      83556
DTLB RFO MSHR MERGED:          6
DTLB PREFETCH MSHR MERGED:          0
DTLB WRITEBACK MSHR MERGED:          0
DTLB TOTAL ACCESSES:   98190679 HITS:   97921856 MISSES:     268823
DTLB LOAD ACCESSES:   55124751 HITS:   54994884 MISSES:     129867
DTLB RFO ACCESSES:   43065928 HITS:   42926972 MISSES:     138956
DTLB PREFETCH ACCESSES:          0 HITS:          0 MISSES:          0
DTLB WRITEBACK ACCESSES:          0 HITS:          0 MISSES:          0
DTLB RQ ACCESS:  173634984
DTLB RQ TO_CACHE:   98190679
DTLB RQ MERGED:   75444305
DTLB RQ FORWARD:          0
DTLB WQ ACCESS:          0
DTLB WQ TO_CACHE:          0
DTLB WQ MERGED:          0
DTLB WQ FORWARD:          0
L1D TOTAL     ACCESS:  164570479  HIT:  144997927  MISS:   19572552
L1D LOAD      ACCESS:   60534805  HIT:   58682945  MISS:    1851860
L1D RFO       ACCESS:   64513581  HIT:   47911458  MISS:   16602123
L1D PREFETCH  ACCESS:   39522093  HIT:   38403524  MISS:    1118569
L1D WRITEBACK ACCESS:          0  HIT:          0  MISS:          0
L1D PREFETCH  REQUESTED:   61712063  ISSUED:   61419980  USEFUL:    1116650  USELESS:       1919
L1D TOTAL MSHR MERGED:    3512170
L1D LOAD MSHR MERGED:    1248008
L1D RFO MSHR MERGED:      11403
L1D PREFETCH MSHR MERGED:    2252759
L1D WRITEBACK MSHR MERGED:          0
L1D TOTAL ACCESSES:  168651919 HITS:  145567198 MISSES:   23084721
L1D LOAD ACCESSES:   61974329 HITS:   58945211 MISSES:    3029118
L1D RFO ACCESSES:   64524953 HITS:   47911458 MISSES:   16613495
L1D PREFETCH ACCESSES:   42152637 HITS:   38710529 MISSES:    3442108
L1D WRITEBACK ACCESSES:          0 HITS:          0 MISSES:          0
L1D RQ ACCESS:  109093669
L1D RQ TO_CACHE:   61712063
L1D RQ MERGED:   47119340
L1D RQ FORWARD:          0
L1D WQ ACCESS:   64541313
L1D WQ TO_CACHE:   64524954
L1D WQ MERGED:      16359
L1D WQ FORWARD:     569271
L1I TOTAL     ACCESS:  107759758  HIT:  107759750  MISS:          8
L1I LOAD      ACCESS:  107759758  HIT:  107759750  MISS:          8
L1I RFO       ACCESS:          0  HIT:          0  MISS:          0
L1I PREFETCH  ACCESS:          0  HIT:          0  MISS:          0
L1I WRITEBACK ACCESS:          0  HIT:          0  MISS:          0
L1I PREFETCH  REQUESTED:          0  ISSUED:          0  USEFUL:          0  USELESS:          0
L1I TOTAL MSHR MERGED:          3
L1I LOAD MSHR MERGED:          3
L1I RFO MSHR MERGED:          0
L1I PREFETCH MSHR MERGED:          0
L1I WRITEBACK MSHR MERGED:          0
L1I TOTAL ACCESSES:  107759761 HITS:  107759750 MISSES:         11
L1I LOAD ACCESSES:  107759761 HITS:  107759750 MISSES:         11
L1I RFO ACCESSES:          0 HITS:          0 MISSES:          0
L1I PREFETCH ACCESSES:          0 HITS:          0 MISSES:          0
L1I WRITEBACK ACCESSES:          0 HITS:          0 MISSES:          0
L1I RQ ACCESS:  500000007
L1I RQ TO_CACHE:  107759761
L1I RQ MERGED:  392240246
L1I RQ FORWARD:          0
L1I WQ ACCESS:          0
L1I WQ TO_CACHE:          0
L1I WQ MERGED:          0
L1I WQ FORWARD:          0
L2C TOTAL     ACCESS:   36803775  HIT:   24846205  MISS:   11957570
L2C LOAD      ACCESS:    1781118  HIT:     254181  MISS:    1526937
L2C RFO       ACCESS:   16602093  HIT:    7610741  MISS:    8991352
L2C PREFETCH  ACCESS:    1818391  HIT:     380342  MISS:    1438049
L2C WRITEBACK ACCESS:   16602173  HIT:   16600941  MISS:       1232
L2C PREFETCH  REQUESTED:     816490  ISSUED:     816490  USEFUL:     251862  USELESS:    1186468
L2C TOTAL MSHR MERGED:       2780
L2C LOAD MSHR MERGED:        641
L2C RFO MSHR MERGED:          0
L2C PREFETCH MSHR MERGED:       2139
L2C WRITEBACK MSHR MERGED:          0
L2C TOTAL ACCESSES:   36991161 HITS:   24846205 MISSES:   12144956
L2C LOAD ACCESSES:    1781118 HITS:     254181 MISSES:    1526937
L2C RFO ACCESSES:   16602092 HITS:    7610741 MISSES:    8991351
L2C PREFETCH ACCESSES:    2005778 HITS:     380342 MISSES:    1625436
L2C WRITEBACK ACCESSES:   16602173 HITS:   16600941 MISSES:       1232
L2C RQ ACCESS:   18383210
L2C RQ TO_CACHE:   18383210
L2C RQ MERGED:          0
L2C RQ FORWARD:          0
L2C WQ ACCESS:   16602174
L2C WQ TO_CACHE:   16602174
L2C WQ MERGED:          0
L2C WQ FORWARD:          0
LLC TOTAL     ACCESS:   21130024  HIT:    1625528  MISS:   19504496
LLC LOAD      ACCESS:    1526296  HIT:      66705  MISS:    1459591
LLC RFO       ACCESS:    8991335  HIT:     633319  MISS:    8358016
LLC PREFETCH  ACCESS:    1620208  HIT:     114601  MISS:    1505607
LLC WRITEBACK ACCESS:    8992185  HIT:     810903  MISS:    8181282
LLC PREFETCH  REQUESTED:          0  ISSUED:          0  USEFUL:      66440  USELESS:    1438873
LLC TOTAL MSHR MERGED:       2653
LLC LOAD MSHR MERGED:        232
LLC RFO MSHR MERGED:          0
LLC PREFETCH MSHR MERGED:       2421
LLC WRITEBACK MSHR MERGED:          0
LLC TOTAL ACCESSES:   21132693 HITS:    1625545 MISSES:   19507148
LLC LOAD ACCESSES:    1526296 HITS:      66705 MISSES:    1459591
LLC RFO ACCESSES:    8991351 HITS:     633336 MISSES:    8358015
LLC PREFETCH ACCESSES:    1622861 HITS:     114601 MISSES:    1508260
LLC WRITEBACK ACCESSES:    8992185 HITS:     810903 MISSES:    8181282
LLC 0 RQ ACCESS:   10517647
LLC 0 RQ TO_CACHE:   10517630
LLC 0 RQ MERGED:          0
LLC 0 RQ FORWARD:          0
LLC WQ ACCESS:    8992185
LLC WQ TO_CACHE:    8992185
LLC WQ MERGED:          0
LLC WQ FORWARD:         17
Major fault: 0 Minor fault: 102360
CPU 0 L1D next line prefetcher final stats
CPU 0 L2C PC-based stride prefetcher final stats
All Misses: 23175559
All Hits: 1929976
SD Algo Stats - Switches: 0 SRR-Repls: 1638167 BRR-Repls: 0

DRAM Statistics
 CHANNEL 0
 RQ ROW_BUFFER_HIT:    3698053  ROW_BUFFER_MISS:    7624325
 DBUS_CONGESTED:   13497723
 WQ ROW_BUFFER_HIT:    1250869  ROW_BUFFER_MISS:    7110737  FULL:          0

 AVG_CONGESTED_CYCLE: 13
LOADS RETIRED: 124982196
INSTR RETIRED: 500000000
