
*** ChampSim Multicore Out-of-Order Simulator ***

Warmup Instructions: 100000000
Simulation Instructions: 500000000
Number of CPUs: 1
LLC sets: 2048
LLC ways: 16
Clean RRIP Policies: 2213230222132302 Dirty RRIP Policies: 213130202131302 PSEL Width: 10 Track Set: 4294967295 PSEL Mask: 1 Demote Mask: 3040100030401000DS Algo: 0Window size: 0
Off-chip DRAM Size: 4096 MB Channels: 1 Width: 64-bit Data Rate: 1600 MT/s

CPU 0 runs /mnt/beegfs/iconst01/spec2017/Roms.trace.gz
NOT SORTED
TRACE STRING: /mnt/beegfs/iconst01/spec2017/Roms.trace.gz
SORTED
TRACE STRING: /mnt/beegfs/iconst01/spec2017/Roms.trace.gz
INITIAL
TRACE STRING: /mnt/beegfs/iconst01/spec2017/Roms.trace.gz

champsim_seed used: 417

CPU 0 L1D next line prefetcher
CPU 0 L2C IP-based stride prefetcher
Initialize DRRIP state
Assign rand_sets[0]: 454  LLC: 2048
rand_sets[0]: 454
Assign rand_sets[1]: 1662  LLC: 2048
rand_sets[1]: 1662
Assign rand_sets[2]: 1921  LLC: 2048
rand_sets[2]: 1921
Assign rand_sets[3]: 1131  LLC: 2048
rand_sets[3]: 1131
Assign rand_sets[4]: 331  LLC: 2048
rand_sets[4]: 331
Assign rand_sets[5]: 1531  LLC: 2048
rand_sets[5]: 1531
Assign rand_sets[6]: 482  LLC: 2048
rand_sets[6]: 482
Assign rand_sets[7]: 1275  LLC: 2048
rand_sets[7]: 1275
Assign rand_sets[8]: 1876  LLC: 2048
rand_sets[8]: 1876
Assign rand_sets[9]: 2038  LLC: 2048
rand_sets[9]: 2038
Assign rand_sets[10]: 701  LLC: 2048
rand_sets[10]: 701
Assign rand_sets[11]: 479  LLC: 2048
rand_sets[11]: 479
Assign rand_sets[12]: 892  LLC: 2048
rand_sets[12]: 892
Assign rand_sets[13]: 1820  LLC: 2048
rand_sets[13]: 1820
Assign rand_sets[14]: 1505  LLC: 2048
rand_sets[14]: 1505
Assign rand_sets[15]: 1159  LLC: 2048
rand_sets[15]: 1159
Assign rand_sets[16]: 513  LLC: 2048
rand_sets[16]: 513
Assign rand_sets[17]: 703  LLC: 2048
rand_sets[17]: 703
Assign rand_sets[18]: 561  LLC: 2048
rand_sets[18]: 561
Assign rand_sets[19]: 990  LLC: 2048
rand_sets[19]: 990
Assign rand_sets[20]: 342  LLC: 2048
rand_sets[20]: 342
Assign rand_sets[21]: 882  LLC: 2048
rand_sets[21]: 882
Assign rand_sets[22]: 15  LLC: 2048
rand_sets[22]: 15
Assign rand_sets[23]: 71  LLC: 2048
rand_sets[23]: 71
Assign rand_sets[24]: 1127  LLC: 2048
rand_sets[24]: 1127
Assign rand_sets[25]: 1382  LLC: 2048
rand_sets[25]: 1382
Assign rand_sets[26]: 647  LLC: 2048
rand_sets[26]: 647
Assign rand_sets[27]: 857  LLC: 2048
rand_sets[27]: 857
Assign rand_sets[28]: 1450  LLC: 2048
rand_sets[28]: 1450
Assign rand_sets[29]: 1160  LLC: 2048
rand_sets[29]: 1160
Assign rand_sets[30]: 1852  LLC: 2048
rand_sets[30]: 1852
Assign rand_sets[31]: 1881  LLC: 2048
rand_sets[31]: 1881
Assign rand_sets[32]: 1770  LLC: 2048
rand_sets[32]: 1770
Assign rand_sets[33]: 1622  LLC: 2048
rand_sets[33]: 1622
Assign rand_sets[34]: 275  LLC: 2048
rand_sets[34]: 275
Assign rand_sets[35]: 635  LLC: 2048
rand_sets[35]: 635
Assign rand_sets[36]: 466  LLC: 2048
rand_sets[36]: 466
Assign rand_sets[37]: 1413  LLC: 2048
rand_sets[37]: 1413
Assign rand_sets[38]: 417  LLC: 2048
rand_sets[38]: 417
Assign rand_sets[39]: 472  LLC: 2048
rand_sets[39]: 472
Assign rand_sets[40]: 1340  LLC: 2048
rand_sets[40]: 1340
Assign rand_sets[41]: 852  LLC: 2048
rand_sets[41]: 852
Assign rand_sets[42]: 1365  LLC: 2048
rand_sets[42]: 1365
Assign rand_sets[43]: 47  LLC: 2048
rand_sets[43]: 47
Assign rand_sets[44]: 823  LLC: 2048
rand_sets[44]: 823
Assign rand_sets[45]: 686  LLC: 2048
rand_sets[45]: 686
Assign rand_sets[46]: 1637  LLC: 2048
rand_sets[46]: 1637
Assign rand_sets[47]: 1115  LLC: 2048
rand_sets[47]: 1115
Assign rand_sets[48]: 986  LLC: 2048
rand_sets[48]: 986
Assign rand_sets[49]: 258  LLC: 2048
rand_sets[49]: 258
Assign rand_sets[50]: 633  LLC: 2048
rand_sets[50]: 633
Assign rand_sets[51]: 920  LLC: 2048
rand_sets[51]: 920
Assign rand_sets[52]: 204  LLC: 2048
rand_sets[52]: 204
Assign rand_sets[53]: 227  LLC: 2048
rand_sets[53]: 227
Assign rand_sets[54]: 1818  LLC: 2048
rand_sets[54]: 1818
Assign rand_sets[55]: 886  LLC: 2048
rand_sets[55]: 886
Assign rand_sets[56]: 1422  LLC: 2048
rand_sets[56]: 1422
Assign rand_sets[57]: 607  LLC: 2048
rand_sets[57]: 607
Assign rand_sets[58]: 217  LLC: 2048
rand_sets[58]: 217
Assign rand_sets[59]: 1945  LLC: 2048
rand_sets[59]: 1945
Assign rand_sets[60]: 143  LLC: 2048
rand_sets[60]: 143
Assign rand_sets[61]: 1311  LLC: 2048
rand_sets[61]: 1311
Assign rand_sets[62]: 319  LLC: 2048
rand_sets[62]: 319
Assign rand_sets[63]: 1846  LLC: 2048
rand_sets[63]: 1846
 CLEAN-RRIP-POLICY-1: 2-2-1-3-2-3-0-2- CLEAN-RRIP-POLICY-2: 2-2-1-3-2-3-0-2-
 DIRTY-RRIP-POLICY-1: 0-2-1-3-1-3-0-2- DIRTY-RRIP-POLICY-2: 0-2-1-3-1-3-0-2-
 PSEL width: 10
Heartbeat CPU 0 instructions: 10000000 cycles: 4688066 heartbeat IPC: 2.13308 cumulative IPC: 2.13308 (Simulation time: 0 hr 0 min 16 sec) 
Heartbeat CPU 0 instructions: 20000000 cycles: 9325334 heartbeat IPC: 2.15644 cumulative IPC: 2.1447 (Simulation time: 0 hr 0 min 33 sec) 
Heartbeat CPU 0 instructions: 30000003 cycles: 14019722 heartbeat IPC: 2.1302 cumulative IPC: 2.13984 (Simulation time: 0 hr 0 min 50 sec) 
Heartbeat CPU 0 instructions: 40000000 cycles: 18670140 heartbeat IPC: 2.15034 cumulative IPC: 2.14246 (Simulation time: 0 hr 1 min 7 sec) 
Heartbeat CPU 0 instructions: 50000003 cycles: 23323497 heartbeat IPC: 2.14899 cumulative IPC: 2.14376 (Simulation time: 0 hr 1 min 23 sec) 
Heartbeat CPU 0 instructions: 60000000 cycles: 27976128 heartbeat IPC: 2.14932 cumulative IPC: 2.14469 (Simulation time: 0 hr 1 min 40 sec) 
Heartbeat CPU 0 instructions: 70000002 cycles: 32367265 heartbeat IPC: 2.27731 cumulative IPC: 2.16268 (Simulation time: 0 hr 1 min 55 sec) 
Heartbeat CPU 0 instructions: 80000000 cycles: 36304051 heartbeat IPC: 2.54014 cumulative IPC: 2.20361 (Simulation time: 0 hr 2 min 6 sec) 
Heartbeat CPU 0 instructions: 90000000 cycles: 40249290 heartbeat IPC: 2.5347 cumulative IPC: 2.23606 (Simulation time: 0 hr 2 min 18 sec) 
Heartbeat CPU 0 instructions: 100000000 cycles: 44211570 heartbeat IPC: 2.5238 cumulative IPC: 2.26185 (Simulation time: 0 hr 2 min 30 sec) 

Warmup complete CPU 0 instructions: 100000002 cycles: 44211571 (Simulation time: 0 hr 2 min 30 sec) 

Heartbeat CPU 0 instructions: 110000000 cycles: 52794560 heartbeat IPC: 1.1651 cumulative IPC: 1.1651 (Simulation time: 0 hr 2 min 49 sec) 
Heartbeat CPU 0 instructions: 120000000 cycles: 61425408 heartbeat IPC: 1.15863 cumulative IPC: 1.16186 (Simulation time: 0 hr 3 min 7 sec) 
Heartbeat CPU 0 instructions: 130000002 cycles: 70098046 heartbeat IPC: 1.15305 cumulative IPC: 1.15891 (Simulation time: 0 hr 3 min 26 sec) 
Heartbeat CPU 0 instructions: 140000000 cycles: 78640225 heartbeat IPC: 1.17066 cumulative IPC: 1.16182 (Simulation time: 0 hr 3 min 44 sec) 
Heartbeat CPU 0 instructions: 150000003 cycles: 87340670 heartbeat IPC: 1.14937 cumulative IPC: 1.15931 (Simulation time: 0 hr 4 min 2 sec) 
Heartbeat CPU 0 instructions: 160000000 cycles: 97612645 heartbeat IPC: 0.973522 cumulative IPC: 1.12357 (Simulation time: 0 hr 4 min 23 sec) 
Heartbeat CPU 0 instructions: 170000000 cycles: 110069088 heartbeat IPC: 0.802797 cumulative IPC: 1.0629 (Simulation time: 0 hr 4 min 46 sec) 
Heartbeat CPU 0 instructions: 180000000 cycles: 122535934 heartbeat IPC: 0.802127 cumulative IPC: 1.02139 (Simulation time: 0 hr 5 min 9 sec) 
Heartbeat CPU 0 instructions: 190000000 cycles: 135268544 heartbeat IPC: 0.785385 cumulative IPC: 0.988392 (Simulation time: 0 hr 5 min 32 sec) 
Heartbeat CPU 0 instructions: 200000000 cycles: 149131307 heartbeat IPC: 0.721357 cumulative IPC: 0.95311 (Simulation time: 0 hr 5 min 55 sec) 
Heartbeat CPU 0 instructions: 210000001 cycles: 163032629 heartbeat IPC: 0.719356 cumulative IPC: 0.925762 (Simulation time: 0 hr 6 min 18 sec) 
Heartbeat CPU 0 instructions: 220000000 cycles: 176749134 heartbeat IPC: 0.729049 cumulative IPC: 0.905404 (Simulation time: 0 hr 6 min 41 sec) 
Heartbeat CPU 0 instructions: 230000000 cycles: 190265612 heartbeat IPC: 0.739838 cumulative IPC: 0.890081 (Simulation time: 0 hr 7 min 5 sec) 
Heartbeat CPU 0 instructions: 240000000 cycles: 203873138 heartbeat IPC: 0.734887 cumulative IPC: 0.876855 (Simulation time: 0 hr 7 min 29 sec) 
Heartbeat CPU 0 instructions: 250000003 cycles: 214922037 heartbeat IPC: 0.905068 cumulative IPC: 0.878681 (Simulation time: 0 hr 7 min 51 sec) 
Heartbeat CPU 0 instructions: 260000000 cycles: 222748900 heartbeat IPC: 1.27765 cumulative IPC: 0.896171 (Simulation time: 0 hr 8 min 10 sec) 
Heartbeat CPU 0 instructions: 270000003 cycles: 231049022 heartbeat IPC: 1.2048 cumulative IPC: 0.909882 (Simulation time: 0 hr 8 min 30 sec) 
Heartbeat CPU 0 instructions: 280000000 cycles: 239496552 heartbeat IPC: 1.18378 cumulative IPC: 0.92173 (Simulation time: 0 hr 8 min 50 sec) 
Heartbeat CPU 0 instructions: 290000000 cycles: 248105131 heartbeat IPC: 1.16163 cumulative IPC: 0.931859 (Simulation time: 0 hr 9 min 10 sec) 
Heartbeat CPU 0 instructions: 300000000 cycles: 256723159 heartbeat IPC: 1.16036 cumulative IPC: 0.941125 (Simulation time: 0 hr 9 min 30 sec) 
Heartbeat CPU 0 instructions: 310000000 cycles: 265415258 heartbeat IPC: 1.15047 cumulative IPC: 0.949351 (Simulation time: 0 hr 9 min 51 sec) 
Heartbeat CPU 0 instructions: 320000000 cycles: 274148701 heartbeat IPC: 1.14502 cumulative IPC: 0.956783 (Simulation time: 0 hr 10 min 12 sec) 
Heartbeat CPU 0 instructions: 330000002 cycles: 282842711 heartbeat IPC: 1.15022 cumulative IPC: 0.963831 (Simulation time: 0 hr 10 min 33 sec) 
Heartbeat CPU 0 instructions: 340000000 cycles: 292781070 heartbeat IPC: 1.0062 cumulative IPC: 0.965525 (Simulation time: 0 hr 10 min 55 sec) 
Heartbeat CPU 0 instructions: 350000001 cycles: 301171720 heartbeat IPC: 1.1918 cumulative IPC: 0.972914 (Simulation time: 0 hr 11 min 15 sec) 
Heartbeat CPU 0 instructions: 360000000 cycles: 309595683 heartbeat IPC: 1.18709 cumulative IPC: 0.979712 (Simulation time: 0 hr 11 min 36 sec) 
Heartbeat CPU 0 instructions: 370000001 cycles: 318010977 heartbeat IPC: 1.18831 cumulative IPC: 0.986123 (Simulation time: 0 hr 11 min 56 sec) 
Heartbeat CPU 0 instructions: 380000000 cycles: 326412018 heartbeat IPC: 1.19033 cumulative IPC: 0.992203 (Simulation time: 0 hr 12 min 16 sec) 
Heartbeat CPU 0 instructions: 390000001 cycles: 334627062 heartbeat IPC: 1.21728 cumulative IPC: 0.998569 (Simulation time: 0 hr 12 min 35 sec) 
Heartbeat CPU 0 instructions: 400000000 cycles: 342929631 heartbeat IPC: 1.20445 cumulative IPC: 1.00429 (Simulation time: 0 hr 12 min 55 sec) 
Heartbeat CPU 0 instructions: 410000003 cycles: 351161558 heartbeat IPC: 1.21478 cumulative IPC: 1.00994 (Simulation time: 0 hr 13 min 15 sec) 
Heartbeat CPU 0 instructions: 420000000 cycles: 359471116 heartbeat IPC: 1.20343 cumulative IPC: 1.01504 (Simulation time: 0 hr 13 min 35 sec) 
Heartbeat CPU 0 instructions: 430000001 cycles: 367711739 heartbeat IPC: 1.2135 cumulative IPC: 1.02009 (Simulation time: 0 hr 13 min 54 sec) 
Heartbeat CPU 0 instructions: 440000000 cycles: 375915737 heartbeat IPC: 1.21892 cumulative IPC: 1.02501 (Simulation time: 0 hr 14 min 14 sec) 
Heartbeat CPU 0 instructions: 450000001 cycles: 385383835 heartbeat IPC: 1.05618 cumulative IPC: 1.02587 (Simulation time: 0 hr 14 min 35 sec) 
Heartbeat CPU 0 instructions: 460000000 cycles: 393624961 heartbeat IPC: 1.21343 cumulative IPC: 1.0303 (Simulation time: 0 hr 14 min 55 sec) 
Heartbeat CPU 0 instructions: 470000003 cycles: 401736919 heartbeat IPC: 1.23275 cumulative IPC: 1.03489 (Simulation time: 0 hr 15 min 15 sec) 
Heartbeat CPU 0 instructions: 480000000 cycles: 409896029 heartbeat IPC: 1.22562 cumulative IPC: 1.03915 (Simulation time: 0 hr 15 min 34 sec) 
Heartbeat CPU 0 instructions: 490000000 cycles: 418022888 heartbeat IPC: 1.23049 cumulative IPC: 1.04331 (Simulation time: 0 hr 15 min 54 sec) 
Heartbeat CPU 0 instructions: 500000000 cycles: 426158948 heartbeat IPC: 1.2291 cumulative IPC: 1.04726 (Simulation time: 0 hr 16 min 14 sec) 
Heartbeat CPU 0 instructions: 510000001 cycles: 434264618 heartbeat IPC: 1.2337 cumulative IPC: 1.05114 (Simulation time: 0 hr 16 min 33 sec) 
Heartbeat CPU 0 instructions: 520000000 cycles: 442389496 heartbeat IPC: 1.23079 cumulative IPC: 1.0548 (Simulation time: 0 hr 16 min 53 sec) 
Heartbeat CPU 0 instructions: 530000001 cycles: 450522214 heartbeat IPC: 1.2296 cumulative IPC: 1.0583 (Simulation time: 0 hr 17 min 12 sec) 
Heartbeat CPU 0 instructions: 540000000 cycles: 458828016 heartbeat IPC: 1.20398 cumulative IPC: 1.06122 (Simulation time: 0 hr 17 min 32 sec) 
Heartbeat CPU 0 instructions: 550000000 cycles: 467189799 heartbeat IPC: 1.19592 cumulative IPC: 1.06388 (Simulation time: 0 hr 17 min 52 sec) 
Heartbeat CPU 0 instructions: 560000000 cycles: 475321702 heartbeat IPC: 1.22972 cumulative IPC: 1.06701 (Simulation time: 0 hr 18 min 11 sec) 
Heartbeat CPU 0 instructions: 570000001 cycles: 486547161 heartbeat IPC: 0.890832 cumulative IPC: 1.06254 (Simulation time: 0 hr 18 min 33 sec) 
Heartbeat CPU 0 instructions: 580000000 cycles: 497674651 heartbeat IPC: 0.898675 cumulative IPC: 1.05852 (Simulation time: 0 hr 18 min 54 sec) 
Heartbeat CPU 0 instructions: 590000001 cycles: 509006428 heartbeat IPC: 0.882474 cumulative IPC: 1.05423 (Simulation time: 0 hr 19 min 16 sec) 
Heartbeat CPU 0 instructions: 600000000 cycles: 520105898 heartbeat IPC: 0.900944 cumulative IPC: 1.05065 (Simulation time: 0 hr 19 min 37 sec) 
Finished CPU 0 instructions: 500000001 cycles: 475894340 cumulative IPC: 1.05065 (Simulation time: 0 hr 19 min 37 sec) 

CPU 0 Branch Prediction Accuracy: 99.7422% MPKI: 0.173296
Number of Branches: 33608403 Number of Mispredictions: 86648
Number of LOAD Instructions: 180215231
Number of LOAD Instructions (ROI): 180215231
Number of STORE Instructions: 36067263
Number of STORE Instructions (ROI): 36067263
Total Destination Memory Operands: 38428915
Total Destination Memory Operands (ROI): 38428915
Total Source Memory Operands: 180215231
Total Source Memory Operands (ROI): 180215231
Number of DEPENDED LOADS: 3041290
Number of DEPENDED LOADS (ROI): 3041290
Number of SQ_ADDED: 38428892
Number of SQ_ADDED (ROI): 38428892
Number of LQ_ADDED: 207532625
Number of LQ_ADDED (ROI): 207532625
Number of Instructions read from trace: 600000257

ChampSim completed all CPUs

Region of Interest Statistics

CPU 0 cumulative IPC: 1.05065 instructions: 500000001 cycles: 475894340
ITLB TOTAL     ACCESS:   91800347  HIT:   91800328  MISS:         19
ITLB LOAD      ACCESS:   91800347  HIT:   91800328  MISS:         19
ITLB RFO       ACCESS:          0  HIT:          0  MISS:          0
ITLB PREFETCH  ACCESS:          0  HIT:          0  MISS:          0
ITLB WRITEBACK ACCESS:          0  HIT:          0  MISS:          0
ITLB PREFETCH  REQUESTED:          0  ISSUED:          0  USEFUL:          0  USELESS:          0
ITLB TOTAL MSHR MERGED:         40
ITLB LOAD MSHR MERGED:         40
ITLB RFO MSHR MERGED:          0
ITLB PREFETCH MSHR MERGED:          0
ITLB WRITEBACK MSHR MERGED:          0
ITLB TOTAL ACCESSES:   91800387 HITS:   91800328 MISSES:         59
ITLB LOAD ACCESSES:   91800387 HITS:   91800328 MISSES:         59
ITLB RFO ACCESSES:          0 HITS:          0 MISSES:          0
ITLB PREFETCH ACCESSES:          0 HITS:          0 MISSES:          0
ITLB WRITEBACK ACCESSES:          0 HITS:          0 MISSES:          0
ITLB RQ ACCESS:  500000003
ITLB RQ TO_CACHE:   91800387
ITLB RQ MERGED:  408199616
ITLB RQ FORWARD:          0
ITLB WQ ACCESS:          0
ITLB WQ TO_CACHE:          0
ITLB WQ MERGED:          0
ITLB WQ FORWARD:          0
DTLB TOTAL     ACCESS:  142055154  HIT:  141688693  MISS:     366461
DTLB LOAD      ACCESS:  119417436  HIT:  119103851  MISS:     313585
DTLB RFO       ACCESS:   22637718  HIT:   22584842  MISS:      52876
DTLB PREFETCH  ACCESS:          0  HIT:          0  MISS:          0
DTLB WRITEBACK ACCESS:          0  HIT:          0  MISS:          0
DTLB PREFETCH  REQUESTED:          0  ISSUED:          0  USEFUL:          0  USELESS:          0
DTLB TOTAL MSHR MERGED:     288665
DTLB LOAD MSHR MERGED:     240990
DTLB RFO MSHR MERGED:      47675
DTLB PREFETCH MSHR MERGED:          0
DTLB WRITEBACK MSHR MERGED:          0
DTLB TOTAL ACCESSES:  142343819 HITS:  141688693 MISSES:     655126
DTLB LOAD ACCESSES:  119658426 HITS:  119103851 MISSES:     554575
DTLB RFO ACCESSES:   22685393 HITS:   22584842 MISSES:     100551
DTLB PREFETCH ACCESSES:          0 HITS:          0 MISSES:          0
DTLB WRITEBACK ACCESSES:          0 HITS:          0 MISSES:          0
DTLB RQ ACCESS:  184791687
DTLB RQ TO_CACHE:  142343819
DTLB RQ MERGED:   42447868
DTLB RQ FORWARD:          0
DTLB WQ ACCESS:          0
DTLB WQ TO_CACHE:          0
DTLB WQ MERGED:          0
DTLB WQ FORWARD:          0
L1D TOTAL     ACCESS:  190199207  HIT:  176748612  MISS:   13450595
L1D LOAD      ACCESS:  111951303  HIT:  108697223  MISS:    3254080
L1D RFO       ACCESS:   18938214  HIT:   16156476  MISS:    2781738
L1D PREFETCH  ACCESS:   59309690  HIT:   51894913  MISS:    7414777
L1D WRITEBACK ACCESS:          0  HIT:          0  MISS:          0
L1D PREFETCH  REQUESTED:  116513636  ISSUED:  115152995  USEFUL:    7205064  USELESS:     209713
L1D TOTAL MSHR MERGED:   31502224
L1D LOAD MSHR MERGED:    7261157
L1D RFO MSHR MERGED:    9314501
L1D PREFETCH MSHR MERGED:   14926566
L1D WRITEBACK MSHR MERGED:          0
L1D TOTAL ACCESSES:  221701827 HITS:  176749007 MISSES:   44952820
L1D LOAD ACCESSES:  116513657 HITS:  108697244 MISSES:    7816413
L1D RFO ACCESSES:   28252671 HITS:   16156476 MISSES:   12096195
L1D PREFETCH ACCESSES:   76935499 HITS:   51895287 MISSES:   25040212
L1D WRITEBACK ACCESSES:          0 HITS:          0 MISSES:          0
L1D RQ ACCESS:  156535621
L1D RQ TO_CACHE:  116513639
L1D RQ MERGED:   40021961
L1D RQ FORWARD:          0
L1D WQ ACCESS:   28256066
L1D WQ TO_CACHE:   28252671
L1D WQ MERGED:       3395
L1D WQ FORWARD:        395
L1I TOTAL     ACCESS:  115788787  HIT:  115787839  MISS:        948
L1I LOAD      ACCESS:  115788787  HIT:  115787839  MISS:        948
L1I RFO       ACCESS:          0  HIT:          0  MISS:          0
L1I PREFETCH  ACCESS:          0  HIT:          0  MISS:          0
L1I WRITEBACK ACCESS:          0  HIT:          0  MISS:          0
L1I PREFETCH  REQUESTED:          0  ISSUED:          0  USEFUL:          0  USELESS:          0
L1I TOTAL MSHR MERGED:       1577
L1I LOAD MSHR MERGED:       1577
L1I RFO MSHR MERGED:          0
L1I PREFETCH MSHR MERGED:          0
L1I WRITEBACK MSHR MERGED:          0
L1I TOTAL ACCESSES:  115790364 HITS:  115787839 MISSES:       2525
L1I LOAD ACCESSES:  115790364 HITS:  115787839 MISSES:       2525
L1I RFO ACCESSES:          0 HITS:          0 MISSES:          0
L1I PREFETCH ACCESSES:          0 HITS:          0 MISSES:          0
L1I WRITEBACK ACCESSES:          0 HITS:          0 MISSES:          0
L1I RQ ACCESS:  500000007
L1I RQ TO_CACHE:  115790364
L1I RQ MERGED:  384209643
L1I RQ FORWARD:          0
L1I WQ ACCESS:          0
L1I WQ TO_CACHE:          0
L1I WQ MERGED:          0
L1I WQ FORWARD:          0
L2C TOTAL     ACCESS:   16696158  HIT:    4851964  MISS:   11844194
L2C LOAD      ACCESS:     556170  HIT:      95523  MISS:     460647
L2C RFO       ACCESS:    2781694  HIT:     266751  MISS:    2514943
L2C PREFETCH  ACCESS:   10137651  HIT:    1271333  MISS:    8866318
L2C WRITEBACK ACCESS:    3220643  HIT:    3218357  MISS:       2286
L2C PREFETCH  REQUESTED:      26047  ISSUED:      26047  USEFUL:      92973  USELESS:    8771375
L2C TOTAL MSHR MERGED:        495
L2C LOAD MSHR MERGED:          4
L2C RFO MSHR MERGED:          0
L2C PREFETCH MSHR MERGED:        491
L2C WRITEBACK MSHR MERGED:          0
L2C TOTAL ACCESSES:   16696818 HITS:    4852018 MISSES:   11844800
L2C LOAD ACCESSES:     556204 HITS:      95557 MISSES:     460647
L2C RFO ACCESSES:    2781694 HITS:     266751 MISSES:    2514943
L2C PREFETCH ACCESSES:   10138277 HITS:    1271353 MISSES:    8866924
L2C WRITEBACK ACCESSES:    3220643 HITS:    3218357 MISSES:       2286
L2C RQ ACCESS:    3337898
L2C RQ TO_CACHE:    3337864
L2C RQ MERGED:          0
L2C RQ FORWARD:          0
L2C WQ ACCESS:    3220643
L2C WQ TO_CACHE:    3220643
L2C WQ MERGED:          0
L2C WQ FORWARD:         54
LLC TOTAL     ACCESS:   14742251  HIT:    7579800  MISS:    7162451
LLC LOAD      ACCESS:     460639  HIT:     240871  MISS:     219768
LLC RFO       ACCESS:    2514924  HIT:    1847959  MISS:     666965
LLC PREFETCH  ACCESS:    8866361  HIT:    3311733  MISS:    5554628
LLC WRITEBACK ACCESS:    2900327  HIT:    2179237  MISS:     721090
LLC PREFETCH  REQUESTED:          0  ISSUED:          0  USEFUL:       3583  USELESS:    5557808
LLC TOTAL MSHR MERGED:          7
LLC LOAD MSHR MERGED:          0
LLC RFO MSHR MERGED:          0
LLC PREFETCH MSHR MERGED:          7
LLC WRITEBACK MSHR MERGED:          0
LLC TOTAL ACCESSES:   14742330 HITS:    7579871 MISSES:    7162459
LLC LOAD ACCESSES:     460643 HITS:     240875 MISSES:     219768
LLC RFO ACCESSES:    2514943 HITS:    1847978 MISSES:     666965
LLC PREFETCH ACCESSES:    8866417 HITS:    3311781 MISSES:    5554636
LLC WRITEBACK ACCESSES:    2900327 HITS:    2179237 MISSES:     721090
LLC 0 RQ ACCESS:    2975586
LLC 0 RQ TO_CACHE:    2975563
LLC 0 RQ MERGED:          0
LLC 0 RQ FORWARD:          0
LLC WQ ACCESS:    2900327
LLC WQ TO_CACHE:    2900327
LLC WQ MERGED:          0
LLC WQ FORWARD:         71
Major fault: 0 Minor fault: 57518
CPU 0 L1D next line prefetcher final stats
CPU 0 L2C PC-based stride prefetcher final stats
All Misses: 7756287
All Hits: 8482145
SD Algo Stats - Switches: 0 SRR-Repls: 226333 BRR-Repls: 0

DRAM Statistics
 CHANNEL 0
 RQ ROW_BUFFER_HIT:    3656474  ROW_BUFFER_MISS:    2782046
 DBUS_CONGESTED:    2950386
 WQ ROW_BUFFER_HIT:      92419  ROW_BUFFER_MISS:     838955  FULL:          0

 AVG_CONGESTED_CYCLE: 12
LOADS RETIRED: 157818985
INSTR RETIRED: 500000000
