
*** ChampSim Multicore Out-of-Order Simulator ***

Warmup Instructions: 100000000
Simulation Instructions: 500000000
Number of CPUs: 1
LLC sets: 2048
LLC ways: 16
Clean RRIP Policies: 1213130112131301 Dirty RRIP Policies: 1213130112131301 PSEL Width: 10 Track Set: 4294967295 PSEL Mask: 1 Demote Mask: 1040002010400020DS Algo: 0Window size: 0
Off-chip DRAM Size: 4096 MB Channels: 1 Width: 64-bit Data Rate: 1600 MT/s

CPU 0 runs /mnt/beegfs/iconst01/spec2017/Xz.trace.gz
NOT SORTED
TRACE STRING: /mnt/beegfs/iconst01/spec2017/Xz.trace.gz
SORTED
TRACE STRING: /mnt/beegfs/iconst01/spec2017/Xz.trace.gz
INITIAL
TRACE STRING: /mnt/beegfs/iconst01/spec2017/Xz.trace.gz

champsim_seed used: 210

CPU 0 L1D next line prefetcher
CPU 0 L2C IP-based stride prefetcher
Initialize DRRIP state
Assign rand_sets[0]: 454  LLC: 2048
rand_sets[0]: 454
Assign rand_sets[1]: 1662  LLC: 2048
rand_sets[1]: 1662
Assign rand_sets[2]: 1921  LLC: 2048
rand_sets[2]: 1921
Assign rand_sets[3]: 1131  LLC: 2048
rand_sets[3]: 1131
Assign rand_sets[4]: 331  LLC: 2048
rand_sets[4]: 331
Assign rand_sets[5]: 1531  LLC: 2048
rand_sets[5]: 1531
Assign rand_sets[6]: 482  LLC: 2048
rand_sets[6]: 482
Assign rand_sets[7]: 1275  LLC: 2048
rand_sets[7]: 1275
Assign rand_sets[8]: 1876  LLC: 2048
rand_sets[8]: 1876
Assign rand_sets[9]: 2038  LLC: 2048
rand_sets[9]: 2038
Assign rand_sets[10]: 701  LLC: 2048
rand_sets[10]: 701
Assign rand_sets[11]: 479  LLC: 2048
rand_sets[11]: 479
Assign rand_sets[12]: 892  LLC: 2048
rand_sets[12]: 892
Assign rand_sets[13]: 1820  LLC: 2048
rand_sets[13]: 1820
Assign rand_sets[14]: 1505  LLC: 2048
rand_sets[14]: 1505
Assign rand_sets[15]: 1159  LLC: 2048
rand_sets[15]: 1159
Assign rand_sets[16]: 513  LLC: 2048
rand_sets[16]: 513
Assign rand_sets[17]: 703  LLC: 2048
rand_sets[17]: 703
Assign rand_sets[18]: 561  LLC: 2048
rand_sets[18]: 561
Assign rand_sets[19]: 990  LLC: 2048
rand_sets[19]: 990
Assign rand_sets[20]: 342  LLC: 2048
rand_sets[20]: 342
Assign rand_sets[21]: 882  LLC: 2048
rand_sets[21]: 882
Assign rand_sets[22]: 15  LLC: 2048
rand_sets[22]: 15
Assign rand_sets[23]: 71  LLC: 2048
rand_sets[23]: 71
Assign rand_sets[24]: 1127  LLC: 2048
rand_sets[24]: 1127
Assign rand_sets[25]: 1382  LLC: 2048
rand_sets[25]: 1382
Assign rand_sets[26]: 647  LLC: 2048
rand_sets[26]: 647
Assign rand_sets[27]: 857  LLC: 2048
rand_sets[27]: 857
Assign rand_sets[28]: 1450  LLC: 2048
rand_sets[28]: 1450
Assign rand_sets[29]: 1160  LLC: 2048
rand_sets[29]: 1160
Assign rand_sets[30]: 1852  LLC: 2048
rand_sets[30]: 1852
Assign rand_sets[31]: 1881  LLC: 2048
rand_sets[31]: 1881
Assign rand_sets[32]: 1770  LLC: 2048
rand_sets[32]: 1770
Assign rand_sets[33]: 1622  LLC: 2048
rand_sets[33]: 1622
Assign rand_sets[34]: 275  LLC: 2048
rand_sets[34]: 275
Assign rand_sets[35]: 635  LLC: 2048
rand_sets[35]: 635
Assign rand_sets[36]: 466  LLC: 2048
rand_sets[36]: 466
Assign rand_sets[37]: 1413  LLC: 2048
rand_sets[37]: 1413
Assign rand_sets[38]: 417  LLC: 2048
rand_sets[38]: 417
Assign rand_sets[39]: 472  LLC: 2048
rand_sets[39]: 472
Assign rand_sets[40]: 1340  LLC: 2048
rand_sets[40]: 1340
Assign rand_sets[41]: 852  LLC: 2048
rand_sets[41]: 852
Assign rand_sets[42]: 1365  LLC: 2048
rand_sets[42]: 1365
Assign rand_sets[43]: 47  LLC: 2048
rand_sets[43]: 47
Assign rand_sets[44]: 823  LLC: 2048
rand_sets[44]: 823
Assign rand_sets[45]: 686  LLC: 2048
rand_sets[45]: 686
Assign rand_sets[46]: 1637  LLC: 2048
rand_sets[46]: 1637
Assign rand_sets[47]: 1115  LLC: 2048
rand_sets[47]: 1115
Assign rand_sets[48]: 986  LLC: 2048
rand_sets[48]: 986
Assign rand_sets[49]: 258  LLC: 2048
rand_sets[49]: 258
Assign rand_sets[50]: 633  LLC: 2048
rand_sets[50]: 633
Assign rand_sets[51]: 920  LLC: 2048
rand_sets[51]: 920
Assign rand_sets[52]: 204  LLC: 2048
rand_sets[52]: 204
Assign rand_sets[53]: 227  LLC: 2048
rand_sets[53]: 227
Assign rand_sets[54]: 1818  LLC: 2048
rand_sets[54]: 1818
Assign rand_sets[55]: 886  LLC: 2048
rand_sets[55]: 886
Assign rand_sets[56]: 1422  LLC: 2048
rand_sets[56]: 1422
Assign rand_sets[57]: 607  LLC: 2048
rand_sets[57]: 607
Assign rand_sets[58]: 217  LLC: 2048
rand_sets[58]: 217
Assign rand_sets[59]: 1945  LLC: 2048
rand_sets[59]: 1945
Assign rand_sets[60]: 143  LLC: 2048
rand_sets[60]: 143
Assign rand_sets[61]: 1311  LLC: 2048
rand_sets[61]: 1311
Assign rand_sets[62]: 319  LLC: 2048
rand_sets[62]: 319
Assign rand_sets[63]: 1846  LLC: 2048
rand_sets[63]: 1846
 CLEAN-RRIP-POLICY-1: 1-2-1-3-1-3-0-1- CLEAN-RRIP-POLICY-2: 1-2-1-3-1-3-0-1-
 DIRTY-RRIP-POLICY-1: 1-2-1-3-1-3-0-1- DIRTY-RRIP-POLICY-2: 1-2-1-3-1-3-0-1-
 PSEL width: 10
Heartbeat CPU 0 instructions: 10000000 cycles: 4305270 heartbeat IPC: 2.32273 cumulative IPC: 2.32273 (Simulation time: 0 hr 0 min 12 sec) 
Heartbeat CPU 0 instructions: 20000000 cycles: 8617101 heartbeat IPC: 2.3192 cumulative IPC: 2.32097 (Simulation time: 0 hr 0 min 23 sec) 
Heartbeat CPU 0 instructions: 30000003 cycles: 13160982 heartbeat IPC: 2.20076 cumulative IPC: 2.27947 (Simulation time: 0 hr 0 min 36 sec) 
Heartbeat CPU 0 instructions: 40000000 cycles: 17515469 heartbeat IPC: 2.29648 cumulative IPC: 2.2837 (Simulation time: 0 hr 0 min 48 sec) 
Heartbeat CPU 0 instructions: 50000001 cycles: 21878288 heartbeat IPC: 2.2921 cumulative IPC: 2.28537 (Simulation time: 0 hr 1 min 0 sec) 
Heartbeat CPU 0 instructions: 60000000 cycles: 26178494 heartbeat IPC: 2.32547 cumulative IPC: 2.29196 (Simulation time: 0 hr 1 min 11 sec) 
Heartbeat CPU 0 instructions: 70000001 cycles: 30244373 heartbeat IPC: 2.45949 cumulative IPC: 2.31448 (Simulation time: 0 hr 1 min 23 sec) 
Heartbeat CPU 0 instructions: 80000000 cycles: 34523152 heartbeat IPC: 2.33712 cumulative IPC: 2.31729 (Simulation time: 0 hr 1 min 34 sec) 
Heartbeat CPU 0 instructions: 90000001 cycles: 38739771 heartbeat IPC: 2.37157 cumulative IPC: 2.32319 (Simulation time: 0 hr 1 min 46 sec) 
Heartbeat CPU 0 instructions: 100000000 cycles: 42980137 heartbeat IPC: 2.35829 cumulative IPC: 2.32666 (Simulation time: 0 hr 1 min 57 sec) 

Warmup complete CPU 0 instructions: 100000001 cycles: 42980138 (Simulation time: 0 hr 1 min 57 sec) 

Heartbeat CPU 0 instructions: 110000000 cycles: 53099802 heartbeat IPC: 0.988175 cumulative IPC: 0.988175 (Simulation time: 0 hr 2 min 14 sec) 
Heartbeat CPU 0 instructions: 120000000 cycles: 63714797 heartbeat IPC: 0.942064 cumulative IPC: 0.964568 (Simulation time: 0 hr 2 min 32 sec) 
Heartbeat CPU 0 instructions: 130000001 cycles: 74299491 heartbeat IPC: 0.944761 cumulative IPC: 0.957874 (Simulation time: 0 hr 2 min 50 sec) 
Heartbeat CPU 0 instructions: 140000000 cycles: 83976401 heartbeat IPC: 1.03339 cumulative IPC: 0.975699 (Simulation time: 0 hr 3 min 7 sec) 
Heartbeat CPU 0 instructions: 150000001 cycles: 94268463 heartbeat IPC: 0.971623 cumulative IPC: 0.974881 (Simulation time: 0 hr 3 min 24 sec) 
Heartbeat CPU 0 instructions: 160000000 cycles: 104306216 heartbeat IPC: 0.996239 cumulative IPC: 0.978377 (Simulation time: 0 hr 3 min 41 sec) 
Heartbeat CPU 0 instructions: 170000000 cycles: 113967155 heartbeat IPC: 1.0351 cumulative IPC: 0.986096 (Simulation time: 0 hr 3 min 59 sec) 
Heartbeat CPU 0 instructions: 180000000 cycles: 124499210 heartbeat IPC: 0.949482 cumulative IPC: 0.981365 (Simulation time: 0 hr 4 min 16 sec) 
Heartbeat CPU 0 instructions: 190000001 cycles: 134748273 heartbeat IPC: 0.975699 cumulative IPC: 0.980733 (Simulation time: 0 hr 4 min 34 sec) 
Heartbeat CPU 0 instructions: 200000000 cycles: 145306112 heartbeat IPC: 0.947163 cumulative IPC: 0.977269 (Simulation time: 0 hr 4 min 51 sec) 
Heartbeat CPU 0 instructions: 210000002 cycles: 157727593 heartbeat IPC: 0.805057 cumulative IPC: 0.958627 (Simulation time: 0 hr 5 min 10 sec) 
Heartbeat CPU 0 instructions: 220000000 cycles: 170223700 heartbeat IPC: 0.800249 cumulative IPC: 0.943073 (Simulation time: 0 hr 5 min 29 sec) 
Heartbeat CPU 0 instructions: 230000000 cycles: 182355278 heartbeat IPC: 0.824295 cumulative IPC: 0.932734 (Simulation time: 0 hr 5 min 48 sec) 
Heartbeat CPU 0 instructions: 240000000 cycles: 194439358 heartbeat IPC: 0.827535 cumulative IPC: 0.924341 (Simulation time: 0 hr 6 min 6 sec) 
Heartbeat CPU 0 instructions: 250000000 cycles: 206381876 heartbeat IPC: 0.837344 cumulative IPC: 0.917983 (Simulation time: 0 hr 6 min 25 sec) 
Heartbeat CPU 0 instructions: 260000000 cycles: 217907711 heartbeat IPC: 0.867616 cumulative IPC: 0.914664 (Simulation time: 0 hr 6 min 44 sec) 
Heartbeat CPU 0 instructions: 270000003 cycles: 229748807 heartbeat IPC: 0.844517 cumulative IPC: 0.910217 (Simulation time: 0 hr 7 min 2 sec) 
Heartbeat CPU 0 instructions: 280000000 cycles: 241258000 heartbeat IPC: 0.86887 cumulative IPC: 0.907817 (Simulation time: 0 hr 7 min 20 sec) 
Heartbeat CPU 0 instructions: 290000002 cycles: 252749203 heartbeat IPC: 0.870231 cumulative IPC: 0.905758 (Simulation time: 0 hr 7 min 39 sec) 
Heartbeat CPU 0 instructions: 300000000 cycles: 265168535 heartbeat IPC: 0.805196 cumulative IPC: 0.900137 (Simulation time: 0 hr 7 min 58 sec) 
Heartbeat CPU 0 instructions: 310000000 cycles: 277314347 heartbeat IPC: 0.823329 cumulative IPC: 0.896156 (Simulation time: 0 hr 8 min 16 sec) 
Heartbeat CPU 0 instructions: 320000000 cycles: 289936306 heartbeat IPC: 0.79227 cumulative IPC: 0.890846 (Simulation time: 0 hr 8 min 35 sec) 
Heartbeat CPU 0 instructions: 330000003 cycles: 301849228 heartbeat IPC: 0.839425 cumulative IPC: 0.88848 (Simulation time: 0 hr 8 min 54 sec) 
Heartbeat CPU 0 instructions: 340000000 cycles: 313932414 heartbeat IPC: 0.827596 cumulative IPC: 0.885765 (Simulation time: 0 hr 9 min 12 sec) 
Heartbeat CPU 0 instructions: 350000001 cycles: 324899485 heartbeat IPC: 0.911821 cumulative IPC: 0.886778 (Simulation time: 0 hr 9 min 30 sec) 
Heartbeat CPU 0 instructions: 360000000 cycles: 336666560 heartbeat IPC: 0.849829 cumulative IPC: 0.885298 (Simulation time: 0 hr 9 min 49 sec) 
Heartbeat CPU 0 instructions: 370000001 cycles: 348072715 heartbeat IPC: 0.87672 cumulative IPC: 0.884977 (Simulation time: 0 hr 10 min 7 sec) 
Heartbeat CPU 0 instructions: 380000000 cycles: 359058847 heartbeat IPC: 0.910238 cumulative IPC: 0.885855 (Simulation time: 0 hr 10 min 25 sec) 
Heartbeat CPU 0 instructions: 390000003 cycles: 369656022 heartbeat IPC: 0.943648 cumulative IPC: 0.88773 (Simulation time: 0 hr 10 min 43 sec) 
Heartbeat CPU 0 instructions: 400000000 cycles: 379860531 heartbeat IPC: 0.979959 cumulative IPC: 0.890524 (Simulation time: 0 hr 11 min 1 sec) 
Heartbeat CPU 0 instructions: 410000000 cycles: 390358390 heartbeat IPC: 0.952575 cumulative IPC: 0.892399 (Simulation time: 0 hr 11 min 19 sec) 
Heartbeat CPU 0 instructions: 420000000 cycles: 399730482 heartbeat IPC: 1.067 cumulative IPC: 0.896986 (Simulation time: 0 hr 11 min 36 sec) 
Heartbeat CPU 0 instructions: 430000002 cycles: 408818495 heartbeat IPC: 1.10035 cumulative IPC: 0.902038 (Simulation time: 0 hr 11 min 53 sec) 
Heartbeat CPU 0 instructions: 440000000 cycles: 419053570 heartbeat IPC: 0.977032 cumulative IPC: 0.904079 (Simulation time: 0 hr 12 min 11 sec) 
Heartbeat CPU 0 instructions: 450000002 cycles: 430129149 heartbeat IPC: 0.902888 cumulative IPC: 0.904045 (Simulation time: 0 hr 12 min 29 sec) 
Heartbeat CPU 0 instructions: 460000000 cycles: 441648717 heartbeat IPC: 0.868088 cumulative IPC: 0.903006 (Simulation time: 0 hr 12 min 47 sec) 
Heartbeat CPU 0 instructions: 470000003 cycles: 451831043 heartbeat IPC: 0.982094 cumulative IPC: 0.904975 (Simulation time: 0 hr 13 min 4 sec) 
Heartbeat CPU 0 instructions: 480000000 cycles: 462346108 heartbeat IPC: 0.951016 cumulative IPC: 0.90613 (Simulation time: 0 hr 13 min 22 sec) 
Heartbeat CPU 0 instructions: 490000000 cycles: 472291867 heartbeat IPC: 1.00545 cumulative IPC: 0.908431 (Simulation time: 0 hr 13 min 39 sec) 
Heartbeat CPU 0 instructions: 500000000 cycles: 484058830 heartbeat IPC: 0.849837 cumulative IPC: 0.906868 (Simulation time: 0 hr 13 min 57 sec) 
Heartbeat CPU 0 instructions: 510000002 cycles: 496450500 heartbeat IPC: 0.806994 cumulative IPC: 0.904138 (Simulation time: 0 hr 14 min 16 sec) 
Heartbeat CPU 0 instructions: 520000000 cycles: 508290263 heartbeat IPC: 0.844611 cumulative IPC: 0.902624 (Simulation time: 0 hr 14 min 34 sec) 
Heartbeat CPU 0 instructions: 530000001 cycles: 520096376 heartbeat IPC: 0.847019 cumulative IPC: 0.901248 (Simulation time: 0 hr 14 min 52 sec) 
Heartbeat CPU 0 instructions: 540000000 cycles: 531663852 heartbeat IPC: 0.864493 cumulative IPC: 0.900378 (Simulation time: 0 hr 15 min 10 sec) 
Heartbeat CPU 0 instructions: 550000001 cycles: 543010129 heartbeat IPC: 0.881346 cumulative IPC: 0.899946 (Simulation time: 0 hr 15 min 28 sec) 
Heartbeat CPU 0 instructions: 560000000 cycles: 554545479 heartbeat IPC: 0.8669 cumulative IPC: 0.899201 (Simulation time: 0 hr 15 min 46 sec) 
Heartbeat CPU 0 instructions: 570000000 cycles: 565932376 heartbeat IPC: 0.878202 cumulative IPC: 0.898744 (Simulation time: 0 hr 16 min 4 sec) 
Heartbeat CPU 0 instructions: 580000000 cycles: 576667847 heartbeat IPC: 0.931491 cumulative IPC: 0.899402 (Simulation time: 0 hr 16 min 21 sec) 
Heartbeat CPU 0 instructions: 590000003 cycles: 588051253 heartbeat IPC: 0.878472 cumulative IPC: 0.898965 (Simulation time: 0 hr 16 min 39 sec) 
Heartbeat CPU 0 instructions: 600000000 cycles: 598615090 heartbeat IPC: 0.946625 cumulative IPC: 0.899871 (Simulation time: 0 hr 16 min 56 sec) 
Finished CPU 0 instructions: 500000001 cycles: 555634960 cumulative IPC: 0.899871 (Simulation time: 0 hr 16 min 56 sec) 

CPU 0 Branch Prediction Accuracy: 93.0095% MPKI: 10.0046
Number of Branches: 71558147 Number of Mispredictions: 5002285
Number of LOAD Instructions: 145708893
Number of LOAD Instructions (ROI): 145708893
Number of STORE Instructions: 40463820
Number of STORE Instructions (ROI): 40463820
Total Destination Memory Operands: 45240498
Total Destination Memory Operands (ROI): 45240498
Total Source Memory Operands: 145708893
Total Source Memory Operands (ROI): 145708893
Number of DEPENDED LOADS: 10664513
Number of DEPENDED LOADS (ROI): 10664513
Number of SQ_ADDED: 45240498
Number of SQ_ADDED (ROI): 45240498
Number of LQ_ADDED: 193320777
Number of LQ_ADDED (ROI): 193320777
Number of Instructions read from trace: 600000002

ChampSim completed all CPUs

Region of Interest Statistics

CPU 0 cumulative IPC: 0.899871 instructions: 500000001 cycles: 555634960
ITLB TOTAL     ACCESS:   77993722  HIT:   77993721  MISS:          1
ITLB LOAD      ACCESS:   77993722  HIT:   77993721  MISS:          1
ITLB RFO       ACCESS:          0  HIT:          0  MISS:          0
ITLB PREFETCH  ACCESS:          0  HIT:          0  MISS:          0
ITLB WRITEBACK ACCESS:          0  HIT:          0  MISS:          0
ITLB PREFETCH  REQUESTED:          0  ISSUED:          0  USEFUL:          0  USELESS:          0
ITLB TOTAL MSHR MERGED:          0
ITLB LOAD MSHR MERGED:          0
ITLB RFO MSHR MERGED:          0
ITLB PREFETCH MSHR MERGED:          0
ITLB WRITEBACK MSHR MERGED:          0
ITLB TOTAL ACCESSES:   77993722 HITS:   77993721 MISSES:          1
ITLB LOAD ACCESSES:   77993722 HITS:   77993721 MISSES:          1
ITLB RFO ACCESSES:          0 HITS:          0 MISSES:          0
ITLB PREFETCH ACCESSES:          0 HITS:          0 MISSES:          0
ITLB WRITEBACK ACCESSES:          0 HITS:          0 MISSES:          0
ITLB RQ ACCESS:  499999995
ITLB RQ TO_CACHE:   77993722
ITLB RQ MERGED:  422006273
ITLB RQ FORWARD:          0
ITLB WQ ACCESS:          0
ITLB WQ TO_CACHE:          0
ITLB WQ MERGED:          0
ITLB WQ FORWARD:          0
DTLB TOTAL     ACCESS:   98670468  HIT:   97789132  MISS:     881336
DTLB LOAD      ACCESS:   70890952  HIT:   70029419  MISS:     861533
DTLB RFO       ACCESS:   27779516  HIT:   27759713  MISS:      19803
DTLB PREFETCH  ACCESS:          0  HIT:          0  MISS:          0
DTLB WRITEBACK ACCESS:          0  HIT:          0  MISS:          0
DTLB PREFETCH  REQUESTED:          0  ISSUED:          0  USEFUL:          0  USELESS:          0
DTLB TOTAL MSHR MERGED:      87336
DTLB LOAD MSHR MERGED:      65594
DTLB RFO MSHR MERGED:      21742
DTLB PREFETCH MSHR MERGED:          0
DTLB WRITEBACK MSHR MERGED:          0
DTLB TOTAL ACCESSES:   98757804 HITS:   97789132 MISSES:     968672
DTLB LOAD ACCESSES:   70956546 HITS:   70029419 MISSES:     927127
DTLB RFO ACCESSES:   27801258 HITS:   27759713 MISSES:      41545
DTLB PREFETCH ACCESSES:          0 HITS:          0 MISSES:          0
DTLB WRITEBACK ACCESSES:          0 HITS:          0 MISSES:          0
DTLB RQ ACCESS:  150280540
DTLB RQ TO_CACHE:   98757804
DTLB RQ MERGED:   51522736
DTLB RQ FORWARD:          0
DTLB WQ ACCESS:          0
DTLB WQ TO_CACHE:          0
DTLB WQ MERGED:          0
DTLB WQ FORWARD:          0
L1D TOTAL     ACCESS:  173343609  HIT:  169174989  MISS:    4168620
L1D LOAD      ACCESS:   75288829  HIT:   73407457  MISS:    1881372
L1D RFO       ACCESS:   36778628  HIT:   36572032  MISS:     206596
L1D PREFETCH  ACCESS:   61276152  HIT:   59195500  MISS:    2080652
L1D WRITEBACK ACCESS:          0  HIT:          0  MISS:          0
L1D PREFETCH  REQUESTED:   75392272  ISSUED:   74828094  USEFUL:     415101  USELESS:    1665540
L1D TOTAL MSHR MERGED:     374056
L1D LOAD MSHR MERGED:     112252
L1D RFO MSHR MERGED:     132860
L1D PREFETCH MSHR MERGED:     128944
L1D WRITEBACK MSHR MERGED:          0
L1D TOTAL ACCESSES:  173869139 HITS:  169326463 MISSES:    4542676
L1D LOAD ACCESSES:   75395120 HITS:   73410305 MISSES:    1984815
L1D RFO ACCESSES:   36910103 HITS:   36572032 MISSES:     338071
L1D PREFETCH ACCESSES:   61563916 HITS:   59344126 MISSES:    2219790
L1D WRITEBACK ACCESSES:          0 HITS:          0 MISSES:          0
L1D RQ ACCESS:  112618137
L1D RQ TO_CACHE:   75392272
L1D RQ MERGED:   37223017
L1D RQ FORWARD:          0
L1D WQ ACCESS:   37662403
L1D WQ TO_CACHE:   36910103
L1D WQ MERGED:     752300
L1D WQ FORWARD:     151474
L1I TOTAL     ACCESS:  100701657  HIT:  100701632  MISS:         25
L1I LOAD      ACCESS:  100701657  HIT:  100701632  MISS:         25
L1I RFO       ACCESS:          0  HIT:          0  MISS:          0
L1I PREFETCH  ACCESS:          0  HIT:          0  MISS:          0
L1I WRITEBACK ACCESS:          0  HIT:          0  MISS:          0
L1I PREFETCH  REQUESTED:          0  ISSUED:          0  USEFUL:          0  USELESS:          0
L1I TOTAL MSHR MERGED:         10
L1I LOAD MSHR MERGED:         10
L1I RFO MSHR MERGED:          0
L1I PREFETCH MSHR MERGED:          0
L1I WRITEBACK MSHR MERGED:          0
L1I TOTAL ACCESSES:  100701667 HITS:  100701632 MISSES:         35
L1I LOAD ACCESSES:  100701667 HITS:  100701632 MISSES:         35
L1I RFO ACCESSES:          0 HITS:          0 MISSES:          0
L1I PREFETCH ACCESSES:          0 HITS:          0 MISSES:          0
L1I WRITEBACK ACCESSES:          0 HITS:          0 MISSES:          0
L1I RQ ACCESS:  499999995
L1I RQ TO_CACHE:  100701667
L1I RQ MERGED:  399298328
L1I RQ FORWARD:          0
L1I WQ ACCESS:          0
L1I WQ TO_CACHE:          0
L1I WQ MERGED:          0
L1I WQ FORWARD:          0
L2C TOTAL     ACCESS:    5852534  HIT:    4009347  MISS:    1843187
L2C LOAD      ACCESS:    1872464  HIT:    1061494  MISS:     810970
L2C RFO       ACCESS:     205204  HIT:     100562  MISS:     104642
L2C PREFETCH  ACCESS:    2169230  HIT:    1246075  MISS:     923155
L2C WRITEBACK ACCESS:    1605636  HIT:    1601216  MISS:       4420
L2C PREFETCH  REQUESTED:      91706  ISSUED:      91706  USEFUL:      86442  USELESS:     836736
L2C TOTAL MSHR MERGED:       1053
L2C LOAD MSHR MERGED:        268
L2C RFO MSHR MERGED:          0
L2C PREFETCH MSHR MERGED:        785
L2C WRITEBACK MSHR MERGED:          0
L2C TOTAL ACCESSES:    5853927 HITS:    4009515 MISSES:    1844412
L2C LOAD ACCESSES:    1872588 HITS:    1061618 MISSES:     810970
L2C RFO ACCESSES:     205211 HITS:     100569 MISSES:     104642
L2C PREFETCH ACCESSES:    2170492 HITS:    1246112 MISSES:     924380
L2C WRITEBACK ACCESSES:    1605636 HITS:    1601216 MISSES:       4420
L2C RQ ACCESS:    2077799
L2C RQ TO_CACHE:    2077668
L2C RQ MERGED:          0
L2C RQ FORWARD:          0
L2C WQ ACCESS:    1605636
L2C WQ TO_CACHE:    1605636
L2C WQ MERGED:          0
L2C WQ FORWARD:        168
LLC TOTAL     ACCESS:    2673584  HIT:    2180383  MISS:     493201
LLC LOAD      ACCESS:     810692  HIT:     644169  MISS:     166523
LLC RFO       ACCESS:     104642  HIT:      60708  MISS:      43934
LLC PREFETCH  ACCESS:     923573  HIT:     669526  MISS:     254047
LLC WRITEBACK ACCESS:     834677  HIT:     805980  MISS:      28697
LLC PREFETCH  REQUESTED:          0  ISSUED:          0  USEFUL:       8145  USELESS:     246056
LLC TOTAL MSHR MERGED:          7
LLC LOAD MSHR MERGED:          0
LLC RFO MSHR MERGED:          0
LLC PREFETCH MSHR MERGED:          7
LLC WRITEBACK MSHR MERGED:          0
LLC TOTAL ACCESSES:    2673603 HITS:    2180395 MISSES:     493208
LLC LOAD ACCESSES:     810702 HITS:     644179 MISSES:     166523
LLC RFO ACCESSES:     104642 HITS:      60708 MISSES:      43934
LLC PREFETCH ACCESSES:     923582 HITS:     669528 MISSES:     254054
LLC WRITEBACK ACCESSES:     834677 HITS:     805980 MISSES:      28697
LLC 0 RQ ACCESS:     915344
LLC 0 RQ TO_CACHE:     915334
LLC 0 RQ MERGED:          0
LLC 0 RQ FORWARD:          0
LLC WQ ACCESS:     834677
LLC WQ TO_CACHE:     834677
LLC WQ MERGED:          0
LLC WQ FORWARD:         12
Major fault: 0 Minor fault: 11278
CPU 0 L1D next line prefetcher final stats
CPU 0 L2C PC-based stride prefetcher final stats
All Misses: 606662
All Hits: 2447940
SD Algo Stats - Switches: 0 SRR-Repls: 199752 BRR-Repls: 0

DRAM Statistics
 CHANNEL 0
 RQ ROW_BUFFER_HIT:      29521  ROW_BUFFER_MISS:     434672
 DBUS_CONGESTED:     343753
 WQ ROW_BUFFER_HIT:      13517  ROW_BUFFER_MISS:     195659  FULL:          0

 AVG_CONGESTED_CYCLE: 13
LOADS RETIRED: 121769268
INSTR RETIRED: 500000000
