
*** ChampSim Multicore Out-of-Order Simulator ***

Warmup Instructions: 100000000
Simulation Instructions: 500000000
Number of CPUs: 1
LLC sets: 2048
LLC ways: 16
Clean RRIP Policies: 2213231222132312 Dirty RRIP Policies: 2203130222031302 PSEL Width: 10 Track Set: 4294967295 PSEL Mask: 1 Demote Mask: 3040100030401000DS Algo: 0Window size: 0
Off-chip DRAM Size: 4096 MB Channels: 1 Width: 64-bit Data Rate: 1600 MT/s

CPU 0 runs /mnt/beegfs/iconst01/spec2017/cactuBSSN.trace.gz
NOT SORTED
TRACE STRING: /mnt/beegfs/iconst01/spec2017/cactuBSSN.trace.gz
SORTED
TRACE STRING: /mnt/beegfs/iconst01/spec2017/cactuBSSN.trace.gz
INITIAL
TRACE STRING: /mnt/beegfs/iconst01/spec2017/cactuBSSN.trace.gz

champsim_seed used: 838

CPU 0 L1D next line prefetcher
CPU 0 L2C IP-based stride prefetcher
Initialize DRRIP state
Assign rand_sets[0]: 454  LLC: 2048
rand_sets[0]: 454
Assign rand_sets[1]: 1662  LLC: 2048
rand_sets[1]: 1662
Assign rand_sets[2]: 1921  LLC: 2048
rand_sets[2]: 1921
Assign rand_sets[3]: 1131  LLC: 2048
rand_sets[3]: 1131
Assign rand_sets[4]: 331  LLC: 2048
rand_sets[4]: 331
Assign rand_sets[5]: 1531  LLC: 2048
rand_sets[5]: 1531
Assign rand_sets[6]: 482  LLC: 2048
rand_sets[6]: 482
Assign rand_sets[7]: 1275  LLC: 2048
rand_sets[7]: 1275
Assign rand_sets[8]: 1876  LLC: 2048
rand_sets[8]: 1876
Assign rand_sets[9]: 2038  LLC: 2048
rand_sets[9]: 2038
Assign rand_sets[10]: 701  LLC: 2048
rand_sets[10]: 701
Assign rand_sets[11]: 479  LLC: 2048
rand_sets[11]: 479
Assign rand_sets[12]: 892  LLC: 2048
rand_sets[12]: 892
Assign rand_sets[13]: 1820  LLC: 2048
rand_sets[13]: 1820
Assign rand_sets[14]: 1505  LLC: 2048
rand_sets[14]: 1505
Assign rand_sets[15]: 1159  LLC: 2048
rand_sets[15]: 1159
Assign rand_sets[16]: 513  LLC: 2048
rand_sets[16]: 513
Assign rand_sets[17]: 703  LLC: 2048
rand_sets[17]: 703
Assign rand_sets[18]: 561  LLC: 2048
rand_sets[18]: 561
Assign rand_sets[19]: 990  LLC: 2048
rand_sets[19]: 990
Assign rand_sets[20]: 342  LLC: 2048
rand_sets[20]: 342
Assign rand_sets[21]: 882  LLC: 2048
rand_sets[21]: 882
Assign rand_sets[22]: 15  LLC: 2048
rand_sets[22]: 15
Assign rand_sets[23]: 71  LLC: 2048
rand_sets[23]: 71
Assign rand_sets[24]: 1127  LLC: 2048
rand_sets[24]: 1127
Assign rand_sets[25]: 1382  LLC: 2048
rand_sets[25]: 1382
Assign rand_sets[26]: 647  LLC: 2048
rand_sets[26]: 647
Assign rand_sets[27]: 857  LLC: 2048
rand_sets[27]: 857
Assign rand_sets[28]: 1450  LLC: 2048
rand_sets[28]: 1450
Assign rand_sets[29]: 1160  LLC: 2048
rand_sets[29]: 1160
Assign rand_sets[30]: 1852  LLC: 2048
rand_sets[30]: 1852
Assign rand_sets[31]: 1881  LLC: 2048
rand_sets[31]: 1881
Assign rand_sets[32]: 1770  LLC: 2048
rand_sets[32]: 1770
Assign rand_sets[33]: 1622  LLC: 2048
rand_sets[33]: 1622
Assign rand_sets[34]: 275  LLC: 2048
rand_sets[34]: 275
Assign rand_sets[35]: 635  LLC: 2048
rand_sets[35]: 635
Assign rand_sets[36]: 466  LLC: 2048
rand_sets[36]: 466
Assign rand_sets[37]: 1413  LLC: 2048
rand_sets[37]: 1413
Assign rand_sets[38]: 417  LLC: 2048
rand_sets[38]: 417
Assign rand_sets[39]: 472  LLC: 2048
rand_sets[39]: 472
Assign rand_sets[40]: 1340  LLC: 2048
rand_sets[40]: 1340
Assign rand_sets[41]: 852  LLC: 2048
rand_sets[41]: 852
Assign rand_sets[42]: 1365  LLC: 2048
rand_sets[42]: 1365
Assign rand_sets[43]: 47  LLC: 2048
rand_sets[43]: 47
Assign rand_sets[44]: 823  LLC: 2048
rand_sets[44]: 823
Assign rand_sets[45]: 686  LLC: 2048
rand_sets[45]: 686
Assign rand_sets[46]: 1637  LLC: 2048
rand_sets[46]: 1637
Assign rand_sets[47]: 1115  LLC: 2048
rand_sets[47]: 1115
Assign rand_sets[48]: 986  LLC: 2048
rand_sets[48]: 986
Assign rand_sets[49]: 258  LLC: 2048
rand_sets[49]: 258
Assign rand_sets[50]: 633  LLC: 2048
rand_sets[50]: 633
Assign rand_sets[51]: 920  LLC: 2048
rand_sets[51]: 920
Assign rand_sets[52]: 204  LLC: 2048
rand_sets[52]: 204
Assign rand_sets[53]: 227  LLC: 2048
rand_sets[53]: 227
Assign rand_sets[54]: 1818  LLC: 2048
rand_sets[54]: 1818
Assign rand_sets[55]: 886  LLC: 2048
rand_sets[55]: 886
Assign rand_sets[56]: 1422  LLC: 2048
rand_sets[56]: 1422
Assign rand_sets[57]: 607  LLC: 2048
rand_sets[57]: 607
Assign rand_sets[58]: 217  LLC: 2048
rand_sets[58]: 217
Assign rand_sets[59]: 1945  LLC: 2048
rand_sets[59]: 1945
Assign rand_sets[60]: 143  LLC: 2048
rand_sets[60]: 143
Assign rand_sets[61]: 1311  LLC: 2048
rand_sets[61]: 1311
Assign rand_sets[62]: 319  LLC: 2048
rand_sets[62]: 319
Assign rand_sets[63]: 1846  LLC: 2048
rand_sets[63]: 1846
 CLEAN-RRIP-POLICY-1: 2-2-1-3-2-3-1-2- CLEAN-RRIP-POLICY-2: 2-2-1-3-2-3-1-2-
 DIRTY-RRIP-POLICY-1: 2-2-0-3-1-3-0-2- DIRTY-RRIP-POLICY-2: 2-2-0-3-1-3-0-2-
 PSEL width: 10
Heartbeat CPU 0 instructions: 10000000 cycles: 6588002 heartbeat IPC: 1.51791 cumulative IPC: 1.51791 (Simulation time: 0 hr 0 min 24 sec) 
Heartbeat CPU 0 instructions: 20000000 cycles: 13179595 heartbeat IPC: 1.51708 cumulative IPC: 1.5175 (Simulation time: 0 hr 0 min 48 sec) 
Heartbeat CPU 0 instructions: 30000003 cycles: 19772915 heartbeat IPC: 1.51669 cumulative IPC: 1.51723 (Simulation time: 0 hr 1 min 12 sec) 
Heartbeat CPU 0 instructions: 40000000 cycles: 26364660 heartbeat IPC: 1.51705 cumulative IPC: 1.51718 (Simulation time: 0 hr 1 min 36 sec) 
Heartbeat CPU 0 instructions: 50000001 cycles: 32957330 heartbeat IPC: 1.51684 cumulative IPC: 1.51711 (Simulation time: 0 hr 2 min 0 sec) 
Heartbeat CPU 0 instructions: 60000000 cycles: 39556151 heartbeat IPC: 1.51542 cumulative IPC: 1.51683 (Simulation time: 0 hr 2 min 25 sec) 
Heartbeat CPU 0 instructions: 70000003 cycles: 46154506 heartbeat IPC: 1.51553 cumulative IPC: 1.51665 (Simulation time: 0 hr 2 min 49 sec) 
Heartbeat CPU 0 instructions: 80000000 cycles: 52752563 heartbeat IPC: 1.5156 cumulative IPC: 1.51651 (Simulation time: 0 hr 3 min 13 sec) 
Heartbeat CPU 0 instructions: 90000002 cycles: 59348220 heartbeat IPC: 1.51615 cumulative IPC: 1.51647 (Simulation time: 0 hr 3 min 38 sec) 
Heartbeat CPU 0 instructions: 100000000 cycles: 65943270 heartbeat IPC: 1.51629 cumulative IPC: 1.51645 (Simulation time: 0 hr 4 min 2 sec) 

Warmup complete CPU 0 instructions: 100000002 cycles: 65943271 (Simulation time: 0 hr 4 min 2 sec) 

Heartbeat CPU 0 instructions: 110000000 cycles: 79181705 heartbeat IPC: 0.755376 cumulative IPC: 0.755376 (Simulation time: 0 hr 4 min 32 sec) 
Heartbeat CPU 0 instructions: 120000000 cycles: 92381220 heartbeat IPC: 0.757604 cumulative IPC: 0.756488 (Simulation time: 0 hr 5 min 1 sec) 
Heartbeat CPU 0 instructions: 130000001 cycles: 105648463 heartbeat IPC: 0.753736 cumulative IPC: 0.755569 (Simulation time: 0 hr 5 min 31 sec) 
Heartbeat CPU 0 instructions: 140000000 cycles: 118828109 heartbeat IPC: 0.758746 cumulative IPC: 0.75636 (Simulation time: 0 hr 6 min 1 sec) 
Heartbeat CPU 0 instructions: 150000001 cycles: 132010354 heartbeat IPC: 0.758596 cumulative IPC: 0.756806 (Simulation time: 0 hr 6 min 30 sec) 
Heartbeat CPU 0 instructions: 160000000 cycles: 145238906 heartbeat IPC: 0.755941 cumulative IPC: 0.756662 (Simulation time: 0 hr 7 min 0 sec) 
Heartbeat CPU 0 instructions: 170000000 cycles: 158452117 heartbeat IPC: 0.756818 cumulative IPC: 0.756684 (Simulation time: 0 hr 7 min 30 sec) 
Heartbeat CPU 0 instructions: 180000000 cycles: 171647201 heartbeat IPC: 0.757858 cumulative IPC: 0.756831 (Simulation time: 0 hr 8 min 0 sec) 
Heartbeat CPU 0 instructions: 190000000 cycles: 184806618 heartbeat IPC: 0.759912 cumulative IPC: 0.757172 (Simulation time: 0 hr 8 min 29 sec) 
Heartbeat CPU 0 instructions: 200000000 cycles: 198065750 heartbeat IPC: 0.754197 cumulative IPC: 0.756873 (Simulation time: 0 hr 8 min 59 sec) 
Heartbeat CPU 0 instructions: 210000002 cycles: 211278347 heartbeat IPC: 0.756854 cumulative IPC: 0.756872 (Simulation time: 0 hr 9 min 29 sec) 
Heartbeat CPU 0 instructions: 220000000 cycles: 224455136 heartbeat IPC: 0.75891 cumulative IPC: 0.757041 (Simulation time: 0 hr 9 min 58 sec) 
Heartbeat CPU 0 instructions: 230000003 cycles: 237702939 heartbeat IPC: 0.754842 cumulative IPC: 0.756872 (Simulation time: 0 hr 10 min 28 sec) 
Heartbeat CPU 0 instructions: 240000000 cycles: 250886143 heartbeat IPC: 0.758541 cumulative IPC: 0.75699 (Simulation time: 0 hr 10 min 58 sec) 
Heartbeat CPU 0 instructions: 250000001 cycles: 264110623 heartbeat IPC: 0.756173 cumulative IPC: 0.756936 (Simulation time: 0 hr 11 min 27 sec) 
Heartbeat CPU 0 instructions: 260000000 cycles: 277324690 heartbeat IPC: 0.756769 cumulative IPC: 0.756926 (Simulation time: 0 hr 11 min 57 sec) 
Heartbeat CPU 0 instructions: 270000003 cycles: 290564375 heartbeat IPC: 0.755305 cumulative IPC: 0.75683 (Simulation time: 0 hr 12 min 26 sec) 
Heartbeat CPU 0 instructions: 280000000 cycles: 303764952 heartbeat IPC: 0.757542 cumulative IPC: 0.75687 (Simulation time: 0 hr 12 min 55 sec) 
Heartbeat CPU 0 instructions: 290000000 cycles: 316934998 heartbeat IPC: 0.759299 cumulative IPC: 0.756997 (Simulation time: 0 hr 13 min 24 sec) 
Heartbeat CPU 0 instructions: 300000000 cycles: 330191677 heartbeat IPC: 0.754337 cumulative IPC: 0.756864 (Simulation time: 0 hr 13 min 54 sec) 
Heartbeat CPU 0 instructions: 310000001 cycles: 343365365 heartbeat IPC: 0.759089 cumulative IPC: 0.756969 (Simulation time: 0 hr 14 min 23 sec) 
Heartbeat CPU 0 instructions: 320000000 cycles: 356559049 heartbeat IPC: 0.757938 cumulative IPC: 0.757013 (Simulation time: 0 hr 14 min 52 sec) 
Heartbeat CPU 0 instructions: 330000002 cycles: 369753843 heartbeat IPC: 0.757875 cumulative IPC: 0.757051 (Simulation time: 0 hr 15 min 21 sec) 
Heartbeat CPU 0 instructions: 340000000 cycles: 382993959 heartbeat IPC: 0.75528 cumulative IPC: 0.756977 (Simulation time: 0 hr 15 min 50 sec) 
Heartbeat CPU 0 instructions: 350000000 cycles: 396239314 heartbeat IPC: 0.754982 cumulative IPC: 0.756897 (Simulation time: 0 hr 16 min 19 sec) 
Heartbeat CPU 0 instructions: 360000000 cycles: 409456224 heartbeat IPC: 0.756607 cumulative IPC: 0.756886 (Simulation time: 0 hr 16 min 48 sec) 
Heartbeat CPU 0 instructions: 370000002 cycles: 422731097 heartbeat IPC: 0.753303 cumulative IPC: 0.756752 (Simulation time: 0 hr 17 min 17 sec) 
Heartbeat CPU 0 instructions: 380000000 cycles: 435937753 heartbeat IPC: 0.757194 cumulative IPC: 0.756768 (Simulation time: 0 hr 17 min 46 sec) 
Heartbeat CPU 0 instructions: 390000000 cycles: 449115084 heartbeat IPC: 0.758879 cumulative IPC: 0.756841 (Simulation time: 0 hr 18 min 15 sec) 
Heartbeat CPU 0 instructions: 400000000 cycles: 462310996 heartbeat IPC: 0.75781 cumulative IPC: 0.756873 (Simulation time: 0 hr 18 min 44 sec) 
Heartbeat CPU 0 instructions: 410000001 cycles: 475562953 heartbeat IPC: 0.754606 cumulative IPC: 0.7568 (Simulation time: 0 hr 19 min 12 sec) 
Heartbeat CPU 0 instructions: 420000000 cycles: 488747113 heartbeat IPC: 0.758486 cumulative IPC: 0.756852 (Simulation time: 0 hr 19 min 41 sec) 
Heartbeat CPU 0 instructions: 430000001 cycles: 501928884 heartbeat IPC: 0.758623 cumulative IPC: 0.756906 (Simulation time: 0 hr 20 min 10 sec) 
Heartbeat CPU 0 instructions: 440000000 cycles: 515091431 heartbeat IPC: 0.759731 cumulative IPC: 0.756989 (Simulation time: 0 hr 20 min 39 sec) 
Heartbeat CPU 0 instructions: 450000002 cycles: 528398974 heartbeat IPC: 0.751454 cumulative IPC: 0.756829 (Simulation time: 0 hr 21 min 8 sec) 
Heartbeat CPU 0 instructions: 460000000 cycles: 541617290 heartbeat IPC: 0.756526 cumulative IPC: 0.756821 (Simulation time: 0 hr 21 min 37 sec) 
Heartbeat CPU 0 instructions: 470000003 cycles: 554809293 heartbeat IPC: 0.758035 cumulative IPC: 0.756854 (Simulation time: 0 hr 22 min 6 sec) 
Heartbeat CPU 0 instructions: 480000000 cycles: 568049176 heartbeat IPC: 0.755293 cumulative IPC: 0.756812 (Simulation time: 0 hr 22 min 35 sec) 
Heartbeat CPU 0 instructions: 490000000 cycles: 581258007 heartbeat IPC: 0.757069 cumulative IPC: 0.756819 (Simulation time: 0 hr 23 min 4 sec) 
Heartbeat CPU 0 instructions: 500000000 cycles: 594452497 heartbeat IPC: 0.757892 cumulative IPC: 0.756846 (Simulation time: 0 hr 23 min 32 sec) 
Heartbeat CPU 0 instructions: 510000001 cycles: 607624469 heartbeat IPC: 0.759188 cumulative IPC: 0.756903 (Simulation time: 0 hr 24 min 1 sec) 
Heartbeat CPU 0 instructions: 520000000 cycles: 620906877 heartbeat IPC: 0.752875 cumulative IPC: 0.756806 (Simulation time: 0 hr 24 min 30 sec) 
Heartbeat CPU 0 instructions: 530000000 cycles: 634156306 heartbeat IPC: 0.754749 cumulative IPC: 0.756758 (Simulation time: 0 hr 24 min 59 sec) 
Heartbeat CPU 0 instructions: 540000000 cycles: 647382761 heartbeat IPC: 0.75606 cumulative IPC: 0.756743 (Simulation time: 0 hr 25 min 28 sec) 
Heartbeat CPU 0 instructions: 550000002 cycles: 660638127 heartbeat IPC: 0.754412 cumulative IPC: 0.756691 (Simulation time: 0 hr 25 min 57 sec) 
Heartbeat CPU 0 instructions: 560000000 cycles: 673825791 heartbeat IPC: 0.758284 cumulative IPC: 0.756725 (Simulation time: 0 hr 26 min 26 sec) 
Heartbeat CPU 0 instructions: 570000001 cycles: 687026986 heartbeat IPC: 0.757507 cumulative IPC: 0.756742 (Simulation time: 0 hr 26 min 54 sec) 
Heartbeat CPU 0 instructions: 580000000 cycles: 700222088 heartbeat IPC: 0.757857 cumulative IPC: 0.756765 (Simulation time: 0 hr 27 min 23 sec) 
Heartbeat CPU 0 instructions: 590000003 cycles: 713458868 heartbeat IPC: 0.755471 cumulative IPC: 0.756739 (Simulation time: 0 hr 27 min 52 sec) 
Heartbeat CPU 0 instructions: 600000000 cycles: 726713466 heartbeat IPC: 0.754455 cumulative IPC: 0.756693 (Simulation time: 0 hr 28 min 21 sec) 
Finished CPU 0 instructions: 500000000 cycles: 660770205 cumulative IPC: 0.756693 (Simulation time: 0 hr 28 min 21 sec) 

CPU 0 Branch Prediction Accuracy: 99.968% MPKI: 0.002246
Number of Branches: 3513331 Number of Mispredictions: 1123
Number of LOAD Instructions: 287251172
Number of LOAD Instructions (ROI): 287251172
Number of STORE Instructions: 51060820
Number of STORE Instructions (ROI): 51060820
Total Destination Memory Operands: 51166221
Total Destination Memory Operands (ROI): 51166221
Total Source Memory Operands: 287251172
Total Source Memory Operands (ROI): 287251172
Number of DEPENDED LOADS: 9555467
Number of DEPENDED LOADS (ROI): 9555467
Number of SQ_ADDED: 51166208
Number of SQ_ADDED (ROI): 51166208
Number of LQ_ADDED: 290419920
Number of LQ_ADDED (ROI): 290419920
Number of Instructions read from trace: 600000257

ChampSim completed all CPUs

Region of Interest Statistics

CPU 0 cumulative IPC: 0.756693 instructions: 500000000 cycles: 660770205
ITLB TOTAL     ACCESS:  108949987  HIT:  108949987  MISS:          0
ITLB LOAD      ACCESS:  108949987  HIT:  108949987  MISS:          0
ITLB RFO       ACCESS:          0  HIT:          0  MISS:          0
ITLB PREFETCH  ACCESS:          0  HIT:          0  MISS:          0
ITLB WRITEBACK ACCESS:          0  HIT:          0  MISS:          0
ITLB PREFETCH  REQUESTED:          0  ISSUED:          0  USEFUL:          0  USELESS:          0
ITLB TOTAL MSHR MERGED:          0
ITLB LOAD MSHR MERGED:          0
ITLB RFO MSHR MERGED:          0
ITLB PREFETCH MSHR MERGED:          0
ITLB WRITEBACK MSHR MERGED:          0
ITLB TOTAL ACCESSES:  108949987 HITS:  108949987 MISSES:          0
ITLB LOAD ACCESSES:  108949987 HITS:  108949987 MISSES:          0
ITLB RFO ACCESSES:          0 HITS:          0 MISSES:          0
ITLB PREFETCH ACCESSES:          0 HITS:          0 MISSES:          0
ITLB WRITEBACK ACCESSES:          0 HITS:          0 MISSES:          0
ITLB RQ ACCESS:  500000001
ITLB RQ TO_CACHE:  108949987
ITLB RQ MERGED:  391050014
ITLB RQ FORWARD:          0
ITLB WQ ACCESS:          0
ITLB WQ TO_CACHE:          0
ITLB WQ MERGED:          0
ITLB WQ FORWARD:          0
DTLB TOTAL     ACCESS:  171131109  HIT:  161114777  MISS:   10016332
DTLB LOAD      ACCESS:  143471830  HIT:  135595748  MISS:    7876082
DTLB RFO       ACCESS:   27659279  HIT:   25519029  MISS:    2140250
DTLB PREFETCH  ACCESS:          0  HIT:          0  MISS:          0
DTLB WRITEBACK ACCESS:          0  HIT:          0  MISS:          0
DTLB PREFETCH  REQUESTED:          0  ISSUED:          0  USEFUL:          0  USELESS:          0
DTLB TOTAL MSHR MERGED:     360453
DTLB LOAD MSHR MERGED:     360453
DTLB RFO MSHR MERGED:          0
DTLB PREFETCH MSHR MERGED:          0
DTLB WRITEBACK MSHR MERGED:          0
DTLB TOTAL ACCESSES:  171491562 HITS:  161114777 MISSES:   10376785
DTLB LOAD ACCESSES:  143832283 HITS:  135595748 MISSES:    8236535
DTLB RFO ACCESSES:   27659279 HITS:   25519029 MISSES:    2140250
DTLB PREFETCH ACCESSES:          0 HITS:          0 MISSES:          0
DTLB WRITEBACK ACCESSES:          0 HITS:          0 MISSES:          0
DTLB RQ ACCESS:  274072350
DTLB RQ TO_CACHE:  171491562
DTLB RQ MERGED:  102580788
DTLB RQ FORWARD:          0
DTLB WQ ACCESS:          0
DTLB WQ TO_CACHE:          0
DTLB WQ MERGED:          0
DTLB WQ FORWARD:          0
L1D TOTAL     ACCESS:  350958285  HIT:  283759107  MISS:   67199178
L1D LOAD      ACCESS:  175627598  HIT:  142588414  MISS:   33039184
L1D RFO       ACCESS:   42020564  HIT:   39215199  MISS:    2805365
L1D PREFETCH  ACCESS:  133310123  HIT:  101955494  MISS:   31354629
L1D WRITEBACK ACCESS:          0  HIT:          0  MISS:          0
L1D PREFETCH  REQUESTED:  176231668  ISSUED:  175293515  USEFUL:    2180737  USELESS:   29173894
L1D TOTAL MSHR MERGED:    1482359
L1D LOAD MSHR MERGED:     704051
L1D RFO MSHR MERGED:     348579
L1D PREFETCH MSHR MERGED:     429729
L1D WRITEBACK MSHR MERGED:          0
L1D TOTAL ACCESSES:  352552444 HITS:  283870907 MISSES:   68681537
L1D LOAD ACCESSES:  176237631 HITS:  142594377 MISSES:   33643254
L1D RFO ACCESSES:   42368475 HITS:   39215199 MISSES:    3153276
L1D PREFETCH ACCESSES:  133946338 HITS:  102061331 MISSES:   31885007
L1D WRITEBACK ACCESSES:          0 HITS:          0 MISSES:          0
L1D RQ ACCESS:  231433877
L1D RQ TO_CACHE:  176231668
L1D RQ MERGED:   55196246
L1D RQ FORWARD:          0
L1D WQ ACCESS:   42638475
L1D WQ TO_CACHE:   42368475
L1D WQ MERGED:     270000
L1D WQ FORWARD:     111800
L1I TOTAL     ACCESS:  109343233  HIT:   77827529  MISS:   31515704
L1I LOAD      ACCESS:  109343233  HIT:   77827529  MISS:   31515704
L1I RFO       ACCESS:          0  HIT:          0  MISS:          0
L1I PREFETCH  ACCESS:          0  HIT:          0  MISS:          0
L1I WRITEBACK ACCESS:          0  HIT:          0  MISS:          0
L1I PREFETCH  REQUESTED:          0  ISSUED:          0  USEFUL:          0  USELESS:          0
L1I TOTAL MSHR MERGED:   30750656
L1I LOAD MSHR MERGED:   30750656
L1I RFO MSHR MERGED:          0
L1I PREFETCH MSHR MERGED:          0
L1I WRITEBACK MSHR MERGED:          0
L1I TOTAL ACCESSES:  140093891 HITS:   77827529 MISSES:   62266362
L1I LOAD ACCESSES:  140093891 HITS:   77827529 MISSES:   62266362
L1I RFO ACCESSES:          0 HITS:          0 MISSES:          0
L1I PREFETCH ACCESSES:          0 HITS:          0 MISSES:          0
L1I WRITEBACK ACCESSES:          0 HITS:          0 MISSES:          0
L1I RQ ACCESS:  500000003
L1I RQ TO_CACHE:  140093891
L1I RQ MERGED:  359906112
L1I RQ FORWARD:          0
L1I WQ ACCESS:          0
L1I WQ TO_CACHE:          0
L1I WQ MERGED:          0
L1I WQ FORWARD:          0
L2C TOTAL     ACCESS:  113701755  HIT:  110699046  MISS:    3002709
L2C LOAD      ACCESS:   64453046  HIT:   63892387  MISS:     560659
L2C RFO       ACCESS:    2802806  HIT:    2193301  MISS:     609505
L2C PREFETCH  ACCESS:   43284946  HIT:   41458672  MISS:    1826274
L2C WRITEBACK ACCESS:    3160957  HIT:    3154686  MISS:       6271
L2C PREFETCH  REQUESTED:   15134427  ISSUED:   14619579  USEFUL:    1701089  USELESS:     125191
L2C TOTAL MSHR MERGED:      12718
L2C LOAD MSHR MERGED:          0
L2C RFO MSHR MERGED:          0
L2C PREFETCH MSHR MERGED:      12718
L2C WRITEBACK MSHR MERGED:          0
L2C TOTAL ACCESSES:  113902127 HITS:  110704907 MISSES:    3197220
L2C LOAD ACCESSES:   64454908 HITS:   63894248 MISSES:     560660
L2C RFO ACCESSES:    2804697 HITS:    2195192 MISSES:     609505
L2C PREFETCH ACCESSES:   43481565 HITS:   41460781 MISSES:    2020784
L2C WRITEBACK ACCESSES:    3160957 HITS:    3154686 MISSES:       6271
L2C RQ ACCESS:   67259606
L2C RQ TO_CACHE:   67255854
L2C RQ MERGED:          0
L2C RQ FORWARD:          0
L2C WQ ACCESS:    3160957
L2C WQ TO_CACHE:    3160957
L2C WQ MERGED:          0
L2C WQ FORWARD:       5861
LLC TOTAL     ACCESS:    3709674  HIT:    1877199  MISS:    1832475
LLC LOAD      ACCESS:     560629  HIT:     497398  MISS:      63231
LLC RFO       ACCESS:     527407  HIT:     239277  MISS:     288130
LLC PREFETCH  ACCESS:    2003106  HIT:     668585  MISS:    1334521
LLC WRITEBACK ACCESS:     618532  HIT:     471939  MISS:     146593
LLC PREFETCH  REQUESTED:          0  ISSUED:          0  USEFUL:      44445  USELESS:    1282991
LLC TOTAL MSHR MERGED:       4254
LLC LOAD MSHR MERGED:          0
LLC RFO MSHR MERGED:          0
LLC PREFETCH MSHR MERGED:       4254
LLC WRITEBACK MSHR MERGED:          0
LLC TOTAL ACCESSES:    3796142 HITS:    1959413 MISSES:    1836729
LLC LOAD ACCESSES:     560659 HITS:     497428 MISSES:      63231
LLC RFO ACCESSES:     609505 HITS:     321375 MISSES:     288130
LLC PREFETCH ACCESSES:    2007446 HITS:     668671 MISSES:    1338775
LLC WRITEBACK ACCESSES:     618532 HITS:     471939 MISSES:     146593
LLC 0 RQ ACCESS:    1170165
LLC 0 RQ TO_CACHE:    1088037
LLC 0 RQ MERGED:          0
LLC 0 RQ FORWARD:          0
LLC WQ ACCESS:     618532
LLC WQ TO_CACHE:     618532
LLC WQ MERGED:          0
LLC WQ FORWARD:      82214
Major fault: 0 Minor fault: 12800
CPU 0 L1D next line prefetcher final stats
CPU 0 L2C PC-based stride prefetcher final stats
All Misses: 2228510
All Hits: 2332114
SD Algo Stats - Switches: 0 SRR-Repls: 80492 BRR-Repls: 0

DRAM Statistics
 CHANNEL 0
 RQ ROW_BUFFER_HIT:     828688  ROW_BUFFER_MISS:     857162
 DBUS_CONGESTED:     892220
 WQ ROW_BUFFER_HIT:      31270  ROW_BUFFER_MISS:     261012  FULL:          0

 AVG_CONGESTED_CYCLE: 13
LOADS RETIRED: 239375970
INSTR RETIRED: 500000000
