
*** ChampSim Multicore Out-of-Order Simulator ***

Warmup Instructions: 100000000
Simulation Instructions: 500000000
Number of CPUs: 1
LLC sets: 2048
LLC ways: 16
Clean RRIP Policies: 2213230222132302 Dirty RRIP Policies: 1203130212031302 PSEL Width: 10 Track Set: 4294967295 PSEL Mask: 1 Demote Mask: 1240100012401000DS Algo: 0Window size: 0
Off-chip DRAM Size: 4096 MB Channels: 1 Width: 64-bit Data Rate: 1600 MT/s

CPU 0 runs /mnt/beegfs/iconst01/spec2017/Cam4.trace.gz
NOT SORTED
TRACE STRING: /mnt/beegfs/iconst01/spec2017/Cam4.trace.gz
SORTED
TRACE STRING: /mnt/beegfs/iconst01/spec2017/Cam4.trace.gz
INITIAL
TRACE STRING: /mnt/beegfs/iconst01/spec2017/Cam4.trace.gz

champsim_seed used: 325

CPU 0 L1D next line prefetcher
CPU 0 L2C IP-based stride prefetcher
Initialize DRRIP state
Assign rand_sets[0]: 454  LLC: 2048
rand_sets[0]: 454
Assign rand_sets[1]: 1662  LLC: 2048
rand_sets[1]: 1662
Assign rand_sets[2]: 1921  LLC: 2048
rand_sets[2]: 1921
Assign rand_sets[3]: 1131  LLC: 2048
rand_sets[3]: 1131
Assign rand_sets[4]: 331  LLC: 2048
rand_sets[4]: 331
Assign rand_sets[5]: 1531  LLC: 2048
rand_sets[5]: 1531
Assign rand_sets[6]: 482  LLC: 2048
rand_sets[6]: 482
Assign rand_sets[7]: 1275  LLC: 2048
rand_sets[7]: 1275
Assign rand_sets[8]: 1876  LLC: 2048
rand_sets[8]: 1876
Assign rand_sets[9]: 2038  LLC: 2048
rand_sets[9]: 2038
Assign rand_sets[10]: 701  LLC: 2048
rand_sets[10]: 701
Assign rand_sets[11]: 479  LLC: 2048
rand_sets[11]: 479
Assign rand_sets[12]: 892  LLC: 2048
rand_sets[12]: 892
Assign rand_sets[13]: 1820  LLC: 2048
rand_sets[13]: 1820
Assign rand_sets[14]: 1505  LLC: 2048
rand_sets[14]: 1505
Assign rand_sets[15]: 1159  LLC: 2048
rand_sets[15]: 1159
Assign rand_sets[16]: 513  LLC: 2048
rand_sets[16]: 513
Assign rand_sets[17]: 703  LLC: 2048
rand_sets[17]: 703
Assign rand_sets[18]: 561  LLC: 2048
rand_sets[18]: 561
Assign rand_sets[19]: 990  LLC: 2048
rand_sets[19]: 990
Assign rand_sets[20]: 342  LLC: 2048
rand_sets[20]: 342
Assign rand_sets[21]: 882  LLC: 2048
rand_sets[21]: 882
Assign rand_sets[22]: 15  LLC: 2048
rand_sets[22]: 15
Assign rand_sets[23]: 71  LLC: 2048
rand_sets[23]: 71
Assign rand_sets[24]: 1127  LLC: 2048
rand_sets[24]: 1127
Assign rand_sets[25]: 1382  LLC: 2048
rand_sets[25]: 1382
Assign rand_sets[26]: 647  LLC: 2048
rand_sets[26]: 647
Assign rand_sets[27]: 857  LLC: 2048
rand_sets[27]: 857
Assign rand_sets[28]: 1450  LLC: 2048
rand_sets[28]: 1450
Assign rand_sets[29]: 1160  LLC: 2048
rand_sets[29]: 1160
Assign rand_sets[30]: 1852  LLC: 2048
rand_sets[30]: 1852
Assign rand_sets[31]: 1881  LLC: 2048
rand_sets[31]: 1881
Assign rand_sets[32]: 1770  LLC: 2048
rand_sets[32]: 1770
Assign rand_sets[33]: 1622  LLC: 2048
rand_sets[33]: 1622
Assign rand_sets[34]: 275  LLC: 2048
rand_sets[34]: 275
Assign rand_sets[35]: 635  LLC: 2048
rand_sets[35]: 635
Assign rand_sets[36]: 466  LLC: 2048
rand_sets[36]: 466
Assign rand_sets[37]: 1413  LLC: 2048
rand_sets[37]: 1413
Assign rand_sets[38]: 417  LLC: 2048
rand_sets[38]: 417
Assign rand_sets[39]: 472  LLC: 2048
rand_sets[39]: 472
Assign rand_sets[40]: 1340  LLC: 2048
rand_sets[40]: 1340
Assign rand_sets[41]: 852  LLC: 2048
rand_sets[41]: 852
Assign rand_sets[42]: 1365  LLC: 2048
rand_sets[42]: 1365
Assign rand_sets[43]: 47  LLC: 2048
rand_sets[43]: 47
Assign rand_sets[44]: 823  LLC: 2048
rand_sets[44]: 823
Assign rand_sets[45]: 686  LLC: 2048
rand_sets[45]: 686
Assign rand_sets[46]: 1637  LLC: 2048
rand_sets[46]: 1637
Assign rand_sets[47]: 1115  LLC: 2048
rand_sets[47]: 1115
Assign rand_sets[48]: 986  LLC: 2048
rand_sets[48]: 986
Assign rand_sets[49]: 258  LLC: 2048
rand_sets[49]: 258
Assign rand_sets[50]: 633  LLC: 2048
rand_sets[50]: 633
Assign rand_sets[51]: 920  LLC: 2048
rand_sets[51]: 920
Assign rand_sets[52]: 204  LLC: 2048
rand_sets[52]: 204
Assign rand_sets[53]: 227  LLC: 2048
rand_sets[53]: 227
Assign rand_sets[54]: 1818  LLC: 2048
rand_sets[54]: 1818
Assign rand_sets[55]: 886  LLC: 2048
rand_sets[55]: 886
Assign rand_sets[56]: 1422  LLC: 2048
rand_sets[56]: 1422
Assign rand_sets[57]: 607  LLC: 2048
rand_sets[57]: 607
Assign rand_sets[58]: 217  LLC: 2048
rand_sets[58]: 217
Assign rand_sets[59]: 1945  LLC: 2048
rand_sets[59]: 1945
Assign rand_sets[60]: 143  LLC: 2048
rand_sets[60]: 143
Assign rand_sets[61]: 1311  LLC: 2048
rand_sets[61]: 1311
Assign rand_sets[62]: 319  LLC: 2048
rand_sets[62]: 319
Assign rand_sets[63]: 1846  LLC: 2048
rand_sets[63]: 1846
 CLEAN-RRIP-POLICY-1: 2-2-1-3-2-3-0-2- CLEAN-RRIP-POLICY-2: 2-2-1-3-2-3-0-2-
 DIRTY-RRIP-POLICY-1: 1-2-0-3-1-3-0-2- DIRTY-RRIP-POLICY-2: 1-2-0-3-1-3-0-2-
 PSEL width: 10
Heartbeat CPU 0 instructions: 10000000 cycles: 4859184 heartbeat IPC: 2.05796 cumulative IPC: 2.05796 (Simulation time: 0 hr 0 min 16 sec) 
Heartbeat CPU 0 instructions: 20000000 cycles: 9790786 heartbeat IPC: 2.02774 cumulative IPC: 2.04274 (Simulation time: 0 hr 0 min 32 sec) 
Heartbeat CPU 0 instructions: 30000001 cycles: 14562956 heartbeat IPC: 2.09548 cumulative IPC: 2.06002 (Simulation time: 0 hr 0 min 47 sec) 
Heartbeat CPU 0 instructions: 40000000 cycles: 19399962 heartbeat IPC: 2.06739 cumulative IPC: 2.06186 (Simulation time: 0 hr 1 min 3 sec) 
Heartbeat CPU 0 instructions: 50000000 cycles: 24256475 heartbeat IPC: 2.05909 cumulative IPC: 2.06131 (Simulation time: 0 hr 1 min 20 sec) 
Heartbeat CPU 0 instructions: 60000000 cycles: 29181903 heartbeat IPC: 2.03028 cumulative IPC: 2.05607 (Simulation time: 0 hr 1 min 36 sec) 
Heartbeat CPU 0 instructions: 70000001 cycles: 33956965 heartbeat IPC: 2.09421 cumulative IPC: 2.06143 (Simulation time: 0 hr 1 min 50 sec) 
Heartbeat CPU 0 instructions: 80000000 cycles: 38793209 heartbeat IPC: 2.06772 cumulative IPC: 2.06222 (Simulation time: 0 hr 2 min 7 sec) 
Heartbeat CPU 0 instructions: 90000002 cycles: 43647243 heartbeat IPC: 2.06014 cumulative IPC: 2.06199 (Simulation time: 0 hr 2 min 23 sec) 
Heartbeat CPU 0 instructions: 100000000 cycles: 48566010 heartbeat IPC: 2.03303 cumulative IPC: 2.05905 (Simulation time: 0 hr 2 min 39 sec) 

Warmup complete CPU 0 instructions: 100000001 cycles: 48566011 (Simulation time: 0 hr 2 min 39 sec) 

Heartbeat CPU 0 instructions: 110000000 cycles: 61629011 heartbeat IPC: 0.765521 cumulative IPC: 0.765521 (Simulation time: 0 hr 3 min 1 sec) 
Heartbeat CPU 0 instructions: 120000000 cycles: 75381992 heartbeat IPC: 0.727115 cumulative IPC: 0.745824 (Simulation time: 0 hr 3 min 26 sec) 
Heartbeat CPU 0 instructions: 130000000 cycles: 89127240 heartbeat IPC: 0.727524 cumulative IPC: 0.739623 (Simulation time: 0 hr 3 min 50 sec) 
Heartbeat CPU 0 instructions: 140000000 cycles: 103388519 heartbeat IPC: 0.701199 cumulative IPC: 0.729627 (Simulation time: 0 hr 4 min 14 sec) 
Heartbeat CPU 0 instructions: 150000003 cycles: 116526171 heartbeat IPC: 0.761171 cumulative IPC: 0.735725 (Simulation time: 0 hr 4 min 36 sec) 
Heartbeat CPU 0 instructions: 160000000 cycles: 130277847 heartbeat IPC: 0.727184 cumulative IPC: 0.734288 (Simulation time: 0 hr 5 min 0 sec) 
Heartbeat CPU 0 instructions: 170000001 cycles: 144058875 heartbeat IPC: 0.725635 cumulative IPC: 0.733039 (Simulation time: 0 hr 5 min 25 sec) 
Heartbeat CPU 0 instructions: 180000000 cycles: 158300718 heartbeat IPC: 0.702156 cumulative IPC: 0.729031 (Simulation time: 0 hr 5 min 49 sec) 
Heartbeat CPU 0 instructions: 190000003 cycles: 171392759 heartbeat IPC: 0.763823 cumulative IPC: 0.732739 (Simulation time: 0 hr 6 min 11 sec) 
Heartbeat CPU 0 instructions: 200000000 cycles: 185140534 heartbeat IPC: 0.72739 cumulative IPC: 0.732201 (Simulation time: 0 hr 6 min 35 sec) 
Heartbeat CPU 0 instructions: 210000002 cycles: 198924407 heartbeat IPC: 0.725486 cumulative IPC: 0.731585 (Simulation time: 0 hr 6 min 59 sec) 
Heartbeat CPU 0 instructions: 220000000 cycles: 213168063 heartbeat IPC: 0.702067 cumulative IPC: 0.729031 (Simulation time: 0 hr 7 min 24 sec) 
Heartbeat CPU 0 instructions: 230000001 cycles: 226200703 heartbeat IPC: 0.767304 cumulative IPC: 0.731839 (Simulation time: 0 hr 7 min 46 sec) 
Heartbeat CPU 0 instructions: 240000000 cycles: 239940416 heartbeat IPC: 0.727817 cumulative IPC: 0.73155 (Simulation time: 0 hr 8 min 10 sec) 
Heartbeat CPU 0 instructions: 250000001 cycles: 253669772 heartbeat IPC: 0.728366 cumulative IPC: 0.731337 (Simulation time: 0 hr 8 min 34 sec) 
Heartbeat CPU 0 instructions: 260000000 cycles: 267809768 heartbeat IPC: 0.707214 cumulative IPC: 0.729781 (Simulation time: 0 hr 8 min 58 sec) 
Heartbeat CPU 0 instructions: 270000003 cycles: 280958421 heartbeat IPC: 0.760534 cumulative IPC: 0.731521 (Simulation time: 0 hr 9 min 20 sec) 
Heartbeat CPU 0 instructions: 280000000 cycles: 294714368 heartbeat IPC: 0.726958 cumulative IPC: 0.731266 (Simulation time: 0 hr 9 min 44 sec) 
Heartbeat CPU 0 instructions: 290000001 cycles: 308489083 heartbeat IPC: 0.725968 cumulative IPC: 0.730986 (Simulation time: 0 hr 10 min 9 sec) 
Heartbeat CPU 0 instructions: 300000000 cycles: 322573738 heartbeat IPC: 0.709992 cumulative IPC: 0.729906 (Simulation time: 0 hr 10 min 33 sec) 
Heartbeat CPU 0 instructions: 310000000 cycles: 335748108 heartbeat IPC: 0.75905 cumulative IPC: 0.731243 (Simulation time: 0 hr 10 min 55 sec) 
Heartbeat CPU 0 instructions: 320000000 cycles: 349548998 heartbeat IPC: 0.724591 cumulative IPC: 0.730938 (Simulation time: 0 hr 11 min 19 sec) 
Heartbeat CPU 0 instructions: 330000000 cycles: 363341820 heartbeat IPC: 0.725015 cumulative IPC: 0.730679 (Simulation time: 0 hr 11 min 43 sec) 
Heartbeat CPU 0 instructions: 340000000 cycles: 377399086 heartbeat IPC: 0.711376 cumulative IPC: 0.729854 (Simulation time: 0 hr 12 min 8 sec) 
Heartbeat CPU 0 instructions: 350000000 cycles: 390600382 heartbeat IPC: 0.757501 cumulative IPC: 0.730921 (Simulation time: 0 hr 12 min 29 sec) 
Heartbeat CPU 0 instructions: 360000000 cycles: 404425437 heartbeat IPC: 0.723324 cumulative IPC: 0.730626 (Simulation time: 0 hr 12 min 54 sec) 
Heartbeat CPU 0 instructions: 370000003 cycles: 418221654 heartbeat IPC: 0.724837 cumulative IPC: 0.73041 (Simulation time: 0 hr 13 min 18 sec) 
Heartbeat CPU 0 instructions: 380000000 cycles: 432241733 heartbeat IPC: 0.713263 cumulative IPC: 0.729783 (Simulation time: 0 hr 13 min 42 sec) 
Heartbeat CPU 0 instructions: 390000003 cycles: 445468714 heartbeat IPC: 0.756031 cumulative IPC: 0.730658 (Simulation time: 0 hr 14 min 4 sec) 
Heartbeat CPU 0 instructions: 400000000 cycles: 459291058 heartbeat IPC: 0.723466 cumulative IPC: 0.730416 (Simulation time: 0 hr 14 min 28 sec) 
Heartbeat CPU 0 instructions: 410000000 cycles: 473058519 heartbeat IPC: 0.72635 cumulative IPC: 0.730284 (Simulation time: 0 hr 14 min 52 sec) 
Heartbeat CPU 0 instructions: 420000000 cycles: 487072168 heartbeat IPC: 0.71359 cumulative IPC: 0.72975 (Simulation time: 0 hr 15 min 17 sec) 
Heartbeat CPU 0 instructions: 430000003 cycles: 500316487 heartbeat IPC: 0.755041 cumulative IPC: 0.730492 (Simulation time: 0 hr 15 min 39 sec) 
Heartbeat CPU 0 instructions: 440000000 cycles: 514136168 heartbeat IPC: 0.723606 cumulative IPC: 0.730287 (Simulation time: 0 hr 16 min 3 sec) 
Heartbeat CPU 0 instructions: 450000000 cycles: 527921909 heartbeat IPC: 0.725387 cumulative IPC: 0.730146 (Simulation time: 0 hr 16 min 27 sec) 
Heartbeat CPU 0 instructions: 460000000 cycles: 541914885 heartbeat IPC: 0.714644 cumulative IPC: 0.729707 (Simulation time: 0 hr 16 min 51 sec) 
Heartbeat CPU 0 instructions: 470000001 cycles: 555143095 heartbeat IPC: 0.75596 cumulative IPC: 0.730392 (Simulation time: 0 hr 17 min 13 sec) 
Heartbeat CPU 0 instructions: 480000000 cycles: 568935813 heartbeat IPC: 0.72502 cumulative IPC: 0.73025 (Simulation time: 0 hr 17 min 37 sec) 
Heartbeat CPU 0 instructions: 490000002 cycles: 582693953 heartbeat IPC: 0.726843 cumulative IPC: 0.730162 (Simulation time: 0 hr 18 min 1 sec) 
Heartbeat CPU 0 instructions: 500000000 cycles: 596685006 heartbeat IPC: 0.714742 cumulative IPC: 0.729769 (Simulation time: 0 hr 18 min 26 sec) 
Heartbeat CPU 0 instructions: 510000002 cycles: 609944845 heartbeat IPC: 0.754157 cumulative IPC: 0.730345 (Simulation time: 0 hr 18 min 48 sec) 
Heartbeat CPU 0 instructions: 520000000 cycles: 623722743 heartbeat IPC: 0.7258 cumulative IPC: 0.730236 (Simulation time: 0 hr 19 min 12 sec) 
Heartbeat CPU 0 instructions: 530000003 cycles: 637461683 heartbeat IPC: 0.727858 cumulative IPC: 0.73018 (Simulation time: 0 hr 19 min 36 sec) 
Heartbeat CPU 0 instructions: 540000000 cycles: 651475423 heartbeat IPC: 0.713585 cumulative IPC: 0.729795 (Simulation time: 0 hr 20 min 0 sec) 
Heartbeat CPU 0 instructions: 550000003 cycles: 664730575 heartbeat IPC: 0.754424 cumulative IPC: 0.730324 (Simulation time: 0 hr 20 min 22 sec) 
Heartbeat CPU 0 instructions: 560000000 cycles: 678490540 heartbeat IPC: 0.726746 cumulative IPC: 0.730246 (Simulation time: 0 hr 20 min 46 sec) 
Heartbeat CPU 0 instructions: 570000001 cycles: 692258378 heartbeat IPC: 0.726331 cumulative IPC: 0.730162 (Simulation time: 0 hr 21 min 10 sec) 
Heartbeat CPU 0 instructions: 580000000 cycles: 706292441 heartbeat IPC: 0.712552 cumulative IPC: 0.729787 (Simulation time: 0 hr 21 min 35 sec) 
Heartbeat CPU 0 instructions: 590000000 cycles: 719479679 heartbeat IPC: 0.758309 cumulative IPC: 0.730347 (Simulation time: 0 hr 21 min 57 sec) 
Heartbeat CPU 0 instructions: 600000000 cycles: 733245796 heartbeat IPC: 0.726421 cumulative IPC: 0.730268 (Simulation time: 0 hr 22 min 21 sec) 
Finished CPU 0 instructions: 500000001 cycles: 684679793 cumulative IPC: 0.730268 (Simulation time: 0 hr 22 min 21 sec) 

CPU 0 Branch Prediction Accuracy: 97.5275% MPKI: 2.1997
Number of Branches: 44482865 Number of Mispredictions: 1099852
Number of LOAD Instructions: 144955155
Number of LOAD Instructions (ROI): 144955155
Number of STORE Instructions: 55921098
Number of STORE Instructions (ROI): 55921098
Total Destination Memory Operands: 57111147
Total Destination Memory Operands (ROI): 57111147
Total Source Memory Operands: 144955155
Total Source Memory Operands (ROI): 144955155
Number of DEPENDED LOADS: 13454694
Number of DEPENDED LOADS (ROI): 13454694
Number of SQ_ADDED: 57111126
Number of SQ_ADDED (ROI): 57111126
Number of LQ_ADDED: 174220266
Number of LQ_ADDED (ROI): 174220266
Number of Instructions read from trace: 600000256

ChampSim completed all CPUs

Region of Interest Statistics

CPU 0 cumulative IPC: 0.730268 instructions: 500000001 cycles: 684679793
ITLB TOTAL     ACCESS:  136066990  HIT:  136064437  MISS:       2553
ITLB LOAD      ACCESS:  136066990  HIT:  136064437  MISS:       2553
ITLB RFO       ACCESS:          0  HIT:          0  MISS:          0
ITLB PREFETCH  ACCESS:          0  HIT:          0  MISS:          0
ITLB WRITEBACK ACCESS:          0  HIT:          0  MISS:          0
ITLB PREFETCH  REQUESTED:          0  ISSUED:          0  USEFUL:          0  USELESS:          0
ITLB TOTAL MSHR MERGED:       4357
ITLB LOAD MSHR MERGED:       4357
ITLB RFO MSHR MERGED:          0
ITLB PREFETCH MSHR MERGED:          0
ITLB WRITEBACK MSHR MERGED:          0
ITLB TOTAL ACCESSES:  136071347 HITS:  136064437 MISSES:       6910
ITLB LOAD ACCESSES:  136071347 HITS:  136064437 MISSES:       6910
ITLB RFO ACCESSES:          0 HITS:          0 MISSES:          0
ITLB PREFETCH ACCESSES:          0 HITS:          0 MISSES:          0
ITLB WRITEBACK ACCESSES:          0 HITS:          0 MISSES:          0
ITLB RQ ACCESS:  500000202
ITLB RQ TO_CACHE:  136071347
ITLB RQ MERGED:  363928855
ITLB RQ FORWARD:          0
ITLB WQ ACCESS:          0
ITLB WQ TO_CACHE:          0
ITLB WQ MERGED:          0
ITLB WQ FORWARD:          0
DTLB TOTAL     ACCESS:  111552419  HIT:  111416224  MISS:     136195
DTLB LOAD      ACCESS:   78951697  HIT:   78826069  MISS:     125628
DTLB RFO       ACCESS:   32600722  HIT:   32590155  MISS:      10567
DTLB PREFETCH  ACCESS:          0  HIT:          0  MISS:          0
DTLB WRITEBACK ACCESS:          0  HIT:          0  MISS:          0
DTLB PREFETCH  REQUESTED:          0  ISSUED:          0  USEFUL:          0  USELESS:          0
DTLB TOTAL MSHR MERGED:      63845
DTLB LOAD MSHR MERGED:      50934
DTLB RFO MSHR MERGED:      12911
DTLB PREFETCH MSHR MERGED:          0
DTLB WRITEBACK MSHR MERGED:          0
DTLB TOTAL ACCESSES:  111616264 HITS:  111416224 MISSES:     200040
DTLB LOAD ACCESSES:   79002631 HITS:   78826069 MISSES:     176562
DTLB RFO ACCESSES:   32613633 HITS:   32590155 MISSES:      23478
DTLB PREFETCH ACCESSES:          0 HITS:          0 MISSES:          0
DTLB WRITEBACK ACCESSES:          0 HITS:          0 MISSES:          0
DTLB RQ ACCESS:  157180725
DTLB RQ TO_CACHE:  111616264
DTLB RQ MERGED:   45564461
DTLB RQ FORWARD:          0
DTLB WQ ACCESS:          0
DTLB WQ TO_CACHE:          0
DTLB WQ MERGED:          0
DTLB WQ FORWARD:          0
L1D TOTAL     ACCESS:  198256224  HIT:  188415136  MISS:    9841088
L1D LOAD      ACCESS:   79951749  HIT:   75689771  MISS:    4261978
L1D RFO       ACCESS:   44547064  HIT:   43646927  MISS:     900137
L1D PREFETCH  ACCESS:   73757411  HIT:   69078438  MISS:    4678973
L1D WRITEBACK ACCESS:          0  HIT:          0  MISS:          0
L1D PREFETCH  REQUESTED:   80347499  ISSUED:   79891867  USEFUL:    1820665  USELESS:    2858217
L1D TOTAL MSHR MERGED:    2476388
L1D LOAD MSHR MERGED:     519312
L1D RFO MSHR MERGED:    1405599
L1D PREFETCH MSHR MERGED:     551477
L1D WRITEBACK MSHR MERGED:          0
L1D TOTAL ACCESSES:  200753804 HITS:  188436328 MISSES:   12317476
L1D LOAD ACCESSES:   80360063 HITS:   75702335 MISSES:    4657728
L1D RFO ACCESSES:   45949877 HITS:   43646927 MISSES:    2302950
L1D PREFETCH ACCESSES:   74443864 HITS:   69087066 MISSES:    5356798
L1D WRITEBACK ACCESSES:          0 HITS:          0 MISSES:          0
L1D RQ ACCESS:  109538755
L1D RQ TO_CACHE:   80347499
L1D RQ MERGED:   29178692
L1D RQ FORWARD:          0
L1D WQ ACCESS:   47641970
L1D WQ TO_CACHE:   45949877
L1D WQ MERGED:    1692093
L1D WQ FORWARD:      21192
L1I TOTAL     ACCESS:  161537243  HIT:  161273268  MISS:     263975
L1I LOAD      ACCESS:  161537243  HIT:  161273268  MISS:     263975
L1I RFO       ACCESS:          0  HIT:          0  MISS:          0
L1I PREFETCH  ACCESS:          0  HIT:          0  MISS:          0
L1I WRITEBACK ACCESS:          0  HIT:          0  MISS:          0
L1I PREFETCH  REQUESTED:          0  ISSUED:          0  USEFUL:          0  USELESS:          0
L1I TOTAL MSHR MERGED:     261207
L1I LOAD MSHR MERGED:     261207
L1I RFO MSHR MERGED:          0
L1I PREFETCH MSHR MERGED:          0
L1I WRITEBACK MSHR MERGED:          0
L1I TOTAL ACCESSES:  161798450 HITS:  161273268 MISSES:     525182
L1I LOAD ACCESSES:  161798450 HITS:  161273268 MISSES:     525182
L1I RFO ACCESSES:          0 HITS:          0 MISSES:          0
L1I PREFETCH ACCESSES:          0 HITS:          0 MISSES:          0
L1I WRITEBACK ACCESSES:          0 HITS:          0 MISSES:          0
L1I RQ ACCESS:  500000202
L1I RQ TO_CACHE:  161798450
L1I RQ MERGED:  338201752
L1I RQ FORWARD:          0
L1I WQ ACCESS:          0
L1I WQ TO_CACHE:          0
L1I WQ MERGED:          0
L1I WQ FORWARD:          0
L2C TOTAL     ACCESS:   11771763  HIT:   10382458  MISS:    1389305
L2C LOAD      ACCESS:    4402326  HIT:    3905690  MISS:     496636
L2C RFO       ACCESS:     897284  HIT:     536256  MISS:     361028
L2C PREFETCH  ACCESS:    5284585  HIT:    4755892  MISS:     528693
L2C WRITEBACK ACCESS:    1187568  HIT:    1184620  MISS:       2948
L2C PREFETCH  REQUESTED:     504639  ISSUED:     504639  USEFUL:     114880  USELESS:     414005
L2C TOTAL MSHR MERGED:       2033
L2C LOAD MSHR MERGED:        420
L2C RFO MSHR MERGED:          0
L2C PREFETCH MSHR MERGED:       1613
L2C WRITEBACK MSHR MERGED:          0
L2C TOTAL ACCESSES:   11776545 HITS:   10382679 MISSES:    1393866
L2C LOAD ACCESSES:    4402391 HITS:    3905755 MISSES:     496636
L2C RFO ACCESSES:     897351 HITS:     536323 MISSES:     361028
L2C PREFETCH ACCESSES:    5289235 HITS:    4755981 MISSES:     533254
L2C WRITEBACK ACCESSES:    1187568 HITS:    1184620 MISSES:       2948
L2C RQ ACCESS:    5299742
L2C RQ TO_CACHE:    5299610
L2C RQ MERGED:          0
L2C RQ FORWARD:          0
L2C WQ ACCESS:    1187568
L2C WQ TO_CACHE:    1187568
L2C WQ MERGED:          0
L2C WQ FORWARD:        221
LLC TOTAL     ACCESS:    1849504  HIT:    1183300  MISS:     666204
LLC LOAD      ACCESS:     496214  HIT:     227009  MISS:     269205
LLC RFO       ACCESS:     361024  HIT:     262538  MISS:      98486
LLC PREFETCH  ACCESS:     531530  HIT:     314706  MISS:     216824
LLC WRITEBACK ACCESS:     460736  HIT:     379047  MISS:      81689
LLC PREFETCH  REQUESTED:          0  ISSUED:          0  USEFUL:       3094  USELESS:     213938
LLC TOTAL MSHR MERGED:         81
LLC LOAD MSHR MERGED:         33
LLC RFO MSHR MERGED:          0
LLC PREFETCH MSHR MERGED:         48
LLC WRITEBACK MSHR MERGED:          0
LLC TOTAL ACCESSES:    1849611 HITS:    1183326 MISSES:     666285
LLC LOAD ACCESSES:     496216 HITS:     227011 MISSES:     269205
LLC RFO ACCESSES:     361028 HITS:     262542 MISSES:      98486
LLC PREFETCH ACCESSES:     531631 HITS:     314726 MISSES:     216905
LLC WRITEBACK ACCESSES:     460736 HITS:     379047 MISSES:      81689
LLC 0 RQ ACCESS:     857244
LLC 0 RQ TO_CACHE:     857238
LLC 0 RQ MERGED:          0
LLC 0 RQ FORWARD:          0
LLC WQ ACCESS:     460736
LLC WQ TO_CACHE:     460736
LLC WQ MERGED:          0
LLC WQ FORWARD:         26
Major fault: 0 Minor fault: 3073
CPU 0 L1D next line prefetcher final stats
CPU 0 L2C PC-based stride prefetcher final stats
All Misses: 817471
All Hits: 1358724
SD Algo Stats - Switches: 0 SRR-Repls: 307833 BRR-Repls: 0

DRAM Statistics
 CHANNEL 0
 RQ ROW_BUFFER_HIT:     401050  ROW_BUFFER_MISS:     183245
 DBUS_CONGESTED:     399826
 WQ ROW_BUFFER_HIT:      11236  ROW_BUFFER_MISS:      93376  FULL:          0

 AVG_CONGESTED_CYCLE: 13
LOADS RETIRED: 120673965
INSTR RETIRED: 500000000
