
*** ChampSim Multicore Out-of-Order Simulator ***

Warmup Instructions: 100000000
Simulation Instructions: 100000000
Number of CPUs: 1
LLC sets: 2048
LLC ways: 16
Clean RRIP Policies: 2307021523070215 Dirty RRIP Policies: 307220503072205 PSEL Width: 10 Track Set: 4294967295 PSEL Mask: 1 Demote Mask: 41010100410101DS Algo: 0Window size: 0
Off-chip DRAM Size: 4096 MB Channels: 1 Width: 64-bit Data Rate: 1600 MT/s

CPU 0 runs /mnt/beegfs/iconst01/spec2017/Fotonik3d.trace.gz
NOT SORTED
TRACE STRING: /mnt/beegfs/iconst01/spec2017/Fotonik3d.trace.gz
SORTED
TRACE STRING: /mnt/beegfs/iconst01/spec2017/Fotonik3d.trace.gz
INITIAL
TRACE STRING: /mnt/beegfs/iconst01/spec2017/Fotonik3d.trace.gz

champsim_seed used: 881

CPU 0 L1D next line prefetcher
CPU 0 L2C IP-based stride prefetcher
Initialize DRRIP state
Assign rand_sets[0]: 454  LLC: 2048
rand_sets[0]: 454
Assign rand_sets[1]: 1662  LLC: 2048
rand_sets[1]: 1662
Assign rand_sets[2]: 1921  LLC: 2048
rand_sets[2]: 1921
Assign rand_sets[3]: 1131  LLC: 2048
rand_sets[3]: 1131
Assign rand_sets[4]: 331  LLC: 2048
rand_sets[4]: 331
Assign rand_sets[5]: 1531  LLC: 2048
rand_sets[5]: 1531
Assign rand_sets[6]: 482  LLC: 2048
rand_sets[6]: 482
Assign rand_sets[7]: 1275  LLC: 2048
rand_sets[7]: 1275
Assign rand_sets[8]: 1876  LLC: 2048
rand_sets[8]: 1876
Assign rand_sets[9]: 2038  LLC: 2048
rand_sets[9]: 2038
Assign rand_sets[10]: 701  LLC: 2048
rand_sets[10]: 701
Assign rand_sets[11]: 479  LLC: 2048
rand_sets[11]: 479
Assign rand_sets[12]: 892  LLC: 2048
rand_sets[12]: 892
Assign rand_sets[13]: 1820  LLC: 2048
rand_sets[13]: 1820
Assign rand_sets[14]: 1505  LLC: 2048
rand_sets[14]: 1505
Assign rand_sets[15]: 1159  LLC: 2048
rand_sets[15]: 1159
Assign rand_sets[16]: 513  LLC: 2048
rand_sets[16]: 513
Assign rand_sets[17]: 703  LLC: 2048
rand_sets[17]: 703
Assign rand_sets[18]: 561  LLC: 2048
rand_sets[18]: 561
Assign rand_sets[19]: 990  LLC: 2048
rand_sets[19]: 990
Assign rand_sets[20]: 342  LLC: 2048
rand_sets[20]: 342
Assign rand_sets[21]: 882  LLC: 2048
rand_sets[21]: 882
Assign rand_sets[22]: 15  LLC: 2048
rand_sets[22]: 15
Assign rand_sets[23]: 71  LLC: 2048
rand_sets[23]: 71
Assign rand_sets[24]: 1127  LLC: 2048
rand_sets[24]: 1127
Assign rand_sets[25]: 1382  LLC: 2048
rand_sets[25]: 1382
Assign rand_sets[26]: 647  LLC: 2048
rand_sets[26]: 647
Assign rand_sets[27]: 857  LLC: 2048
rand_sets[27]: 857
Assign rand_sets[28]: 1450  LLC: 2048
rand_sets[28]: 1450
Assign rand_sets[29]: 1160  LLC: 2048
rand_sets[29]: 1160
Assign rand_sets[30]: 1852  LLC: 2048
rand_sets[30]: 1852
Assign rand_sets[31]: 1881  LLC: 2048
rand_sets[31]: 1881
Assign rand_sets[32]: 1770  LLC: 2048
rand_sets[32]: 1770
Assign rand_sets[33]: 1622  LLC: 2048
rand_sets[33]: 1622
Assign rand_sets[34]: 275  LLC: 2048
rand_sets[34]: 275
Assign rand_sets[35]: 635  LLC: 2048
rand_sets[35]: 635
Assign rand_sets[36]: 466  LLC: 2048
rand_sets[36]: 466
Assign rand_sets[37]: 1413  LLC: 2048
rand_sets[37]: 1413
Assign rand_sets[38]: 417  LLC: 2048
rand_sets[38]: 417
Assign rand_sets[39]: 472  LLC: 2048
rand_sets[39]: 472
Assign rand_sets[40]: 1340  LLC: 2048
rand_sets[40]: 1340
Assign rand_sets[41]: 852  LLC: 2048
rand_sets[41]: 852
Assign rand_sets[42]: 1365  LLC: 2048
rand_sets[42]: 1365
Assign rand_sets[43]: 47  LLC: 2048
rand_sets[43]: 47
Assign rand_sets[44]: 823  LLC: 2048
rand_sets[44]: 823
Assign rand_sets[45]: 686  LLC: 2048
rand_sets[45]: 686
Assign rand_sets[46]: 1637  LLC: 2048
rand_sets[46]: 1637
Assign rand_sets[47]: 1115  LLC: 2048
rand_sets[47]: 1115
Assign rand_sets[48]: 986  LLC: 2048
rand_sets[48]: 986
Assign rand_sets[49]: 258  LLC: 2048
rand_sets[49]: 258
Assign rand_sets[50]: 633  LLC: 2048
rand_sets[50]: 633
Assign rand_sets[51]: 920  LLC: 2048
rand_sets[51]: 920
Assign rand_sets[52]: 204  LLC: 2048
rand_sets[52]: 204
Assign rand_sets[53]: 227  LLC: 2048
rand_sets[53]: 227
Assign rand_sets[54]: 1818  LLC: 2048
rand_sets[54]: 1818
Assign rand_sets[55]: 886  LLC: 2048
rand_sets[55]: 886
Assign rand_sets[56]: 1422  LLC: 2048
rand_sets[56]: 1422
Assign rand_sets[57]: 607  LLC: 2048
rand_sets[57]: 607
Assign rand_sets[58]: 217  LLC: 2048
rand_sets[58]: 217
Assign rand_sets[59]: 1945  LLC: 2048
rand_sets[59]: 1945
Assign rand_sets[60]: 143  LLC: 2048
rand_sets[60]: 143
Assign rand_sets[61]: 1311  LLC: 2048
rand_sets[61]: 1311
Assign rand_sets[62]: 319  LLC: 2048
rand_sets[62]: 319
Assign rand_sets[63]: 1846  LLC: 2048
rand_sets[63]: 1846
 CLEAN-RRIP-POLICY-1: 2-3-0-7-0-2-1-5- CLEAN-RRIP-POLICY-2: 2-3-0-7-0-2-1-5-
 DIRTY-RRIP-POLICY-1: 0-3-0-7-2-2-0-5- DIRTY-RRIP-POLICY-2: 0-3-0-7-2-2-0-5-
 PSEL width: 10
Heartbeat CPU 0 instructions: 10000002 cycles: 7306715 heartbeat IPC: 1.3686 cumulative IPC: 1.3686 (Simulation time: 0 hr 0 min 24 sec) 
Heartbeat CPU 0 instructions: 20000000 cycles: 14613520 heartbeat IPC: 1.36859 cumulative IPC: 1.3686 (Simulation time: 0 hr 0 min 49 sec) 
Heartbeat CPU 0 instructions: 30000001 cycles: 21920188 heartbeat IPC: 1.36861 cumulative IPC: 1.3686 (Simulation time: 0 hr 1 min 13 sec) 
Heartbeat CPU 0 instructions: 40000000 cycles: 29226738 heartbeat IPC: 1.36863 cumulative IPC: 1.36861 (Simulation time: 0 hr 1 min 38 sec) 
Heartbeat CPU 0 instructions: 50000001 cycles: 36533282 heartbeat IPC: 1.36864 cumulative IPC: 1.36862 (Simulation time: 0 hr 2 min 2 sec) 
Heartbeat CPU 0 instructions: 60000000 cycles: 43840071 heartbeat IPC: 1.36859 cumulative IPC: 1.36861 (Simulation time: 0 hr 2 min 27 sec) 
Heartbeat CPU 0 instructions: 70000002 cycles: 51146665 heartbeat IPC: 1.36863 cumulative IPC: 1.36861 (Simulation time: 0 hr 2 min 51 sec) 
Heartbeat CPU 0 instructions: 80000000 cycles: 58453271 heartbeat IPC: 1.36862 cumulative IPC: 1.36861 (Simulation time: 0 hr 3 min 15 sec) 
Heartbeat CPU 0 instructions: 90000003 cycles: 65763647 heartbeat IPC: 1.36792 cumulative IPC: 1.36854 (Simulation time: 0 hr 3 min 40 sec) 
Heartbeat CPU 0 instructions: 100000000 cycles: 73074069 heartbeat IPC: 1.36791 cumulative IPC: 1.36847 (Simulation time: 0 hr 4 min 4 sec) 

Warmup complete CPU 0 instructions: 100000002 cycles: 73074081 (Simulation time: 0 hr 4 min 4 sec) 

Heartbeat CPU 0 instructions: 110000001 cycles: 85424469 heartbeat IPC: 0.80969 cumulative IPC: 0.809691 (Simulation time: 0 hr 4 min 33 sec) 
Heartbeat CPU 0 instructions: 120000000 cycles: 97730634 heartbeat IPC: 0.812601 cumulative IPC: 0.811143 (Simulation time: 0 hr 5 min 2 sec) 
Heartbeat CPU 0 instructions: 130000000 cycles: 110078659 heartbeat IPC: 0.809846 cumulative IPC: 0.81071 (Simulation time: 0 hr 5 min 32 sec) 
Heartbeat CPU 0 instructions: 140000000 cycles: 122411356 heartbeat IPC: 0.810853 cumulative IPC: 0.810746 (Simulation time: 0 hr 6 min 1 sec) 
Heartbeat CPU 0 instructions: 150000000 cycles: 134708964 heartbeat IPC: 0.813166 cumulative IPC: 0.811229 (Simulation time: 0 hr 6 min 30 sec) 
Heartbeat CPU 0 instructions: 160000000 cycles: 147043965 heartbeat IPC: 0.810701 cumulative IPC: 0.811141 (Simulation time: 0 hr 6 min 59 sec) 
Heartbeat CPU 0 instructions: 170000001 cycles: 159381785 heartbeat IPC: 0.810516 cumulative IPC: 0.811052 (Simulation time: 0 hr 7 min 28 sec) 
Heartbeat CPU 0 instructions: 180000000 cycles: 171717992 heartbeat IPC: 0.810622 cumulative IPC: 0.810998 (Simulation time: 0 hr 7 min 57 sec) 
Heartbeat CPU 0 instructions: 190000000 cycles: 184062707 heartbeat IPC: 0.810063 cumulative IPC: 0.810894 (Simulation time: 0 hr 8 min 26 sec) 
Heartbeat CPU 0 instructions: 200000000 cycles: 196391426 heartbeat IPC: 0.811114 cumulative IPC: 0.810916 (Simulation time: 0 hr 8 min 55 sec) 
Finished CPU 0 instructions: 100000001 cycles: 123317367 cumulative IPC: 0.810916 (Simulation time: 0 hr 8 min 55 sec) 

CPU 0 Branch Prediction Accuracy: 98.4343% MPKI: 0.14334
Number of Branches: 915476 Number of Mispredictions: 14334
Number of LOAD Instructions: 113430387
Number of LOAD Instructions (ROI): 113430387
Number of STORE Instructions: 12446017
Number of STORE Instructions (ROI): 12446017
Total Destination Memory Operands: 28437987
Total Destination Memory Operands (ROI): 28437987
Total Source Memory Operands: 113430387
Total Source Memory Operands (ROI): 113430387
Number of DEPENDED LOADS: 16641630
Number of DEPENDED LOADS (ROI): 16641630
Number of SQ_ADDED: 28437953
Number of SQ_ADDED (ROI): 28437953
Number of LQ_ADDED: 1082382623
Number of LQ_ADDED (ROI): 1082382623
Number of Instructions read from trace: 200000256

ChampSim completed all CPUs

Region of Interest Statistics

CPU 0 cumulative IPC: 0.810916 instructions: 100000001 cycles: 123317367
ITLB TOTAL     ACCESS:   18518631  HIT:   18518631  MISS:          0
ITLB LOAD      ACCESS:   18518631  HIT:   18518631  MISS:          0
ITLB RFO       ACCESS:          0  HIT:          0  MISS:          0
ITLB PREFETCH  ACCESS:          0  HIT:          0  MISS:          0
ITLB WRITEBACK ACCESS:          0  HIT:          0  MISS:          0
ITLB PREFETCH  REQUESTED:          0  ISSUED:          0  USEFUL:          0  USELESS:          0
ITLB TOTAL MSHR MERGED:          0
ITLB LOAD MSHR MERGED:          0
ITLB RFO MSHR MERGED:          0
ITLB PREFETCH MSHR MERGED:          0
ITLB WRITEBACK MSHR MERGED:          0
ITLB TOTAL ACCESSES:   18518631 HITS:   18518631 MISSES:          0
ITLB LOAD ACCESSES:   18518631 HITS:   18518631 MISSES:          0
ITLB RFO ACCESSES:          0 HITS:          0 MISSES:          0
ITLB PREFETCH ACCESSES:          0 HITS:          0 MISSES:          0
ITLB WRITEBACK ACCESSES:          0 HITS:          0 MISSES:          0
ITLB RQ ACCESS:  100000000
ITLB RQ TO_CACHE:   18518631
ITLB RQ MERGED:   81481369
ITLB RQ FORWARD:          0
ITLB WQ ACCESS:          0
ITLB WQ TO_CACHE:          0
ITLB WQ MERGED:          0
ITLB WQ FORWARD:          0
DTLB TOTAL     ACCESS:   42333258  HIT:   42297220  MISS:      36038
DTLB LOAD      ACCESS:   31922543  HIT:   31886505  MISS:      36038
DTLB RFO       ACCESS:   10410715  HIT:   10410715  MISS:          0
DTLB PREFETCH  ACCESS:          0  HIT:          0  MISS:          0
DTLB WRITEBACK ACCESS:          0  HIT:          0  MISS:          0
DTLB PREFETCH  REQUESTED:          0  ISSUED:          0  USEFUL:          0  USELESS:          0
DTLB TOTAL MSHR MERGED:       3327
DTLB LOAD MSHR MERGED:       3327
DTLB RFO MSHR MERGED:          0
DTLB PREFETCH MSHR MERGED:          0
DTLB WRITEBACK MSHR MERGED:          0
DTLB TOTAL ACCESSES:   42336585 HITS:   42297220 MISSES:      39365
DTLB LOAD ACCESSES:   31925870 HITS:   31886505 MISSES:      39365
DTLB RFO ACCESSES:   10410715 HITS:   10410715 MISSES:          0
DTLB PREFETCH ACCESSES:          0 HITS:          0 MISSES:          0
DTLB WRITEBACK ACCESSES:          0 HITS:          0 MISSES:          0
DTLB RQ ACCESS:   62793282
DTLB RQ TO_CACHE:   42336585
DTLB RQ MERGED:   20456697
DTLB RQ FORWARD:          0
DTLB WQ ACCESS:          0
DTLB WQ TO_CACHE:          0
DTLB WQ MERGED:          0
DTLB WQ FORWARD:          0
L1D TOTAL     ACCESS:   69164422  HIT:   66910524  MISS:    2253898
L1D LOAD      ACCESS:   34233762  HIT:   34034684  MISS:     199078
L1D RFO       ACCESS:   14191753  HIT:   14191753  MISS:          0
L1D PREFETCH  ACCESS:   20738907  HIT:   18684087  MISS:    2054820
L1D WRITEBACK ACCESS:          0  HIT:          0  MISS:          0
L1D PREFETCH  REQUESTED:   34298266  ISSUED:   34004991  USEFUL:    1940891  USELESS:     113936
L1D TOTAL MSHR MERGED:    3000403
L1D LOAD MSHR MERGED:     107875
L1D RFO MSHR MERGED:          0
L1D PREFETCH MSHR MERGED:    2892528
L1D WRITEBACK MSHR MERGED:          0
L1D TOTAL ACCESSES:   72205352 HITS:   66951050 MISSES:    5254302
L1D LOAD ACCESSES:   34298266 HITS:   34034684 MISSES:     263582
L1D RFO ACCESSES:   14191753 HITS:   14191753 MISSES:          0
L1D PREFETCH ACCESSES:   23715333 HITS:   18724613 MISSES:    4990720
L1D WRITEBACK ACCESSES:          0 HITS:          0 MISSES:          0
L1D RQ ACCESS:   48574298
L1D RQ TO_CACHE:   34298270
L1D RQ MERGED:   14276028
L1D RQ FORWARD:          0
L1D WQ ACCESS:   14218990
L1D WQ TO_CACHE:   14191753
L1D WQ MERGED:      27237
L1D WQ FORWARD:      40526
L1I TOTAL     ACCESS:   23160154  HIT:   23160154  MISS:          0
L1I LOAD      ACCESS:   23160154  HIT:   23160154  MISS:          0
L1I RFO       ACCESS:          0  HIT:          0  MISS:          0
L1I PREFETCH  ACCESS:          0  HIT:          0  MISS:          0
L1I WRITEBACK ACCESS:          0  HIT:          0  MISS:          0
L1I PREFETCH  REQUESTED:          0  ISSUED:          0  USEFUL:          0  USELESS:          0
L1I TOTAL MSHR MERGED:          0
L1I LOAD MSHR MERGED:          0
L1I RFO MSHR MERGED:          0
L1I PREFETCH MSHR MERGED:          0
L1I WRITEBACK MSHR MERGED:          0
L1I TOTAL ACCESSES:   23160154 HITS:   23160154 MISSES:          0
L1I LOAD ACCESSES:   23160154 HITS:   23160154 MISSES:          0
L1I RFO ACCESSES:          0 HITS:          0 MISSES:          0
L1I PREFETCH ACCESSES:          0 HITS:          0 MISSES:          0
L1I WRITEBACK ACCESSES:          0 HITS:          0 MISSES:          0
L1I RQ ACCESS:  100000000
L1I RQ TO_CACHE:   23160154
L1I RQ MERGED:   76839846
L1I RQ FORWARD:          0
L1I WQ ACCESS:          0
L1I WQ TO_CACHE:          0
L1I WQ MERGED:          0
L1I WQ FORWARD:          0
L2C TOTAL     ACCESS:    2945159  HIT:     693038  MISS:    2252121
L2C LOAD      ACCESS:     155705  HIT:       8998  MISS:     146707
L2C RFO       ACCESS:          0  HIT:          0  MISS:          0
L2C PREFETCH  ACCESS:    2109489  HIT:       4467  MISS:    2105022
L2C WRITEBACK ACCESS:     679965  HIT:     679573  MISS:        392
L2C PREFETCH  REQUESTED:      14128  ISSUED:      14128  USEFUL:       8052  USELESS:    2096980
L2C TOTAL MSHR MERGED:          0
L2C LOAD MSHR MERGED:          0
L2C RFO MSHR MERGED:          0
L2C PREFETCH MSHR MERGED:          0
L2C WRITEBACK MSHR MERGED:          0
L2C TOTAL ACCESSES:    2947992 HITS:     693040 MISSES:    2254952
L2C LOAD ACCESSES:     155707 HITS:       9000 MISSES:     146707
L2C RFO ACCESSES:          0 HITS:          0 MISSES:          0
L2C PREFETCH ACCESSES:    2112320 HITS:       4467 MISSES:    2107853
L2C WRITEBACK ACCESSES:     679965 HITS:     679573 MISSES:        392
L2C RQ ACCESS:     155707
L2C RQ TO_CACHE:     155705
L2C RQ MERGED:          0
L2C RQ FORWARD:          0
L2C WQ ACCESS:     679965
L2C WQ TO_CACHE:     679965
L2C WQ MERGED:          0
L2C WQ FORWARD:          2
LLC TOTAL     ACCESS:    2934421  HIT:     117050  MISS:    2817371
LLC LOAD      ACCESS:     146707  HIT:      28444  MISS:     118263
LLC RFO       ACCESS:          0  HIT:          0  MISS:          0
LLC PREFETCH  ACCESS:    2107853  HIT:      14012  MISS:    2093841
LLC WRITEBACK ACCESS:     679861  HIT:      74594  MISS:     605267
LLC PREFETCH  REQUESTED:          0  ISSUED:          0  USEFUL:       1637  USELESS:    2093189
LLC TOTAL MSHR MERGED:          0
LLC LOAD MSHR MERGED:          0
LLC RFO MSHR MERGED:          0
LLC PREFETCH MSHR MERGED:          0
LLC WRITEBACK MSHR MERGED:          0
LLC TOTAL ACCESSES:    2934422 HITS:     117050 MISSES:    2817372
LLC LOAD ACCESSES:     146707 HITS:      28444 MISSES:     118263
LLC RFO ACCESSES:          0 HITS:          0 MISSES:          0
LLC PREFETCH ACCESSES:    2107854 HITS:      14012 MISSES:    2093842
LLC WRITEBACK ACCESSES:     679861 HITS:      74594 MISSES:     605267
LLC 0 RQ ACCESS:     146707
LLC 0 RQ TO_CACHE:     146707
LLC 0 RQ MERGED:          0
LLC 0 RQ FORWARD:          0
LLC WQ ACCESS:     679861
LLC WQ TO_CACHE:     679861
LLC WQ MERGED:          0
LLC WQ FORWARD:          0
Major fault: 0 Minor fault: 56849
CPU 0 L1D next line prefetcher final stats
CPU 0 L2C PC-based stride prefetcher final stats
All Misses: 5639345
All Hits: 226122
SD Algo Stats - Switches: 0 SRR-Repls: 227700 BRR-Repls: 0

DRAM Statistics
 CHANNEL 0
 RQ ROW_BUFFER_HIT:    1454601  ROW_BUFFER_MISS:     757503
 DBUS_CONGESTED:    1467668
 WQ ROW_BUFFER_HIT:     160268  ROW_BUFFER_MISS:     519004  FULL:          0

 AVG_CONGESTED_CYCLE: 13
LOADS RETIRED: 56715115
INSTR RETIRED: 100000000
