
*** ChampSim Multicore Out-of-Order Simulator ***

Warmup Instructions: 100000000
Simulation Instructions: 500000000
Number of CPUs: 1
LLC sets: 2048
LLC ways: 16
Clean RRIP Policies: 2101120221011202 Dirty RRIP Policies: 1101020211010202 PSEL Width: 10 Track Set: 4294967295 PSEL Mask: 1 Demote Mask: 2143042121430421DS Algo: 0Window size: 0
Off-chip DRAM Size: 4096 MB Channels: 1 Width: 64-bit Data Rate: 1600 MT/s

CPU 0 runs /mnt/beegfs/iconst01/spec2017/Wrf.trace.gz
NOT SORTED
TRACE STRING: /mnt/beegfs/iconst01/spec2017/Wrf.trace.gz
SORTED
TRACE STRING: /mnt/beegfs/iconst01/spec2017/Wrf.trace.gz
INITIAL
TRACE STRING: /mnt/beegfs/iconst01/spec2017/Wrf.trace.gz

champsim_seed used: 303

CPU 0 L1D next line prefetcher
CPU 0 L2C IP-based stride prefetcher
Initialize DRRIP state
Assign rand_sets[0]: 454  LLC: 2048
rand_sets[0]: 454
Assign rand_sets[1]: 1662  LLC: 2048
rand_sets[1]: 1662
Assign rand_sets[2]: 1921  LLC: 2048
rand_sets[2]: 1921
Assign rand_sets[3]: 1131  LLC: 2048
rand_sets[3]: 1131
Assign rand_sets[4]: 331  LLC: 2048
rand_sets[4]: 331
Assign rand_sets[5]: 1531  LLC: 2048
rand_sets[5]: 1531
Assign rand_sets[6]: 482  LLC: 2048
rand_sets[6]: 482
Assign rand_sets[7]: 1275  LLC: 2048
rand_sets[7]: 1275
Assign rand_sets[8]: 1876  LLC: 2048
rand_sets[8]: 1876
Assign rand_sets[9]: 2038  LLC: 2048
rand_sets[9]: 2038
Assign rand_sets[10]: 701  LLC: 2048
rand_sets[10]: 701
Assign rand_sets[11]: 479  LLC: 2048
rand_sets[11]: 479
Assign rand_sets[12]: 892  LLC: 2048
rand_sets[12]: 892
Assign rand_sets[13]: 1820  LLC: 2048
rand_sets[13]: 1820
Assign rand_sets[14]: 1505  LLC: 2048
rand_sets[14]: 1505
Assign rand_sets[15]: 1159  LLC: 2048
rand_sets[15]: 1159
Assign rand_sets[16]: 513  LLC: 2048
rand_sets[16]: 513
Assign rand_sets[17]: 703  LLC: 2048
rand_sets[17]: 703
Assign rand_sets[18]: 561  LLC: 2048
rand_sets[18]: 561
Assign rand_sets[19]: 990  LLC: 2048
rand_sets[19]: 990
Assign rand_sets[20]: 342  LLC: 2048
rand_sets[20]: 342
Assign rand_sets[21]: 882  LLC: 2048
rand_sets[21]: 882
Assign rand_sets[22]: 15  LLC: 2048
rand_sets[22]: 15
Assign rand_sets[23]: 71  LLC: 2048
rand_sets[23]: 71
Assign rand_sets[24]: 1127  LLC: 2048
rand_sets[24]: 1127
Assign rand_sets[25]: 1382  LLC: 2048
rand_sets[25]: 1382
Assign rand_sets[26]: 647  LLC: 2048
rand_sets[26]: 647
Assign rand_sets[27]: 857  LLC: 2048
rand_sets[27]: 857
Assign rand_sets[28]: 1450  LLC: 2048
rand_sets[28]: 1450
Assign rand_sets[29]: 1160  LLC: 2048
rand_sets[29]: 1160
Assign rand_sets[30]: 1852  LLC: 2048
rand_sets[30]: 1852
Assign rand_sets[31]: 1881  LLC: 2048
rand_sets[31]: 1881
Assign rand_sets[32]: 1770  LLC: 2048
rand_sets[32]: 1770
Assign rand_sets[33]: 1622  LLC: 2048
rand_sets[33]: 1622
Assign rand_sets[34]: 275  LLC: 2048
rand_sets[34]: 275
Assign rand_sets[35]: 635  LLC: 2048
rand_sets[35]: 635
Assign rand_sets[36]: 466  LLC: 2048
rand_sets[36]: 466
Assign rand_sets[37]: 1413  LLC: 2048
rand_sets[37]: 1413
Assign rand_sets[38]: 417  LLC: 2048
rand_sets[38]: 417
Assign rand_sets[39]: 472  LLC: 2048
rand_sets[39]: 472
Assign rand_sets[40]: 1340  LLC: 2048
rand_sets[40]: 1340
Assign rand_sets[41]: 852  LLC: 2048
rand_sets[41]: 852
Assign rand_sets[42]: 1365  LLC: 2048
rand_sets[42]: 1365
Assign rand_sets[43]: 47  LLC: 2048
rand_sets[43]: 47
Assign rand_sets[44]: 823  LLC: 2048
rand_sets[44]: 823
Assign rand_sets[45]: 686  LLC: 2048
rand_sets[45]: 686
Assign rand_sets[46]: 1637  LLC: 2048
rand_sets[46]: 1637
Assign rand_sets[47]: 1115  LLC: 2048
rand_sets[47]: 1115
Assign rand_sets[48]: 986  LLC: 2048
rand_sets[48]: 986
Assign rand_sets[49]: 258  LLC: 2048
rand_sets[49]: 258
Assign rand_sets[50]: 633  LLC: 2048
rand_sets[50]: 633
Assign rand_sets[51]: 920  LLC: 2048
rand_sets[51]: 920
Assign rand_sets[52]: 204  LLC: 2048
rand_sets[52]: 204
Assign rand_sets[53]: 227  LLC: 2048
rand_sets[53]: 227
Assign rand_sets[54]: 1818  LLC: 2048
rand_sets[54]: 1818
Assign rand_sets[55]: 886  LLC: 2048
rand_sets[55]: 886
Assign rand_sets[56]: 1422  LLC: 2048
rand_sets[56]: 1422
Assign rand_sets[57]: 607  LLC: 2048
rand_sets[57]: 607
Assign rand_sets[58]: 217  LLC: 2048
rand_sets[58]: 217
Assign rand_sets[59]: 1945  LLC: 2048
rand_sets[59]: 1945
Assign rand_sets[60]: 143  LLC: 2048
rand_sets[60]: 143
Assign rand_sets[61]: 1311  LLC: 2048
rand_sets[61]: 1311
Assign rand_sets[62]: 319  LLC: 2048
rand_sets[62]: 319
Assign rand_sets[63]: 1846  LLC: 2048
rand_sets[63]: 1846
 CLEAN-RRIP-POLICY-1: 2-1-0-1-1-2-0-2- CLEAN-RRIP-POLICY-2: 2-1-0-1-1-2-0-2-
 DIRTY-RRIP-POLICY-1: 1-1-0-1-0-2-0-2- DIRTY-RRIP-POLICY-2: 1-1-0-1-0-2-0-2-
 PSEL width: 10
Heartbeat CPU 0 instructions: 10000002 cycles: 6559557 heartbeat IPC: 1.52449 cumulative IPC: 1.52449 (Simulation time: 0 hr 0 min 22 sec) 
Heartbeat CPU 0 instructions: 20000000 cycles: 12222246 heartbeat IPC: 1.76595 cumulative IPC: 1.63636 (Simulation time: 0 hr 0 min 42 sec) 
Heartbeat CPU 0 instructions: 30000003 cycles: 18204080 heartbeat IPC: 1.67173 cumulative IPC: 1.64798 (Simulation time: 0 hr 1 min 2 sec) 
Heartbeat CPU 0 instructions: 40000000 cycles: 24059396 heartbeat IPC: 1.70785 cumulative IPC: 1.66255 (Simulation time: 0 hr 1 min 23 sec) 
Heartbeat CPU 0 instructions: 50000000 cycles: 29527954 heartbeat IPC: 1.82864 cumulative IPC: 1.69331 (Simulation time: 0 hr 1 min 43 sec) 
Heartbeat CPU 0 instructions: 60000000 cycles: 35640823 heartbeat IPC: 1.63589 cumulative IPC: 1.68346 (Simulation time: 0 hr 2 min 5 sec) 
Heartbeat CPU 0 instructions: 70000000 cycles: 41360517 heartbeat IPC: 1.74835 cumulative IPC: 1.69244 (Simulation time: 0 hr 2 min 25 sec) 
Heartbeat CPU 0 instructions: 80000000 cycles: 47231483 heartbeat IPC: 1.7033 cumulative IPC: 1.69379 (Simulation time: 0 hr 2 min 46 sec) 
Heartbeat CPU 0 instructions: 90000000 cycles: 52985077 heartbeat IPC: 1.73804 cumulative IPC: 1.69859 (Simulation time: 0 hr 3 min 7 sec) 
Heartbeat CPU 0 instructions: 100000000 cycles: 58537767 heartbeat IPC: 1.80093 cumulative IPC: 1.7083 (Simulation time: 0 hr 3 min 27 sec) 

Warmup complete CPU 0 instructions: 100000004 cycles: 58537769 (Simulation time: 0 hr 3 min 27 sec) 

Heartbeat CPU 0 instructions: 110000001 cycles: 73069941 heartbeat IPC: 0.688128 cumulative IPC: 0.688128 (Simulation time: 0 hr 3 min 53 sec) 
Heartbeat CPU 0 instructions: 120000000 cycles: 84334134 heartbeat IPC: 0.887769 cumulative IPC: 0.775303 (Simulation time: 0 hr 4 min 17 sec) 
Heartbeat CPU 0 instructions: 130000000 cycles: 95401331 heartbeat IPC: 0.903571 cumulative IPC: 0.813812 (Simulation time: 0 hr 4 min 41 sec) 
Heartbeat CPU 0 instructions: 140000000 cycles: 106702091 heartbeat IPC: 0.884896 cumulative IPC: 0.83049 (Simulation time: 0 hr 5 min 4 sec) 
Heartbeat CPU 0 instructions: 150000002 cycles: 117830548 heartbeat IPC: 0.898597 cumulative IPC: 0.843273 (Simulation time: 0 hr 5 min 29 sec) 
Heartbeat CPU 0 instructions: 160000000 cycles: 127720819 heartbeat IPC: 1.01109 cumulative IPC: 0.867264 (Simulation time: 0 hr 5 min 51 sec) 
Heartbeat CPU 0 instructions: 170000003 cycles: 138927468 heartbeat IPC: 0.892328 cumulative IPC: 0.870758 (Simulation time: 0 hr 6 min 15 sec) 
Heartbeat CPU 0 instructions: 180000000 cycles: 151335431 heartbeat IPC: 0.805934 cumulative IPC: 0.862091 (Simulation time: 0 hr 6 min 39 sec) 
Heartbeat CPU 0 instructions: 190000000 cycles: 166555041 heartbeat IPC: 0.657047 cumulative IPC: 0.8332 (Simulation time: 0 hr 7 min 4 sec) 
Heartbeat CPU 0 instructions: 200000000 cycles: 181811384 heartbeat IPC: 0.655465 cumulative IPC: 0.811204 (Simulation time: 0 hr 7 min 28 sec) 
Heartbeat CPU 0 instructions: 210000000 cycles: 196944360 heartbeat IPC: 0.660809 cumulative IPC: 0.79476 (Simulation time: 0 hr 7 min 52 sec) 
Heartbeat CPU 0 instructions: 220000000 cycles: 212297154 heartbeat IPC: 0.651347 cumulative IPC: 0.78044 (Simulation time: 0 hr 8 min 19 sec) 
Heartbeat CPU 0 instructions: 230000003 cycles: 231009803 heartbeat IPC: 0.534398 cumulative IPC: 0.753745 (Simulation time: 0 hr 8 min 47 sec) 
Heartbeat CPU 0 instructions: 240000000 cycles: 241733353 heartbeat IPC: 0.932527 cumulative IPC: 0.764211 (Simulation time: 0 hr 9 min 10 sec) 
Heartbeat CPU 0 instructions: 250000000 cycles: 251329841 heartbeat IPC: 1.04205 cumulative IPC: 0.77804 (Simulation time: 0 hr 9 min 33 sec) 
Heartbeat CPU 0 instructions: 260000000 cycles: 261462056 heartbeat IPC: 0.986951 cumulative IPC: 0.788471 (Simulation time: 0 hr 9 min 55 sec) 
Heartbeat CPU 0 instructions: 270000000 cycles: 271565470 heartbeat IPC: 0.989764 cumulative IPC: 0.798018 (Simulation time: 0 hr 10 min 18 sec) 
Heartbeat CPU 0 instructions: 280000000 cycles: 281240670 heartbeat IPC: 1.03357 cumulative IPC: 0.808252 (Simulation time: 0 hr 10 min 42 sec) 
Heartbeat CPU 0 instructions: 290000000 cycles: 291423856 heartbeat IPC: 0.982011 cumulative IPC: 0.815849 (Simulation time: 0 hr 11 min 7 sec) 
Heartbeat CPU 0 instructions: 300000000 cycles: 300346276 heartbeat IPC: 1.12077 cumulative IPC: 0.827101 (Simulation time: 0 hr 11 min 30 sec) 
Heartbeat CPU 0 instructions: 310000002 cycles: 315041713 heartbeat IPC: 0.680483 cumulative IPC: 0.818701 (Simulation time: 0 hr 11 min 57 sec) 
Heartbeat CPU 0 instructions: 320000000 cycles: 331565571 heartbeat IPC: 0.605185 cumulative IPC: 0.805779 (Simulation time: 0 hr 12 min 25 sec) 
Heartbeat CPU 0 instructions: 330000002 cycles: 342476776 heartbeat IPC: 0.916489 cumulative IPC: 0.810033 (Simulation time: 0 hr 12 min 49 sec) 
Heartbeat CPU 0 instructions: 340000000 cycles: 353375126 heartbeat IPC: 0.91757 cumulative IPC: 0.814008 (Simulation time: 0 hr 13 min 14 sec) 
Heartbeat CPU 0 instructions: 350000002 cycles: 366599176 heartbeat IPC: 0.756198 cumulative IPC: 0.811527 (Simulation time: 0 hr 13 min 40 sec) 
Heartbeat CPU 0 instructions: 360000000 cycles: 378270837 heartbeat IPC: 0.856776 cumulative IPC: 0.813178 (Simulation time: 0 hr 14 min 5 sec) 
Heartbeat CPU 0 instructions: 370000000 cycles: 389168945 heartbeat IPC: 0.91759 cumulative IPC: 0.81662 (Simulation time: 0 hr 14 min 29 sec) 
Heartbeat CPU 0 instructions: 380000000 cycles: 400145316 heartbeat IPC: 0.911048 cumulative IPC: 0.819654 (Simulation time: 0 hr 14 min 53 sec) 
Heartbeat CPU 0 instructions: 390000003 cycles: 417836763 heartbeat IPC: 0.565245 cumulative IPC: 0.807127 (Simulation time: 0 hr 15 min 23 sec) 
Heartbeat CPU 0 instructions: 400000000 cycles: 429407328 heartbeat IPC: 0.864262 cumulative IPC: 0.80891 (Simulation time: 0 hr 15 min 46 sec) 
Heartbeat CPU 0 instructions: 410000002 cycles: 440520716 heartbeat IPC: 0.899816 cumulative IPC: 0.811555 (Simulation time: 0 hr 16 min 9 sec) 
Heartbeat CPU 0 instructions: 420000000 cycles: 451269692 heartbeat IPC: 0.930321 cumulative IPC: 0.814805 (Simulation time: 0 hr 16 min 31 sec) 
Heartbeat CPU 0 instructions: 430000001 cycles: 462010794 heartbeat IPC: 0.931003 cumulative IPC: 0.817899 (Simulation time: 0 hr 16 min 54 sec) 
Heartbeat CPU 0 instructions: 440000000 cycles: 473975464 heartbeat IPC: 0.835794 cumulative IPC: 0.818414 (Simulation time: 0 hr 17 min 17 sec) 
Heartbeat CPU 0 instructions: 450000002 cycles: 489161554 heartbeat IPC: 0.658497 cumulative IPC: 0.812774 (Simulation time: 0 hr 17 min 41 sec) 
Heartbeat CPU 0 instructions: 460000000 cycles: 504386891 heartbeat IPC: 0.6568 cumulative IPC: 0.807448 (Simulation time: 0 hr 18 min 5 sec) 
Heartbeat CPU 0 instructions: 470000003 cycles: 519512883 heartbeat IPC: 0.661114 cumulative IPC: 0.802646 (Simulation time: 0 hr 18 min 29 sec) 
Heartbeat CPU 0 instructions: 480000000 cycles: 534908604 heartbeat IPC: 0.649531 cumulative IPC: 0.797698 (Simulation time: 0 hr 18 min 55 sec) 
Heartbeat CPU 0 instructions: 490000002 cycles: 553735085 heartbeat IPC: 0.531167 cumulative IPC: 0.787565 (Simulation time: 0 hr 19 min 24 sec) 
Heartbeat CPU 0 instructions: 500000000 cycles: 564451480 heartbeat IPC: 0.933149 cumulative IPC: 0.790649 (Simulation time: 0 hr 19 min 46 sec) 
Heartbeat CPU 0 instructions: 510000002 cycles: 574067800 heartbeat IPC: 1.0399 cumulative IPC: 0.795298 (Simulation time: 0 hr 20 min 8 sec) 
Heartbeat CPU 0 instructions: 520000000 cycles: 584177429 heartbeat IPC: 0.989156 cumulative IPC: 0.799026 (Simulation time: 0 hr 20 min 31 sec) 
Heartbeat CPU 0 instructions: 530000002 cycles: 594302048 heartbeat IPC: 0.987692 cumulative IPC: 0.802592 (Simulation time: 0 hr 20 min 54 sec) 
Heartbeat CPU 0 instructions: 540000000 cycles: 603917092 heartbeat IPC: 1.04004 cumulative IPC: 0.806778 (Simulation time: 0 hr 21 min 17 sec) 
Heartbeat CPU 0 instructions: 550000002 cycles: 614134422 heartbeat IPC: 0.978729 cumulative IPC: 0.80994 (Simulation time: 0 hr 21 min 42 sec) 
Heartbeat CPU 0 instructions: 560000000 cycles: 623062312 heartbeat IPC: 1.12009 cumulative IPC: 0.814845 (Simulation time: 0 hr 22 min 4 sec) 
Heartbeat CPU 0 instructions: 570000001 cycles: 637639057 heartbeat IPC: 0.686024 cumulative IPC: 0.811602 (Simulation time: 0 hr 22 min 31 sec) 
Heartbeat CPU 0 instructions: 580000000 cycles: 654190624 heartbeat IPC: 0.604172 cumulative IPC: 0.805838 (Simulation time: 0 hr 23 min 0 sec) 
Heartbeat CPU 0 instructions: 590000002 cycles: 664720195 heartbeat IPC: 0.949706 cumulative IPC: 0.808338 (Simulation time: 0 hr 23 min 23 sec) 
Heartbeat CPU 0 instructions: 600000000 cycles: 676037107 heartbeat IPC: 0.883633 cumulative IPC: 0.809717 (Simulation time: 0 hr 23 min 48 sec) 
Finished CPU 0 instructions: 500000000 cycles: 617499357 cumulative IPC: 0.809717 (Simulation time: 0 hr 23 min 48 sec) 

CPU 0 Branch Prediction Accuracy: 99.5219% MPKI: 0.251582
Number of Branches: 26312578 Number of Mispredictions: 125791
Number of LOAD Instructions: 235643083
Number of LOAD Instructions (ROI): 235643083
Number of STORE Instructions: 37593550
Number of STORE Instructions (ROI): 37593550
Total Destination Memory Operands: 40480968
Total Destination Memory Operands (ROI): 40480968
Total Source Memory Operands: 235643083
Total Source Memory Operands (ROI): 235643083
Number of DEPENDED LOADS: 6700220
Number of DEPENDED LOADS (ROI): 6700220
Number of SQ_ADDED: 40480950
Number of SQ_ADDED (ROI): 40480950
Number of LQ_ADDED: 397422679
Number of LQ_ADDED (ROI): 397422679
Number of Instructions read from trace: 600000259

ChampSim completed all CPUs

Region of Interest Statistics

CPU 0 cumulative IPC: 0.809717 instructions: 500000000 cycles: 617499357
ITLB TOTAL     ACCESS:  109353785  HIT:  109353272  MISS:        513
ITLB LOAD      ACCESS:  109353785  HIT:  109353272  MISS:        513
ITLB RFO       ACCESS:          0  HIT:          0  MISS:          0
ITLB PREFETCH  ACCESS:          0  HIT:          0  MISS:          0
ITLB WRITEBACK ACCESS:          0  HIT:          0  MISS:          0
ITLB PREFETCH  REQUESTED:          0  ISSUED:          0  USEFUL:          0  USELESS:          0
ITLB TOTAL MSHR MERGED:        971
ITLB LOAD MSHR MERGED:        971
ITLB RFO MSHR MERGED:          0
ITLB PREFETCH MSHR MERGED:          0
ITLB WRITEBACK MSHR MERGED:          0
ITLB TOTAL ACCESSES:  109354756 HITS:  109353272 MISSES:       1484
ITLB LOAD ACCESSES:  109354756 HITS:  109353272 MISSES:       1484
ITLB RFO ACCESSES:          0 HITS:          0 MISSES:          0
ITLB PREFETCH ACCESSES:          0 HITS:          0 MISSES:          0
ITLB WRITEBACK ACCESSES:          0 HITS:          0 MISSES:          0
ITLB RQ ACCESS:  500000003
ITLB RQ TO_CACHE:  109354756
ITLB RQ MERGED:  390645247
ITLB RQ FORWARD:          0
ITLB WQ ACCESS:          0
ITLB WQ TO_CACHE:          0
ITLB WQ MERGED:          0
ITLB WQ FORWARD:          0
DTLB TOTAL     ACCESS:  130398007  HIT:  130140393  MISS:     257614
DTLB LOAD      ACCESS:  109065953  HIT:  108845174  MISS:     220779
DTLB RFO       ACCESS:   21332054  HIT:   21295219  MISS:      36835
DTLB PREFETCH  ACCESS:          0  HIT:          0  MISS:          0
DTLB WRITEBACK ACCESS:          0  HIT:          0  MISS:          0
DTLB PREFETCH  REQUESTED:          0  ISSUED:          0  USEFUL:          0  USELESS:          0
DTLB TOTAL MSHR MERGED:     122779
DTLB LOAD MSHR MERGED:      84667
DTLB RFO MSHR MERGED:      38112
DTLB PREFETCH MSHR MERGED:          0
DTLB WRITEBACK MSHR MERGED:          0
DTLB TOTAL ACCESSES:  130520786 HITS:  130140393 MISSES:     380393
DTLB LOAD ACCESSES:  109150620 HITS:  108845174 MISSES:     305446
DTLB RFO ACCESSES:   21370166 HITS:   21295219 MISSES:      74947
DTLB PREFETCH ACCESSES:          0 HITS:          0 MISSES:          0
DTLB WRITEBACK ACCESSES:          0 HITS:          0 MISSES:          0
DTLB RQ ACCESS:  218634263
DTLB RQ TO_CACHE:  130520787
DTLB RQ MERGED:   88113476
DTLB RQ FORWARD:          0
DTLB WQ ACCESS:          0
DTLB WQ TO_CACHE:          0
DTLB WQ MERGED:          0
DTLB WQ FORWARD:          0
L1D TOTAL     ACCESS:  204681405  HIT:  193607185  MISS:   11074220
L1D LOAD      ACCESS:  106162992  HIT:  102925861  MISS:    3237131
L1D RFO       ACCESS:   26956115  HIT:   25204382  MISS:    1751733
L1D PREFETCH  ACCESS:   71562298  HIT:   65476942  MISS:    6085356
L1D WRITEBACK ACCESS:          0  HIT:          0  MISS:          0
L1D PREFETCH  REQUESTED:  108956176  ISSUED:  107307014  USEFUL:    5630183  USELESS:     455167
L1D TOTAL MSHR MERGED:   18425775
L1D LOAD MSHR MERGED:    4874021
L1D RFO MSHR MERGED:    6474871
L1D PREFETCH MSHR MERGED:    7076883
L1D WRITEBACK MSHR MERGED:          0
L1D TOTAL ACCESSES:  223172482 HITS:  193672487 MISSES:   29499995
L1D LOAD ACCESSES:  108984292 HITS:  102953977 MISSES:    6030315
L1D RFO ACCESSES:   33427762 HITS:   25204382 MISSES:    8223380
L1D PREFETCH ACCESSES:   80760428 HITS:   65514128 MISSES:   15246300
L1D WRITEBACK ACCESSES:          0 HITS:          0 MISSES:          0
L1D RQ ACCESS:  184990825
L1D RQ TO_CACHE:  108956176
L1D RQ MERGED:   76006533
L1D RQ FORWARD:          0
L1D WQ ACCESS:   33643426
L1D WQ TO_CACHE:   33427761
L1D WQ MERGED:     215665
L1D WQ FORWARD:      65302
L1I TOTAL     ACCESS:  134031613  HIT:  134007035  MISS:      24578
L1I LOAD      ACCESS:  134031613  HIT:  134007035  MISS:      24578
L1I RFO       ACCESS:          0  HIT:          0  MISS:          0
L1I PREFETCH  ACCESS:          0  HIT:          0  MISS:          0
L1I WRITEBACK ACCESS:          0  HIT:          0  MISS:          0
L1I PREFETCH  REQUESTED:          0  ISSUED:          0  USEFUL:          0  USELESS:          0
L1I TOTAL MSHR MERGED:      30713
L1I LOAD MSHR MERGED:      30713
L1I RFO MSHR MERGED:          0
L1I PREFETCH MSHR MERGED:          0
L1I WRITEBACK MSHR MERGED:          0
L1I TOTAL ACCESSES:  134062326 HITS:  134007035 MISSES:      55291
L1I LOAD ACCESSES:  134062326 HITS:  134007035 MISSES:      55291
L1I RFO ACCESSES:          0 HITS:          0 MISSES:          0
L1I PREFETCH ACCESSES:          0 HITS:          0 MISSES:          0
L1I WRITEBACK ACCESSES:          0 HITS:          0 MISSES:          0
L1I RQ ACCESS:  500000005
L1I RQ TO_CACHE:  134062326
L1I RQ MERGED:  365937679
L1I RQ FORWARD:          0
L1I WQ ACCESS:          0
L1I WQ TO_CACHE:          0
L1I WQ MERGED:          0
L1I WQ FORWARD:          0
L2C TOTAL     ACCESS:   14946882  HIT:    6945363  MISS:    8001519
L2C LOAD      ACCESS:    1180674  HIT:     298387  MISS:     882287
L2C RFO       ACCESS:    1748302  HIT:     369630  MISS:    1378672
L2C PREFETCH  ACCESS:    8336001  HIT:    2604120  MISS:    5731881
L2C WRITEBACK ACCESS:    3681905  HIT:    3673226  MISS:       8679
L2C PREFETCH  REQUESTED:     385644  ISSUED:     385644  USEFUL:     114644  USELESS:    5618072
L2C TOTAL MSHR MERGED:      42156
L2C LOAD MSHR MERGED:       2206
L2C RFO MSHR MERGED:       1273
L2C PREFETCH MSHR MERGED:      38677
L2C WRITEBACK MSHR MERGED:          0
L2C TOTAL ACCESSES:   15102307 HITS:    6946020 MISSES:    8156287
L2C LOAD ACCESSES:    1180872 HITS:     298585 MISSES:     882287
L2C RFO ACCESSES:    1748509 HITS:     369837 MISSES:    1378672
L2C PREFETCH ACCESSES:    8491021 HITS:    2604372 MISSES:    5886649
L2C WRITEBACK ACCESSES:    3681905 HITS:    3673226 MISSES:       8679
L2C RQ ACCESS:    2929381
L2C RQ TO_CACHE:    2928976
L2C RQ MERGED:          0
L2C RQ FORWARD:          0
L2C WQ ACCESS:    3681905
L2C WQ TO_CACHE:    3681905
L2C WQ MERGED:          0
L2C WQ FORWARD:        657
LLC TOTAL     ACCESS:   11185584  HIT:    3833199  MISS:    7352385
LLC LOAD      ACCESS:     880077  HIT:     233656  MISS:     646421
LLC RFO       ACCESS:    1377395  HIT:     177787  MISS:    1199608
LLC PREFETCH  ACCESS:    5823241  HIT:    1175970  MISS:    4647271
LLC WRITEBACK ACCESS:    3104871  HIT:    2245786  MISS:     859085
LLC PREFETCH  REQUESTED:          0  ISSUED:          0  USEFUL:     121516  USELESS:    4516249
LLC TOTAL MSHR MERGED:      17352
LLC LOAD MSHR MERGED:       4881
LLC RFO MSHR MERGED:        634
LLC PREFETCH MSHR MERGED:      11837
LLC WRITEBACK MSHR MERGED:          0
LLC TOTAL ACCESSES:   11202950 HITS:    3833213 MISSES:    7369737
LLC LOAD ACCESSES:     880081 HITS:     233660 MISSES:     646421
LLC RFO ACCESSES:    1377399 HITS:     177791 MISSES:    1199608
LLC PREFETCH ACCESSES:    5840599 HITS:    1175976 MISSES:    4664623
LLC WRITEBACK ACCESSES:    3104871 HITS:    2245786 MISSES:     859085
LLC 0 RQ ACCESS:    2257480
LLC 0 RQ TO_CACHE:    2257472
LLC 0 RQ MERGED:          0
LLC 0 RQ FORWARD:          0
LLC WQ ACCESS:    3104871
LLC WQ TO_CACHE:    3104871
LLC WQ MERGED:          0
LLC WQ FORWARD:         14
Major fault: 0 Minor fault: 11519
CPU 0 L1D next line prefetcher final stats
CPU 0 L2C PC-based stride prefetcher final stats
All Misses: 9146341
All Hits: 4650541
SD Algo Stats - Switches: 0 SRR-Repls: 731791 BRR-Repls: 0

DRAM Statistics
 CHANNEL 0
 RQ ROW_BUFFER_HIT:    3741719  ROW_BUFFER_MISS:    2750557
 DBUS_CONGESTED:    4846816
 WQ ROW_BUFFER_HIT:     584172  ROW_BUFFER_MISS:    1970458  FULL:          0

 AVG_CONGESTED_CYCLE: 13
LOADS RETIRED: 190375692
INSTR RETIRED: 500000000
