
*** ChampSim Multicore Out-of-Order Simulator ***

Warmup Instructions: 100000000
Simulation Instructions: 500000000
Number of CPUs: 1
LLC sets: 2048
LLC ways: 16
Clean RRIP Policies: 120002201200022 Dirty RRIP Policies: 1120202211202022 PSEL Width: 10 Track Set: 4294967295 PSEL Mask: 1 Demote Mask: 3200443132004431DS Algo: 0Window size: 0
Off-chip DRAM Size: 4096 MB Channels: 1 Width: 64-bit Data Rate: 1600 MT/s

CPU 0 runs /mnt/beegfs/iconst01/spec2017/Cam4.trace.gz
NOT SORTED
TRACE STRING: /mnt/beegfs/iconst01/spec2017/Cam4.trace.gz
SORTED
TRACE STRING: /mnt/beegfs/iconst01/spec2017/Cam4.trace.gz
INITIAL
TRACE STRING: /mnt/beegfs/iconst01/spec2017/Cam4.trace.gz

champsim_seed used: 325

CPU 0 L1D next line prefetcher
CPU 0 L2C IP-based stride prefetcher
Initialize DRRIP state
Assign rand_sets[0]: 454  LLC: 2048
rand_sets[0]: 454
Assign rand_sets[1]: 1662  LLC: 2048
rand_sets[1]: 1662
Assign rand_sets[2]: 1921  LLC: 2048
rand_sets[2]: 1921
Assign rand_sets[3]: 1131  LLC: 2048
rand_sets[3]: 1131
Assign rand_sets[4]: 331  LLC: 2048
rand_sets[4]: 331
Assign rand_sets[5]: 1531  LLC: 2048
rand_sets[5]: 1531
Assign rand_sets[6]: 482  LLC: 2048
rand_sets[6]: 482
Assign rand_sets[7]: 1275  LLC: 2048
rand_sets[7]: 1275
Assign rand_sets[8]: 1876  LLC: 2048
rand_sets[8]: 1876
Assign rand_sets[9]: 2038  LLC: 2048
rand_sets[9]: 2038
Assign rand_sets[10]: 701  LLC: 2048
rand_sets[10]: 701
Assign rand_sets[11]: 479  LLC: 2048
rand_sets[11]: 479
Assign rand_sets[12]: 892  LLC: 2048
rand_sets[12]: 892
Assign rand_sets[13]: 1820  LLC: 2048
rand_sets[13]: 1820
Assign rand_sets[14]: 1505  LLC: 2048
rand_sets[14]: 1505
Assign rand_sets[15]: 1159  LLC: 2048
rand_sets[15]: 1159
Assign rand_sets[16]: 513  LLC: 2048
rand_sets[16]: 513
Assign rand_sets[17]: 703  LLC: 2048
rand_sets[17]: 703
Assign rand_sets[18]: 561  LLC: 2048
rand_sets[18]: 561
Assign rand_sets[19]: 990  LLC: 2048
rand_sets[19]: 990
Assign rand_sets[20]: 342  LLC: 2048
rand_sets[20]: 342
Assign rand_sets[21]: 882  LLC: 2048
rand_sets[21]: 882
Assign rand_sets[22]: 15  LLC: 2048
rand_sets[22]: 15
Assign rand_sets[23]: 71  LLC: 2048
rand_sets[23]: 71
Assign rand_sets[24]: 1127  LLC: 2048
rand_sets[24]: 1127
Assign rand_sets[25]: 1382  LLC: 2048
rand_sets[25]: 1382
Assign rand_sets[26]: 647  LLC: 2048
rand_sets[26]: 647
Assign rand_sets[27]: 857  LLC: 2048
rand_sets[27]: 857
Assign rand_sets[28]: 1450  LLC: 2048
rand_sets[28]: 1450
Assign rand_sets[29]: 1160  LLC: 2048
rand_sets[29]: 1160
Assign rand_sets[30]: 1852  LLC: 2048
rand_sets[30]: 1852
Assign rand_sets[31]: 1881  LLC: 2048
rand_sets[31]: 1881
Assign rand_sets[32]: 1770  LLC: 2048
rand_sets[32]: 1770
Assign rand_sets[33]: 1622  LLC: 2048
rand_sets[33]: 1622
Assign rand_sets[34]: 275  LLC: 2048
rand_sets[34]: 275
Assign rand_sets[35]: 635  LLC: 2048
rand_sets[35]: 635
Assign rand_sets[36]: 466  LLC: 2048
rand_sets[36]: 466
Assign rand_sets[37]: 1413  LLC: 2048
rand_sets[37]: 1413
Assign rand_sets[38]: 417  LLC: 2048
rand_sets[38]: 417
Assign rand_sets[39]: 472  LLC: 2048
rand_sets[39]: 472
Assign rand_sets[40]: 1340  LLC: 2048
rand_sets[40]: 1340
Assign rand_sets[41]: 852  LLC: 2048
rand_sets[41]: 852
Assign rand_sets[42]: 1365  LLC: 2048
rand_sets[42]: 1365
Assign rand_sets[43]: 47  LLC: 2048
rand_sets[43]: 47
Assign rand_sets[44]: 823  LLC: 2048
rand_sets[44]: 823
Assign rand_sets[45]: 686  LLC: 2048
rand_sets[45]: 686
Assign rand_sets[46]: 1637  LLC: 2048
rand_sets[46]: 1637
Assign rand_sets[47]: 1115  LLC: 2048
rand_sets[47]: 1115
Assign rand_sets[48]: 986  LLC: 2048
rand_sets[48]: 986
Assign rand_sets[49]: 258  LLC: 2048
rand_sets[49]: 258
Assign rand_sets[50]: 633  LLC: 2048
rand_sets[50]: 633
Assign rand_sets[51]: 920  LLC: 2048
rand_sets[51]: 920
Assign rand_sets[52]: 204  LLC: 2048
rand_sets[52]: 204
Assign rand_sets[53]: 227  LLC: 2048
rand_sets[53]: 227
Assign rand_sets[54]: 1818  LLC: 2048
rand_sets[54]: 1818
Assign rand_sets[55]: 886  LLC: 2048
rand_sets[55]: 886
Assign rand_sets[56]: 1422  LLC: 2048
rand_sets[56]: 1422
Assign rand_sets[57]: 607  LLC: 2048
rand_sets[57]: 607
Assign rand_sets[58]: 217  LLC: 2048
rand_sets[58]: 217
Assign rand_sets[59]: 1945  LLC: 2048
rand_sets[59]: 1945
Assign rand_sets[60]: 143  LLC: 2048
rand_sets[60]: 143
Assign rand_sets[61]: 1311  LLC: 2048
rand_sets[61]: 1311
Assign rand_sets[62]: 319  LLC: 2048
rand_sets[62]: 319
Assign rand_sets[63]: 1846  LLC: 2048
rand_sets[63]: 1846
 CLEAN-RRIP-POLICY-1: 0-1-2-0-0-0-2-2- CLEAN-RRIP-POLICY-2: 0-1-2-0-0-0-2-2-
 DIRTY-RRIP-POLICY-1: 1-1-2-0-2-0-2-2- DIRTY-RRIP-POLICY-2: 1-1-2-0-2-0-2-2-
 PSEL width: 10
Heartbeat CPU 0 instructions: 10000000 cycles: 4859184 heartbeat IPC: 2.05796 cumulative IPC: 2.05796 (Simulation time: 0 hr 0 min 16 sec) 
Heartbeat CPU 0 instructions: 20000000 cycles: 9790761 heartbeat IPC: 2.02775 cumulative IPC: 2.04274 (Simulation time: 0 hr 0 min 33 sec) 
Heartbeat CPU 0 instructions: 30000001 cycles: 14563226 heartbeat IPC: 2.09535 cumulative IPC: 2.05998 (Simulation time: 0 hr 0 min 48 sec) 
Heartbeat CPU 0 instructions: 40000000 cycles: 19400302 heartbeat IPC: 2.06736 cumulative IPC: 2.06182 (Simulation time: 0 hr 1 min 5 sec) 
Heartbeat CPU 0 instructions: 50000000 cycles: 24257047 heartbeat IPC: 2.05899 cumulative IPC: 2.06126 (Simulation time: 0 hr 1 min 22 sec) 
Heartbeat CPU 0 instructions: 60000000 cycles: 29182673 heartbeat IPC: 2.0302 cumulative IPC: 2.05601 (Simulation time: 0 hr 1 min 38 sec) 
Heartbeat CPU 0 instructions: 70000001 cycles: 33957207 heartbeat IPC: 2.09445 cumulative IPC: 2.06142 (Simulation time: 0 hr 1 min 53 sec) 
Heartbeat CPU 0 instructions: 80000000 cycles: 38793556 heartbeat IPC: 2.06768 cumulative IPC: 2.0622 (Simulation time: 0 hr 2 min 10 sec) 
Heartbeat CPU 0 instructions: 90000002 cycles: 43647753 heartbeat IPC: 2.06007 cumulative IPC: 2.06196 (Simulation time: 0 hr 2 min 27 sec) 
Heartbeat CPU 0 instructions: 100000000 cycles: 48566760 heartbeat IPC: 2.03293 cumulative IPC: 2.05902 (Simulation time: 0 hr 2 min 44 sec) 

Warmup complete CPU 0 instructions: 100000001 cycles: 48566761 (Simulation time: 0 hr 2 min 44 sec) 

Heartbeat CPU 0 instructions: 110000000 cycles: 61908978 heartbeat IPC: 0.749501 cumulative IPC: 0.749501 (Simulation time: 0 hr 3 min 8 sec) 
Heartbeat CPU 0 instructions: 120000000 cycles: 75724198 heartbeat IPC: 0.723839 cumulative IPC: 0.736446 (Simulation time: 0 hr 3 min 33 sec) 
Heartbeat CPU 0 instructions: 130000000 cycles: 89583861 heartbeat IPC: 0.721518 cumulative IPC: 0.731402 (Simulation time: 0 hr 3 min 58 sec) 
Heartbeat CPU 0 instructions: 140000000 cycles: 103989496 heartbeat IPC: 0.694173 cumulative IPC: 0.721725 (Simulation time: 0 hr 4 min 24 sec) 
Heartbeat CPU 0 instructions: 150000003 cycles: 117380742 heartbeat IPC: 0.746757 cumulative IPC: 0.726597 (Simulation time: 0 hr 4 min 47 sec) 
Heartbeat CPU 0 instructions: 160000000 cycles: 131202314 heartbeat IPC: 0.723507 cumulative IPC: 0.72608 (Simulation time: 0 hr 5 min 13 sec) 
Heartbeat CPU 0 instructions: 170000001 cycles: 145089302 heartbeat IPC: 0.720099 cumulative IPC: 0.725219 (Simulation time: 0 hr 5 min 38 sec) 
Heartbeat CPU 0 instructions: 180000000 cycles: 159478284 heartbeat IPC: 0.694976 cumulative IPC: 0.721296 (Simulation time: 0 hr 6 min 4 sec) 
Heartbeat CPU 0 instructions: 190000003 cycles: 172844598 heartbeat IPC: 0.74815 cumulative IPC: 0.724184 (Simulation time: 0 hr 6 min 27 sec) 
Heartbeat CPU 0 instructions: 200000000 cycles: 186663222 heartbeat IPC: 0.723661 cumulative IPC: 0.724132 (Simulation time: 0 hr 6 min 53 sec) 
Heartbeat CPU 0 instructions: 210000002 cycles: 200541959 heartbeat IPC: 0.720527 cumulative IPC: 0.723802 (Simulation time: 0 hr 7 min 18 sec) 
Heartbeat CPU 0 instructions: 220000000 cycles: 214924164 heartbeat IPC: 0.695304 cumulative IPC: 0.721339 (Simulation time: 0 hr 7 min 44 sec) 
Heartbeat CPU 0 instructions: 230000001 cycles: 228208258 heartbeat IPC: 0.75278 cumulative IPC: 0.723664 (Simulation time: 0 hr 8 min 7 sec) 
Heartbeat CPU 0 instructions: 240000000 cycles: 242010201 heartbeat IPC: 0.724536 cumulative IPC: 0.723726 (Simulation time: 0 hr 8 min 33 sec) 
Heartbeat CPU 0 instructions: 250000001 cycles: 255824810 heartbeat IPC: 0.723871 cumulative IPC: 0.723735 (Simulation time: 0 hr 8 min 58 sec) 
Heartbeat CPU 0 instructions: 260000000 cycles: 270095628 heartbeat IPC: 0.700731 cumulative IPC: 0.722254 (Simulation time: 0 hr 9 min 24 sec) 
Heartbeat CPU 0 instructions: 270000003 cycles: 283565393 heartbeat IPC: 0.742404 cumulative IPC: 0.723408 (Simulation time: 0 hr 9 min 47 sec) 
Heartbeat CPU 0 instructions: 280000000 cycles: 297389652 heartbeat IPC: 0.723366 cumulative IPC: 0.723406 (Simulation time: 0 hr 10 min 12 sec) 
Heartbeat CPU 0 instructions: 290000001 cycles: 311242955 heartbeat IPC: 0.72185 cumulative IPC: 0.723324 (Simulation time: 0 hr 10 min 38 sec) 
Heartbeat CPU 0 instructions: 300000000 cycles: 325434342 heartbeat IPC: 0.704653 cumulative IPC: 0.722367 (Simulation time: 0 hr 11 min 3 sec) 
Heartbeat CPU 0 instructions: 310000000 cycles: 338986598 heartbeat IPC: 0.737885 cumulative IPC: 0.723091 (Simulation time: 0 hr 11 min 27 sec) 
Heartbeat CPU 0 instructions: 320000000 cycles: 352855788 heartbeat IPC: 0.721023 cumulative IPC: 0.722997 (Simulation time: 0 hr 11 min 52 sec) 
Heartbeat CPU 0 instructions: 330000000 cycles: 366742411 heartbeat IPC: 0.720118 cumulative IPC: 0.722871 (Simulation time: 0 hr 12 min 17 sec) 
Heartbeat CPU 0 instructions: 340000000 cycles: 380900022 heartbeat IPC: 0.706334 cumulative IPC: 0.722167 (Simulation time: 0 hr 12 min 43 sec) 
Heartbeat CPU 0 instructions: 350000000 cycles: 394509170 heartbeat IPC: 0.7348 cumulative IPC: 0.722664 (Simulation time: 0 hr 13 min 5 sec) 
Heartbeat CPU 0 instructions: 360000000 cycles: 408413163 heartbeat IPC: 0.719218 cumulative IPC: 0.72253 (Simulation time: 0 hr 13 min 31 sec) 
Heartbeat CPU 0 instructions: 370000003 cycles: 422296894 heartbeat IPC: 0.720268 cumulative IPC: 0.722446 (Simulation time: 0 hr 13 min 56 sec) 
Heartbeat CPU 0 instructions: 380000000 cycles: 436423676 heartbeat IPC: 0.707875 cumulative IPC: 0.721916 (Simulation time: 0 hr 14 min 21 sec) 
Heartbeat CPU 0 instructions: 390000003 cycles: 450019274 heartbeat IPC: 0.735532 cumulative IPC: 0.722377 (Simulation time: 0 hr 14 min 44 sec) 
Heartbeat CPU 0 instructions: 400000000 cycles: 463901171 heartbeat IPC: 0.720362 cumulative IPC: 0.72231 (Simulation time: 0 hr 15 min 9 sec) 
Heartbeat CPU 0 instructions: 410000000 cycles: 477727424 heartbeat IPC: 0.723262 cumulative IPC: 0.72234 (Simulation time: 0 hr 15 min 34 sec) 
Heartbeat CPU 0 instructions: 420000000 cycles: 491833867 heartbeat IPC: 0.708896 cumulative IPC: 0.721912 (Simulation time: 0 hr 15 min 59 sec) 
Heartbeat CPU 0 instructions: 430000003 cycles: 505487394 heartbeat IPC: 0.732412 cumulative IPC: 0.722226 (Simulation time: 0 hr 16 min 22 sec) 
Heartbeat CPU 0 instructions: 440000000 cycles: 519363219 heartbeat IPC: 0.720678 cumulative IPC: 0.72218 (Simulation time: 0 hr 16 min 47 sec) 
Heartbeat CPU 0 instructions: 450000000 cycles: 533220809 heartbeat IPC: 0.721626 cumulative IPC: 0.722165 (Simulation time: 0 hr 17 min 12 sec) 
Heartbeat CPU 0 instructions: 460000000 cycles: 547316645 heartbeat IPC: 0.709429 cumulative IPC: 0.721805 (Simulation time: 0 hr 17 min 37 sec) 
Heartbeat CPU 0 instructions: 470000001 cycles: 560838106 heartbeat IPC: 0.739565 cumulative IPC: 0.722273 (Simulation time: 0 hr 18 min 0 sec) 
Heartbeat CPU 0 instructions: 480000000 cycles: 574685794 heartbeat IPC: 0.722142 cumulative IPC: 0.72227 (Simulation time: 0 hr 18 min 25 sec) 
Heartbeat CPU 0 instructions: 490000002 cycles: 588507859 heartbeat IPC: 0.723481 cumulative IPC: 0.722301 (Simulation time: 0 hr 18 min 50 sec) 
Heartbeat CPU 0 instructions: 500000000 cycles: 602600274 heartbeat IPC: 0.709601 cumulative IPC: 0.721978 (Simulation time: 0 hr 19 min 15 sec) 
Heartbeat CPU 0 instructions: 510000002 cycles: 616170832 heartbeat IPC: 0.73689 cumulative IPC: 0.722335 (Simulation time: 0 hr 19 min 37 sec) 
Heartbeat CPU 0 instructions: 520000000 cycles: 630009935 heartbeat IPC: 0.72259 cumulative IPC: 0.722341 (Simulation time: 0 hr 20 min 2 sec) 
Heartbeat CPU 0 instructions: 530000003 cycles: 643815584 heartbeat IPC: 0.724341 cumulative IPC: 0.722387 (Simulation time: 0 hr 20 min 27 sec) 
Heartbeat CPU 0 instructions: 540000000 cycles: 657935884 heartbeat IPC: 0.7082 cumulative IPC: 0.722058 (Simulation time: 0 hr 20 min 52 sec) 
Heartbeat CPU 0 instructions: 550000003 cycles: 671512355 heartbeat IPC: 0.736569 cumulative IPC: 0.722374 (Simulation time: 0 hr 21 min 15 sec) 
Heartbeat CPU 0 instructions: 560000000 cycles: 685329678 heartbeat IPC: 0.723729 cumulative IPC: 0.722404 (Simulation time: 0 hr 21 min 40 sec) 
Heartbeat CPU 0 instructions: 570000001 cycles: 699171230 heartbeat IPC: 0.722462 cumulative IPC: 0.722405 (Simulation time: 0 hr 22 min 5 sec) 
Heartbeat CPU 0 instructions: 580000000 cycles: 713313390 heartbeat IPC: 0.707106 cumulative IPC: 0.72208 (Simulation time: 0 hr 22 min 30 sec) 
Heartbeat CPU 0 instructions: 590000000 cycles: 726830190 heartbeat IPC: 0.73982 cumulative IPC: 0.722433 (Simulation time: 0 hr 22 min 53 sec) 
Heartbeat CPU 0 instructions: 600000000 cycles: 740656558 heartbeat IPC: 0.723256 cumulative IPC: 0.72245 (Simulation time: 0 hr 23 min 18 sec) 
Finished CPU 0 instructions: 500000001 cycles: 692089805 cumulative IPC: 0.72245 (Simulation time: 0 hr 23 min 18 sec) 

CPU 0 Branch Prediction Accuracy: 97.5275% MPKI: 2.1997
Number of Branches: 44482865 Number of Mispredictions: 1099852
Number of LOAD Instructions: 144955155
Number of LOAD Instructions (ROI): 144955155
Number of STORE Instructions: 55921098
Number of STORE Instructions (ROI): 55921098
Total Destination Memory Operands: 57111147
Total Destination Memory Operands (ROI): 57111147
Total Source Memory Operands: 144955155
Total Source Memory Operands (ROI): 144955155
Number of DEPENDED LOADS: 13455498
Number of DEPENDED LOADS (ROI): 13455498
Number of SQ_ADDED: 57111126
Number of SQ_ADDED (ROI): 57111126
Number of LQ_ADDED: 175632886
Number of LQ_ADDED (ROI): 175632886
Number of Instructions read from trace: 600000256

ChampSim completed all CPUs

Region of Interest Statistics

CPU 0 cumulative IPC: 0.72245 instructions: 500000001 cycles: 692089805
ITLB TOTAL     ACCESS:  136062551  HIT:  136059998  MISS:       2553
ITLB LOAD      ACCESS:  136062551  HIT:  136059998  MISS:       2553
ITLB RFO       ACCESS:          0  HIT:          0  MISS:          0
ITLB PREFETCH  ACCESS:          0  HIT:          0  MISS:          0
ITLB WRITEBACK ACCESS:          0  HIT:          0  MISS:          0
ITLB PREFETCH  REQUESTED:          0  ISSUED:          0  USEFUL:          0  USELESS:          0
ITLB TOTAL MSHR MERGED:       4408
ITLB LOAD MSHR MERGED:       4408
ITLB RFO MSHR MERGED:          0
ITLB PREFETCH MSHR MERGED:          0
ITLB WRITEBACK MSHR MERGED:          0
ITLB TOTAL ACCESSES:  136066959 HITS:  136059998 MISSES:       6961
ITLB LOAD ACCESSES:  136066959 HITS:  136059998 MISSES:       6961
ITLB RFO ACCESSES:          0 HITS:          0 MISSES:          0
ITLB PREFETCH ACCESSES:          0 HITS:          0 MISSES:          0
ITLB WRITEBACK ACCESSES:          0 HITS:          0 MISSES:          0
ITLB RQ ACCESS:  500000202
ITLB RQ TO_CACHE:  136066959
ITLB RQ MERGED:  363933243
ITLB RQ FORWARD:          0
ITLB WQ ACCESS:          0
ITLB WQ TO_CACHE:          0
ITLB WQ MERGED:          0
ITLB WQ FORWARD:          0
DTLB TOTAL     ACCESS:  111534666  HIT:  111398472  MISS:     136194
DTLB LOAD      ACCESS:   78942748  HIT:   78817123  MISS:     125625
DTLB RFO       ACCESS:   32591918  HIT:   32581349  MISS:      10569
DTLB PREFETCH  ACCESS:          0  HIT:          0  MISS:          0
DTLB WRITEBACK ACCESS:          0  HIT:          0  MISS:          0
DTLB PREFETCH  REQUESTED:          0  ISSUED:          0  USEFUL:          0  USELESS:          0
DTLB TOTAL MSHR MERGED:      63713
DTLB LOAD MSHR MERGED:      51318
DTLB RFO MSHR MERGED:      12395
DTLB PREFETCH MSHR MERGED:          0
DTLB WRITEBACK MSHR MERGED:          0
DTLB TOTAL ACCESSES:  111598379 HITS:  111398472 MISSES:     199907
DTLB LOAD ACCESSES:   78994066 HITS:   78817123 MISSES:     176943
DTLB RFO ACCESSES:   32604313 HITS:   32581349 MISSES:      22964
DTLB PREFETCH ACCESSES:          0 HITS:          0 MISSES:          0
DTLB WRITEBACK ACCESSES:          0 HITS:          0 MISSES:          0
DTLB RQ ACCESS:  157179915
DTLB RQ TO_CACHE:  111598379
DTLB RQ MERGED:   45581536
DTLB RQ FORWARD:          0
DTLB WQ ACCESS:          0
DTLB WQ TO_CACHE:          0
DTLB WQ MERGED:          0
DTLB WQ FORWARD:          0
L1D TOTAL     ACCESS:  198057219  HIT:  188216389  MISS:    9840830
L1D LOAD      ACCESS:   79920860  HIT:   75646075  MISS:    4274785
L1D RFO       ACCESS:   44454155  HIT:   43553532  MISS:     900623
L1D PREFETCH  ACCESS:   73682204  HIT:   69016782  MISS:    4665422
L1D WRITEBACK ACCESS:          0  HIT:          0  MISS:          0
L1D PREFETCH  REQUESTED:   80331136  ISSUED:   79875646  USEFUL:    1807173  USELESS:    2858158
L1D TOTAL MSHR MERGED:    2638232
L1D LOAD MSHR MERGED:     545534
L1D RFO MSHR MERGED:    1494992
L1D PREFETCH MSHR MERGED:     597706
L1D WRITEBACK MSHR MERGED:          0
L1D TOTAL ACCESSES:  200721992 HITS:  188242930 MISSES:   12479062
L1D LOAD ACCESSES:   80348954 HITS:   75663893 MISSES:    4685061
L1D RFO ACCESSES:   45946635 HITS:   43553532 MISSES:    2393103
L1D PREFETCH ACCESSES:   74426403 HITS:   69025505 MISSES:    5400898
L1D WRITEBACK ACCESSES:          0 HITS:          0 MISSES:          0
L1D RQ ACCESS:  109537945
L1D RQ TO_CACHE:   80331136
L1D RQ MERGED:   29188991
L1D RQ FORWARD:          0
L1D WQ ACCESS:   47641970
L1D WQ TO_CACHE:   45946635
L1D WQ MERGED:    1695335
L1D WQ FORWARD:      26541
L1I TOTAL     ACCESS:  161531321  HIT:  161267361  MISS:     263960
L1I LOAD      ACCESS:  161531321  HIT:  161267361  MISS:     263960
L1I RFO       ACCESS:          0  HIT:          0  MISS:          0
L1I PREFETCH  ACCESS:          0  HIT:          0  MISS:          0
L1I WRITEBACK ACCESS:          0  HIT:          0  MISS:          0
L1I PREFETCH  REQUESTED:          0  ISSUED:          0  USEFUL:          0  USELESS:          0
L1I TOTAL MSHR MERGED:     259953
L1I LOAD MSHR MERGED:     259953
L1I RFO MSHR MERGED:          0
L1I PREFETCH MSHR MERGED:          0
L1I WRITEBACK MSHR MERGED:          0
L1I TOTAL ACCESSES:  161791274 HITS:  161267361 MISSES:     523913
L1I LOAD ACCESSES:  161791274 HITS:  161267361 MISSES:     523913
L1I RFO ACCESSES:          0 HITS:          0 MISSES:          0
L1I PREFETCH ACCESSES:          0 HITS:          0 MISSES:          0
L1I WRITEBACK ACCESSES:          0 HITS:          0 MISSES:          0
L1I RQ ACCESS:  500000202
L1I RQ TO_CACHE:  161791274
L1I RQ MERGED:  338208928
L1I RQ FORWARD:          0
L1I WQ ACCESS:          0
L1I WQ TO_CACHE:          0
L1I WQ MERGED:          0
L1I WQ FORWARD:          0
L2C TOTAL     ACCESS:   11772929  HIT:   10383641  MISS:    1389288
L2C LOAD      ACCESS:    4403422  HIT:    3907432  MISS:     495990
L2C RFO       ACCESS:     898041  HIT:     536270  MISS:     361771
L2C PREFETCH  ACCESS:    5283995  HIT:    4755413  MISS:     528582
L2C WRITEBACK ACCESS:    1187471  HIT:    1184526  MISS:       2945
L2C PREFETCH  REQUESTED:     504235  ISSUED:     504235  USEFUL:     115735  USELESS:     413040
L2C TOTAL MSHR MERGED:       1779
L2C LOAD MSHR MERGED:        319
L2C RFO MSHR MERGED:          0
L2C PREFETCH MSHR MERGED:       1460
L2C WRITEBACK MSHR MERGED:          0
L2C TOTAL ACCESSES:   11776032 HITS:   10383863 MISSES:    1392169
L2C LOAD ACCESSES:    4403487 HITS:    3907497 MISSES:     495990
L2C RFO ACCESSES:     898111 HITS:     536340 MISSES:     361771
L2C PREFETCH ACCESSES:    5286963 HITS:    4755500 MISSES:     531463
L2C WRITEBACK ACCESSES:    1187471 HITS:    1184526 MISSES:       2945
L2C RQ ACCESS:    5301598
L2C RQ TO_CACHE:    5301463
L2C RQ MERGED:          0
L2C RQ FORWARD:          0
L2C WQ ACCESS:    1187471
L2C WQ TO_CACHE:    1187471
L2C WQ MERGED:          0
L2C WQ FORWARD:        222
LLC TOTAL     ACCESS:    1848099  HIT:    1136710  MISS:     711389
LLC LOAD      ACCESS:     495668  HIT:     292094  MISS:     203574
LLC RFO       ACCESS:     361765  HIT:      96096  MISS:     265669
LLC PREFETCH  ACCESS:     529956  HIT:     354701  MISS:     175255
LLC WRITEBACK ACCESS:     460710  HIT:     393819  MISS:      66891
LLC PREFETCH  REQUESTED:          0  ISSUED:          0  USEFUL:      29070  USELESS:     150203
LLC TOTAL MSHR MERGED:         20
LLC LOAD MSHR MERGED:         10
LLC RFO MSHR MERGED:          0
LLC PREFETCH MSHR MERGED:         10
LLC WRITEBACK MSHR MERGED:          0
LLC TOTAL ACCESSES:    1848149 HITS:    1136740 MISSES:     711409
LLC LOAD ACCESSES:     495671 HITS:     292097 MISSES:     203574
LLC RFO ACCESSES:     361771 HITS:      96102 MISSES:     265669
LLC PREFETCH ACCESSES:     529997 HITS:     354722 MISSES:     175275
LLC WRITEBACK ACCESSES:     460710 HITS:     393819 MISSES:      66891
LLC 0 RQ ACCESS:     857442
LLC 0 RQ TO_CACHE:     857433
LLC 0 RQ MERGED:          0
LLC 0 RQ FORWARD:          0
LLC WQ ACCESS:     460710
LLC WQ TO_CACHE:     460710
LLC WQ MERGED:          0
LLC WQ FORWARD:         30
Major fault: 0 Minor fault: 3073
CPU 0 L1D next line prefetcher final stats
CPU 0 L2C PC-based stride prefetcher final stats
All Misses: 855443
All Hits: 1319350
SD Algo Stats - Switches: 0 SRR-Repls: 241243 BRR-Repls: 0

DRAM Statistics
 CHANNEL 0
 RQ ROW_BUFFER_HIT:     310369  ROW_BUFFER_MISS:     333208
 DBUS_CONGESTED:     626864
 WQ ROW_BUFFER_HIT:      78500  ROW_BUFFER_MISS:     281154  FULL:          0

 AVG_CONGESTED_CYCLE: 13
LOADS RETIRED: 120673965
INSTR RETIRED: 500000000
