
*** ChampSim Multicore Out-of-Order Simulator ***

Warmup Instructions: 100000000
Simulation Instructions: 500000000
Number of CPUs: 1
LLC sets: 2048
LLC ways: 16
Clean RRIP Policies: 2213230222132302 Dirty RRIP Policies: 2203130222031302 PSEL Width: 10 Track Set: 4294967295 PSEL Mask: 1 Demote Mask: 3000100030001000DS Algo: 0Window size: 0
Off-chip DRAM Size: 4096 MB Channels: 1 Width: 64-bit Data Rate: 1600 MT/s

CPU 0 runs /mnt/beegfs/iconst01/spec2017/Xz.trace.gz
NOT SORTED
TRACE STRING: /mnt/beegfs/iconst01/spec2017/Xz.trace.gz
SORTED
TRACE STRING: /mnt/beegfs/iconst01/spec2017/Xz.trace.gz
INITIAL
TRACE STRING: /mnt/beegfs/iconst01/spec2017/Xz.trace.gz

champsim_seed used: 210

CPU 0 L1D next line prefetcher
CPU 0 L2C IP-based stride prefetcher
Initialize DRRIP state
Assign rand_sets[0]: 454  LLC: 2048
rand_sets[0]: 454
Assign rand_sets[1]: 1662  LLC: 2048
rand_sets[1]: 1662
Assign rand_sets[2]: 1921  LLC: 2048
rand_sets[2]: 1921
Assign rand_sets[3]: 1131  LLC: 2048
rand_sets[3]: 1131
Assign rand_sets[4]: 331  LLC: 2048
rand_sets[4]: 331
Assign rand_sets[5]: 1531  LLC: 2048
rand_sets[5]: 1531
Assign rand_sets[6]: 482  LLC: 2048
rand_sets[6]: 482
Assign rand_sets[7]: 1275  LLC: 2048
rand_sets[7]: 1275
Assign rand_sets[8]: 1876  LLC: 2048
rand_sets[8]: 1876
Assign rand_sets[9]: 2038  LLC: 2048
rand_sets[9]: 2038
Assign rand_sets[10]: 701  LLC: 2048
rand_sets[10]: 701
Assign rand_sets[11]: 479  LLC: 2048
rand_sets[11]: 479
Assign rand_sets[12]: 892  LLC: 2048
rand_sets[12]: 892
Assign rand_sets[13]: 1820  LLC: 2048
rand_sets[13]: 1820
Assign rand_sets[14]: 1505  LLC: 2048
rand_sets[14]: 1505
Assign rand_sets[15]: 1159  LLC: 2048
rand_sets[15]: 1159
Assign rand_sets[16]: 513  LLC: 2048
rand_sets[16]: 513
Assign rand_sets[17]: 703  LLC: 2048
rand_sets[17]: 703
Assign rand_sets[18]: 561  LLC: 2048
rand_sets[18]: 561
Assign rand_sets[19]: 990  LLC: 2048
rand_sets[19]: 990
Assign rand_sets[20]: 342  LLC: 2048
rand_sets[20]: 342
Assign rand_sets[21]: 882  LLC: 2048
rand_sets[21]: 882
Assign rand_sets[22]: 15  LLC: 2048
rand_sets[22]: 15
Assign rand_sets[23]: 71  LLC: 2048
rand_sets[23]: 71
Assign rand_sets[24]: 1127  LLC: 2048
rand_sets[24]: 1127
Assign rand_sets[25]: 1382  LLC: 2048
rand_sets[25]: 1382
Assign rand_sets[26]: 647  LLC: 2048
rand_sets[26]: 647
Assign rand_sets[27]: 857  LLC: 2048
rand_sets[27]: 857
Assign rand_sets[28]: 1450  LLC: 2048
rand_sets[28]: 1450
Assign rand_sets[29]: 1160  LLC: 2048
rand_sets[29]: 1160
Assign rand_sets[30]: 1852  LLC: 2048
rand_sets[30]: 1852
Assign rand_sets[31]: 1881  LLC: 2048
rand_sets[31]: 1881
Assign rand_sets[32]: 1770  LLC: 2048
rand_sets[32]: 1770
Assign rand_sets[33]: 1622  LLC: 2048
rand_sets[33]: 1622
Assign rand_sets[34]: 275  LLC: 2048
rand_sets[34]: 275
Assign rand_sets[35]: 635  LLC: 2048
rand_sets[35]: 635
Assign rand_sets[36]: 466  LLC: 2048
rand_sets[36]: 466
Assign rand_sets[37]: 1413  LLC: 2048
rand_sets[37]: 1413
Assign rand_sets[38]: 417  LLC: 2048
rand_sets[38]: 417
Assign rand_sets[39]: 472  LLC: 2048
rand_sets[39]: 472
Assign rand_sets[40]: 1340  LLC: 2048
rand_sets[40]: 1340
Assign rand_sets[41]: 852  LLC: 2048
rand_sets[41]: 852
Assign rand_sets[42]: 1365  LLC: 2048
rand_sets[42]: 1365
Assign rand_sets[43]: 47  LLC: 2048
rand_sets[43]: 47
Assign rand_sets[44]: 823  LLC: 2048
rand_sets[44]: 823
Assign rand_sets[45]: 686  LLC: 2048
rand_sets[45]: 686
Assign rand_sets[46]: 1637  LLC: 2048
rand_sets[46]: 1637
Assign rand_sets[47]: 1115  LLC: 2048
rand_sets[47]: 1115
Assign rand_sets[48]: 986  LLC: 2048
rand_sets[48]: 986
Assign rand_sets[49]: 258  LLC: 2048
rand_sets[49]: 258
Assign rand_sets[50]: 633  LLC: 2048
rand_sets[50]: 633
Assign rand_sets[51]: 920  LLC: 2048
rand_sets[51]: 920
Assign rand_sets[52]: 204  LLC: 2048
rand_sets[52]: 204
Assign rand_sets[53]: 227  LLC: 2048
rand_sets[53]: 227
Assign rand_sets[54]: 1818  LLC: 2048
rand_sets[54]: 1818
Assign rand_sets[55]: 886  LLC: 2048
rand_sets[55]: 886
Assign rand_sets[56]: 1422  LLC: 2048
rand_sets[56]: 1422
Assign rand_sets[57]: 607  LLC: 2048
rand_sets[57]: 607
Assign rand_sets[58]: 217  LLC: 2048
rand_sets[58]: 217
Assign rand_sets[59]: 1945  LLC: 2048
rand_sets[59]: 1945
Assign rand_sets[60]: 143  LLC: 2048
rand_sets[60]: 143
Assign rand_sets[61]: 1311  LLC: 2048
rand_sets[61]: 1311
Assign rand_sets[62]: 319  LLC: 2048
rand_sets[62]: 319
Assign rand_sets[63]: 1846  LLC: 2048
rand_sets[63]: 1846
 CLEAN-RRIP-POLICY-1: 2-2-1-3-2-3-0-2- CLEAN-RRIP-POLICY-2: 2-2-1-3-2-3-0-2-
 DIRTY-RRIP-POLICY-1: 2-2-0-3-1-3-0-2- DIRTY-RRIP-POLICY-2: 2-2-0-3-1-3-0-2-
 PSEL width: 10
Heartbeat CPU 0 instructions: 10000000 cycles: 4305270 heartbeat IPC: 2.32273 cumulative IPC: 2.32273 (Simulation time: 0 hr 0 min 12 sec) 
Heartbeat CPU 0 instructions: 20000000 cycles: 8617101 heartbeat IPC: 2.3192 cumulative IPC: 2.32097 (Simulation time: 0 hr 0 min 25 sec) 
Heartbeat CPU 0 instructions: 30000003 cycles: 13160977 heartbeat IPC: 2.20076 cumulative IPC: 2.27947 (Simulation time: 0 hr 0 min 37 sec) 
Heartbeat CPU 0 instructions: 40000000 cycles: 17515448 heartbeat IPC: 2.29649 cumulative IPC: 2.2837 (Simulation time: 0 hr 0 min 50 sec) 
Heartbeat CPU 0 instructions: 50000001 cycles: 21878248 heartbeat IPC: 2.29211 cumulative IPC: 2.28537 (Simulation time: 0 hr 1 min 2 sec) 
Heartbeat CPU 0 instructions: 60000000 cycles: 26178428 heartbeat IPC: 2.32548 cumulative IPC: 2.29196 (Simulation time: 0 hr 1 min 14 sec) 
Heartbeat CPU 0 instructions: 70000001 cycles: 30244306 heartbeat IPC: 2.45949 cumulative IPC: 2.31449 (Simulation time: 0 hr 1 min 25 sec) 
Heartbeat CPU 0 instructions: 80000000 cycles: 34523058 heartbeat IPC: 2.33713 cumulative IPC: 2.31729 (Simulation time: 0 hr 1 min 37 sec) 
Heartbeat CPU 0 instructions: 90000001 cycles: 38739667 heartbeat IPC: 2.37157 cumulative IPC: 2.3232 (Simulation time: 0 hr 1 min 49 sec) 
Heartbeat CPU 0 instructions: 100000000 cycles: 42980043 heartbeat IPC: 2.35828 cumulative IPC: 2.32666 (Simulation time: 0 hr 2 min 1 sec) 

Warmup complete CPU 0 instructions: 100000001 cycles: 42980044 (Simulation time: 0 hr 2 min 1 sec) 

Heartbeat CPU 0 instructions: 110000000 cycles: 53113174 heartbeat IPC: 0.986862 cumulative IPC: 0.986862 (Simulation time: 0 hr 2 min 19 sec) 
Heartbeat CPU 0 instructions: 120000000 cycles: 63735534 heartbeat IPC: 0.94141 cumulative IPC: 0.9636 (Simulation time: 0 hr 2 min 38 sec) 
Heartbeat CPU 0 instructions: 130000001 cycles: 74333635 heartbeat IPC: 0.943565 cumulative IPC: 0.956828 (Simulation time: 0 hr 2 min 56 sec) 
Heartbeat CPU 0 instructions: 140000000 cycles: 84020407 heartbeat IPC: 1.03234 cumulative IPC: 0.97465 (Simulation time: 0 hr 3 min 14 sec) 
Heartbeat CPU 0 instructions: 150000001 cycles: 94331805 heartbeat IPC: 0.969801 cumulative IPC: 0.973676 (Simulation time: 0 hr 3 min 32 sec) 
Heartbeat CPU 0 instructions: 160000000 cycles: 104381446 heartbeat IPC: 0.99506 cumulative IPC: 0.977176 (Simulation time: 0 hr 3 min 50 sec) 
Heartbeat CPU 0 instructions: 170000000 cycles: 114050141 heartbeat IPC: 1.03427 cumulative IPC: 0.984943 (Simulation time: 0 hr 4 min 8 sec) 
Heartbeat CPU 0 instructions: 180000000 cycles: 124606148 heartbeat IPC: 0.947328 cumulative IPC: 0.980079 (Simulation time: 0 hr 4 min 26 sec) 
Heartbeat CPU 0 instructions: 190000001 cycles: 134870957 heartbeat IPC: 0.974202 cumulative IPC: 0.979422 (Simulation time: 0 hr 4 min 44 sec) 
Heartbeat CPU 0 instructions: 200000000 cycles: 145444514 heartbeat IPC: 0.945755 cumulative IPC: 0.975948 (Simulation time: 0 hr 5 min 2 sec) 
Heartbeat CPU 0 instructions: 210000002 cycles: 157894514 heartbeat IPC: 0.803213 cumulative IPC: 0.957234 (Simulation time: 0 hr 5 min 22 sec) 
Heartbeat CPU 0 instructions: 220000000 cycles: 170426616 heartbeat IPC: 0.797951 cumulative IPC: 0.941571 (Simulation time: 0 hr 5 min 42 sec) 
Heartbeat CPU 0 instructions: 230000000 cycles: 182595777 heartbeat IPC: 0.821749 cumulative IPC: 0.931127 (Simulation time: 0 hr 6 min 1 sec) 
Heartbeat CPU 0 instructions: 240000000 cycles: 194729855 heartbeat IPC: 0.824125 cumulative IPC: 0.922571 (Simulation time: 0 hr 6 min 20 sec) 
Heartbeat CPU 0 instructions: 250000000 cycles: 206713077 heartbeat IPC: 0.8345 cumulative IPC: 0.916125 (Simulation time: 0 hr 6 min 40 sec) 
Heartbeat CPU 0 instructions: 260000000 cycles: 218274941 heartbeat IPC: 0.864912 cumulative IPC: 0.912748 (Simulation time: 0 hr 6 min 59 sec) 
Heartbeat CPU 0 instructions: 270000003 cycles: 230151871 heartbeat IPC: 0.841969 cumulative IPC: 0.908256 (Simulation time: 0 hr 7 min 19 sec) 
Heartbeat CPU 0 instructions: 280000000 cycles: 241697250 heartbeat IPC: 0.866147 cumulative IPC: 0.90581 (Simulation time: 0 hr 7 min 38 sec) 
Heartbeat CPU 0 instructions: 290000002 cycles: 253216663 heartbeat IPC: 0.8681 cumulative IPC: 0.903744 (Simulation time: 0 hr 7 min 57 sec) 
Heartbeat CPU 0 instructions: 300000000 cycles: 265679474 heartbeat IPC: 0.802387 cumulative IPC: 0.898071 (Simulation time: 0 hr 8 min 17 sec) 
Heartbeat CPU 0 instructions: 310000000 cycles: 277845785 heartbeat IPC: 0.821942 cumulative IPC: 0.894128 (Simulation time: 0 hr 8 min 37 sec) 
Heartbeat CPU 0 instructions: 320000000 cycles: 290498809 heartbeat IPC: 0.790325 cumulative IPC: 0.888821 (Simulation time: 0 hr 8 min 57 sec) 
Heartbeat CPU 0 instructions: 330000003 cycles: 302452379 heartbeat IPC: 0.83657 cumulative IPC: 0.886414 (Simulation time: 0 hr 9 min 16 sec) 
Heartbeat CPU 0 instructions: 340000000 cycles: 314578899 heartbeat IPC: 0.824639 cumulative IPC: 0.883656 (Simulation time: 0 hr 9 min 36 sec) 
Heartbeat CPU 0 instructions: 350000001 cycles: 325579910 heartbeat IPC: 0.909007 cumulative IPC: 0.884643 (Simulation time: 0 hr 9 min 55 sec) 
Heartbeat CPU 0 instructions: 360000000 cycles: 337372284 heartbeat IPC: 0.848006 cumulative IPC: 0.883175 (Simulation time: 0 hr 10 min 14 sec) 
Heartbeat CPU 0 instructions: 370000001 cycles: 348787954 heartbeat IPC: 0.875989 cumulative IPC: 0.882907 (Simulation time: 0 hr 10 min 33 sec) 
Heartbeat CPU 0 instructions: 380000000 cycles: 359792997 heartbeat IPC: 0.908674 cumulative IPC: 0.883802 (Simulation time: 0 hr 10 min 53 sec) 
Heartbeat CPU 0 instructions: 390000003 cycles: 370418683 heartbeat IPC: 0.941116 cumulative IPC: 0.885662 (Simulation time: 0 hr 11 min 11 sec) 
Heartbeat CPU 0 instructions: 400000000 cycles: 380649091 heartbeat IPC: 0.977478 cumulative IPC: 0.888444 (Simulation time: 0 hr 11 min 30 sec) 
Heartbeat CPU 0 instructions: 410000000 cycles: 391179345 heartbeat IPC: 0.949645 cumulative IPC: 0.890295 (Simulation time: 0 hr 11 min 49 sec) 
Heartbeat CPU 0 instructions: 420000000 cycles: 400574060 heartbeat IPC: 1.06443 cumulative IPC: 0.89487 (Simulation time: 0 hr 12 min 7 sec) 
Heartbeat CPU 0 instructions: 430000002 cycles: 409662901 heartbeat IPC: 1.10025 cumulative IPC: 0.89996 (Simulation time: 0 hr 12 min 25 sec) 
Heartbeat CPU 0 instructions: 440000000 cycles: 419933523 heartbeat IPC: 0.973651 cumulative IPC: 0.901968 (Simulation time: 0 hr 12 min 44 sec) 
Heartbeat CPU 0 instructions: 450000002 cycles: 431023971 heartbeat IPC: 0.901677 cumulative IPC: 0.90196 (Simulation time: 0 hr 13 min 2 sec) 
Heartbeat CPU 0 instructions: 460000000 cycles: 442566660 heartbeat IPC: 0.866349 cumulative IPC: 0.900931 (Simulation time: 0 hr 13 min 21 sec) 
Heartbeat CPU 0 instructions: 470000003 cycles: 452769774 heartbeat IPC: 0.980093 cumulative IPC: 0.902902 (Simulation time: 0 hr 13 min 39 sec) 
Heartbeat CPU 0 instructions: 480000000 cycles: 463318820 heartbeat IPC: 0.947953 cumulative IPC: 0.904033 (Simulation time: 0 hr 13 min 58 sec) 
Heartbeat CPU 0 instructions: 490000000 cycles: 473274733 heartbeat IPC: 1.00443 cumulative IPC: 0.906356 (Simulation time: 0 hr 14 min 16 sec) 
Heartbeat CPU 0 instructions: 500000000 cycles: 485056777 heartbeat IPC: 0.848749 cumulative IPC: 0.90482 (Simulation time: 0 hr 14 min 34 sec) 
Heartbeat CPU 0 instructions: 510000002 cycles: 497468243 heartbeat IPC: 0.805707 cumulative IPC: 0.902114 (Simulation time: 0 hr 14 min 54 sec) 
Heartbeat CPU 0 instructions: 520000000 cycles: 509320589 heartbeat IPC: 0.843715 cumulative IPC: 0.900629 (Simulation time: 0 hr 15 min 13 sec) 
Heartbeat CPU 0 instructions: 530000001 cycles: 521163408 heartbeat IPC: 0.844394 cumulative IPC: 0.899237 (Simulation time: 0 hr 15 min 32 sec) 
Heartbeat CPU 0 instructions: 540000000 cycles: 532774830 heartbeat IPC: 0.861221 cumulative IPC: 0.898335 (Simulation time: 0 hr 15 min 50 sec) 
Heartbeat CPU 0 instructions: 550000001 cycles: 544167438 heartbeat IPC: 0.877762 cumulative IPC: 0.897868 (Simulation time: 0 hr 16 min 9 sec) 
Heartbeat CPU 0 instructions: 560000000 cycles: 555732051 heartbeat IPC: 0.864707 cumulative IPC: 0.89712 (Simulation time: 0 hr 16 min 28 sec) 
Heartbeat CPU 0 instructions: 570000000 cycles: 567139542 heartbeat IPC: 0.876617 cumulative IPC: 0.896674 (Simulation time: 0 hr 16 min 46 sec) 
Heartbeat CPU 0 instructions: 580000000 cycles: 577896249 heartbeat IPC: 0.929653 cumulative IPC: 0.897337 (Simulation time: 0 hr 17 min 4 sec) 
Heartbeat CPU 0 instructions: 590000003 cycles: 589286999 heartbeat IPC: 0.877906 cumulative IPC: 0.896932 (Simulation time: 0 hr 17 min 22 sec) 
Heartbeat CPU 0 instructions: 600000000 cycles: 599862718 heartbeat IPC: 0.945562 cumulative IPC: 0.897855 (Simulation time: 0 hr 17 min 40 sec) 
Finished CPU 0 instructions: 500000001 cycles: 556882682 cumulative IPC: 0.897855 (Simulation time: 0 hr 17 min 40 sec) 

CPU 0 Branch Prediction Accuracy: 93.0095% MPKI: 10.0046
Number of Branches: 71558147 Number of Mispredictions: 5002285
Number of LOAD Instructions: 145708893
Number of LOAD Instructions (ROI): 145708893
Number of STORE Instructions: 40463820
Number of STORE Instructions (ROI): 40463820
Total Destination Memory Operands: 45240498
Total Destination Memory Operands (ROI): 45240498
Total Source Memory Operands: 145708893
Total Source Memory Operands (ROI): 145708893
Number of DEPENDED LOADS: 10674268
Number of DEPENDED LOADS (ROI): 10674268
Number of SQ_ADDED: 45240498
Number of SQ_ADDED (ROI): 45240498
Number of LQ_ADDED: 193319272
Number of LQ_ADDED (ROI): 193319272
Number of Instructions read from trace: 600000002

ChampSim completed all CPUs

Region of Interest Statistics

CPU 0 cumulative IPC: 0.897855 instructions: 500000001 cycles: 556882682
ITLB TOTAL     ACCESS:   77992242  HIT:   77992241  MISS:          1
ITLB LOAD      ACCESS:   77992242  HIT:   77992241  MISS:          1
ITLB RFO       ACCESS:          0  HIT:          0  MISS:          0
ITLB PREFETCH  ACCESS:          0  HIT:          0  MISS:          0
ITLB WRITEBACK ACCESS:          0  HIT:          0  MISS:          0
ITLB PREFETCH  REQUESTED:          0  ISSUED:          0  USEFUL:          0  USELESS:          0
ITLB TOTAL MSHR MERGED:          0
ITLB LOAD MSHR MERGED:          0
ITLB RFO MSHR MERGED:          0
ITLB PREFETCH MSHR MERGED:          0
ITLB WRITEBACK MSHR MERGED:          0
ITLB TOTAL ACCESSES:   77992242 HITS:   77992241 MISSES:          1
ITLB LOAD ACCESSES:   77992242 HITS:   77992241 MISSES:          1
ITLB RFO ACCESSES:          0 HITS:          0 MISSES:          0
ITLB PREFETCH ACCESSES:          0 HITS:          0 MISSES:          0
ITLB WRITEBACK ACCESSES:          0 HITS:          0 MISSES:          0
ITLB RQ ACCESS:  499999995
ITLB RQ TO_CACHE:   77992242
ITLB RQ MERGED:  422007753
ITLB RQ FORWARD:          0
ITLB WQ ACCESS:          0
ITLB WQ TO_CACHE:          0
ITLB WQ MERGED:          0
ITLB WQ FORWARD:          0
DTLB TOTAL     ACCESS:   98671227  HIT:   97789891  MISS:     881336
DTLB LOAD      ACCESS:   70891288  HIT:   70029755  MISS:     861533
DTLB RFO       ACCESS:   27779939  HIT:   27760136  MISS:      19803
DTLB PREFETCH  ACCESS:          0  HIT:          0  MISS:          0
DTLB WRITEBACK ACCESS:          0  HIT:          0  MISS:          0
DTLB PREFETCH  REQUESTED:          0  ISSUED:          0  USEFUL:          0  USELESS:          0
DTLB TOTAL MSHR MERGED:      87401
DTLB LOAD MSHR MERGED:      65659
DTLB RFO MSHR MERGED:      21742
DTLB PREFETCH MSHR MERGED:          0
DTLB WRITEBACK MSHR MERGED:          0
DTLB TOTAL ACCESSES:   98758628 HITS:   97789891 MISSES:     968737
DTLB LOAD ACCESSES:   70956947 HITS:   70029755 MISSES:     927192
DTLB RFO ACCESSES:   27801681 HITS:   27760136 MISSES:      41545
DTLB PREFETCH ACCESSES:          0 HITS:          0 MISSES:          0
DTLB WRITEBACK ACCESSES:          0 HITS:          0 MISSES:          0
DTLB RQ ACCESS:  150270789
DTLB RQ TO_CACHE:   98758628
DTLB RQ MERGED:   51512161
DTLB RQ FORWARD:          0
DTLB WQ ACCESS:          0
DTLB WQ TO_CACHE:          0
DTLB WQ MERGED:          0
DTLB WQ FORWARD:          0
L1D TOTAL     ACCESS:  173327266  HIT:  169158633  MISS:    4168633
L1D LOAD      ACCESS:   75279880  HIT:   73398559  MISS:    1881321
L1D RFO       ACCESS:   36778373  HIT:   36571770  MISS:     206603
L1D PREFETCH  ACCESS:   61269013  HIT:   59188304  MISS:    2080709
L1D WRITEBACK ACCESS:          0  HIT:          0  MISS:          0
L1D PREFETCH  REQUESTED:   75382797  ISSUED:   74818604  USEFUL:     415149  USELESS:    1665549
L1D TOTAL MSHR MERGED:     370643
L1D LOAD MSHR MERGED:     111662
L1D RFO MSHR MERGED:     133045
L1D PREFETCH MSHR MERGED:     125936
L1D WRITEBACK MSHR MERGED:          0
L1D TOTAL ACCESSES:  173849562 HITS:  169310286 MISSES:    4539276
L1D LOAD ACCESSES:   75385832 HITS:   73401594 MISSES:    1984238
L1D RFO ACCESSES:   36910025 HITS:   36571770 MISSES:     338255
L1D PREFETCH ACCESSES:   61553705 HITS:   59336922 MISSES:    2216783
L1D WRITEBACK ACCESSES:          0 HITS:          0 MISSES:          0
L1D RQ ACCESS:  112608386
L1D RQ TO_CACHE:   75382797
L1D RQ MERGED:   37222554
L1D RQ FORWARD:          0
L1D WQ ACCESS:   37662403
L1D WQ TO_CACHE:   36910025
L1D WQ MERGED:     752378
L1D WQ FORWARD:     151653
L1I TOTAL     ACCESS:  100700143  HIT:  100700118  MISS:         25
L1I LOAD      ACCESS:  100700143  HIT:  100700118  MISS:         25
L1I RFO       ACCESS:          0  HIT:          0  MISS:          0
L1I PREFETCH  ACCESS:          0  HIT:          0  MISS:          0
L1I WRITEBACK ACCESS:          0  HIT:          0  MISS:          0
L1I PREFETCH  REQUESTED:          0  ISSUED:          0  USEFUL:          0  USELESS:          0
L1I TOTAL MSHR MERGED:         10
L1I LOAD MSHR MERGED:         10
L1I RFO MSHR MERGED:          0
L1I PREFETCH MSHR MERGED:          0
L1I WRITEBACK MSHR MERGED:          0
L1I TOTAL ACCESSES:  100700153 HITS:  100700118 MISSES:         35
L1I LOAD ACCESSES:  100700153 HITS:  100700118 MISSES:         35
L1I RFO ACCESSES:          0 HITS:          0 MISSES:          0
L1I PREFETCH ACCESSES:          0 HITS:          0 MISSES:          0
L1I WRITEBACK ACCESSES:          0 HITS:          0 MISSES:          0
L1I RQ ACCESS:  499999995
L1I RQ TO_CACHE:  100700153
L1I RQ MERGED:  399299842
L1I RQ FORWARD:          0
L1I WQ ACCESS:          0
L1I WQ TO_CACHE:          0
L1I WQ MERGED:          0
L1I WQ FORWARD:          0
L2C TOTAL     ACCESS:    5852575  HIT:    4009407  MISS:    1843168
L2C LOAD      ACCESS:    1872475  HIT:    1061517  MISS:     810958
L2C RFO       ACCESS:     205203  HIT:     100563  MISS:     104640
L2C PREFETCH  ACCESS:    2169261  HIT:    1246112  MISS:     923149
L2C WRITEBACK ACCESS:    1605636  HIT:    1601215  MISS:       4421
L2C PREFETCH  REQUESTED:      91709  ISSUED:      91709  USEFUL:      86454  USELESS:     836718
L2C TOTAL MSHR MERGED:        992
L2C LOAD MSHR MERGED:        250
L2C RFO MSHR MERGED:          0
L2C PREFETCH MSHR MERGED:        742
L2C WRITEBACK MSHR MERGED:          0
L2C TOTAL ACCESSES:    5853925 HITS:    4009577 MISSES:    1844348
L2C LOAD ACCESSES:    1872601 HITS:    1061643 MISSES:     810958
L2C RFO ACCESSES:     205210 HITS:     100570 MISSES:     104640
L2C PREFETCH ACCESSES:    2170478 HITS:    1246149 MISSES:     924329
L2C WRITEBACK ACCESSES:    1605636 HITS:    1601215 MISSES:       4421
L2C RQ ACCESS:    2077811
L2C RQ TO_CACHE:    2077678
L2C RQ MERGED:          0
L2C RQ FORWARD:          0
L2C WQ ACCESS:    1605636
L2C WQ TO_CACHE:    1605636
L2C WQ MERGED:          0
L2C WQ FORWARD:        170
LLC TOTAL     ACCESS:    2673577  HIT:    2196731  MISS:     476846
LLC LOAD      ACCESS:     810700  HIT:     636947  MISS:     173753
LLC RFO       ACCESS:     104640  HIT:      59997  MISS:      44643
LLC PREFETCH  ACCESS:     923565  HIT:     693780  MISS:     229785
LLC WRITEBACK ACCESS:     834672  HIT:     806007  MISS:      28665
LLC PREFETCH  REQUESTED:          0  ISSUED:          0  USEFUL:       8244  USELESS:     221624
LLC TOTAL MSHR MERGED:          4
LLC LOAD MSHR MERGED:          3
LLC RFO MSHR MERGED:          0
LLC PREFETCH MSHR MERGED:          1
LLC WRITEBACK MSHR MERGED:          0
LLC TOTAL ACCESSES:    2673591 HITS:    2196741 MISSES:     476850
LLC LOAD ACCESSES:     810708 HITS:     636955 MISSES:     173753
LLC RFO ACCESSES:     104640 HITS:      59997 MISSES:      44643
LLC PREFETCH ACCESSES:     923571 HITS:     693782 MISSES:     229789
LLC WRITEBACK ACCESSES:     834672 HITS:     806007 MISSES:      28665
LLC 0 RQ ACCESS:     915348
LLC 0 RQ TO_CACHE:     915340
LLC 0 RQ MERGED:          0
LLC 0 RQ FORWARD:          0
LLC WQ ACCESS:     834672
LLC WQ TO_CACHE:     834672
LLC WQ MERGED:          0
LLC WQ FORWARD:         10
Major fault: 0 Minor fault: 11278
CPU 0 L1D next line prefetcher final stats
CPU 0 L2C PC-based stride prefetcher final stats
All Misses: 588784
All Hits: 2465811
SD Algo Stats - Switches: 0 SRR-Repls: 206695 BRR-Repls: 0

DRAM Statistics
 CHANNEL 0
 RQ ROW_BUFFER_HIT:      28537  ROW_BUFFER_MISS:     419269
 DBUS_CONGESTED:     353359
 WQ ROW_BUFFER_HIT:      15040  ROW_BUFFER_MISS:     211094  FULL:          0

 AVG_CONGESTED_CYCLE: 13
LOADS RETIRED: 121769268
INSTR RETIRED: 500000000
