
*** ChampSim Multicore Out-of-Order Simulator ***

Warmup Instructions: 100000000
Simulation Instructions: 500000000
Number of CPUs: 1
LLC sets: 2048
LLC ways: 16
Clean RRIP Policies: 2213230222132302 Dirty RRIP Policies: 2203130222031302 PSEL Width: 10 Track Set: 4294967295 PSEL Mask: 1 Demote Mask: 4340100043401000DS Algo: 0Window size: 0
Off-chip DRAM Size: 4096 MB Channels: 1 Width: 64-bit Data Rate: 1600 MT/s

CPU 0 runs /mnt/beegfs/iconst01/spec2017/Fotonik3d.trace.gz
NOT SORTED
TRACE STRING: /mnt/beegfs/iconst01/spec2017/Fotonik3d.trace.gz
SORTED
TRACE STRING: /mnt/beegfs/iconst01/spec2017/Fotonik3d.trace.gz
INITIAL
TRACE STRING: /mnt/beegfs/iconst01/spec2017/Fotonik3d.trace.gz

champsim_seed used: 881

CPU 0 L1D next line prefetcher
CPU 0 L2C IP-based stride prefetcher
Initialize DRRIP state
Assign rand_sets[0]: 454  LLC: 2048
rand_sets[0]: 454
Assign rand_sets[1]: 1662  LLC: 2048
rand_sets[1]: 1662
Assign rand_sets[2]: 1921  LLC: 2048
rand_sets[2]: 1921
Assign rand_sets[3]: 1131  LLC: 2048
rand_sets[3]: 1131
Assign rand_sets[4]: 331  LLC: 2048
rand_sets[4]: 331
Assign rand_sets[5]: 1531  LLC: 2048
rand_sets[5]: 1531
Assign rand_sets[6]: 482  LLC: 2048
rand_sets[6]: 482
Assign rand_sets[7]: 1275  LLC: 2048
rand_sets[7]: 1275
Assign rand_sets[8]: 1876  LLC: 2048
rand_sets[8]: 1876
Assign rand_sets[9]: 2038  LLC: 2048
rand_sets[9]: 2038
Assign rand_sets[10]: 701  LLC: 2048
rand_sets[10]: 701
Assign rand_sets[11]: 479  LLC: 2048
rand_sets[11]: 479
Assign rand_sets[12]: 892  LLC: 2048
rand_sets[12]: 892
Assign rand_sets[13]: 1820  LLC: 2048
rand_sets[13]: 1820
Assign rand_sets[14]: 1505  LLC: 2048
rand_sets[14]: 1505
Assign rand_sets[15]: 1159  LLC: 2048
rand_sets[15]: 1159
Assign rand_sets[16]: 513  LLC: 2048
rand_sets[16]: 513
Assign rand_sets[17]: 703  LLC: 2048
rand_sets[17]: 703
Assign rand_sets[18]: 561  LLC: 2048
rand_sets[18]: 561
Assign rand_sets[19]: 990  LLC: 2048
rand_sets[19]: 990
Assign rand_sets[20]: 342  LLC: 2048
rand_sets[20]: 342
Assign rand_sets[21]: 882  LLC: 2048
rand_sets[21]: 882
Assign rand_sets[22]: 15  LLC: 2048
rand_sets[22]: 15
Assign rand_sets[23]: 71  LLC: 2048
rand_sets[23]: 71
Assign rand_sets[24]: 1127  LLC: 2048
rand_sets[24]: 1127
Assign rand_sets[25]: 1382  LLC: 2048
rand_sets[25]: 1382
Assign rand_sets[26]: 647  LLC: 2048
rand_sets[26]: 647
Assign rand_sets[27]: 857  LLC: 2048
rand_sets[27]: 857
Assign rand_sets[28]: 1450  LLC: 2048
rand_sets[28]: 1450
Assign rand_sets[29]: 1160  LLC: 2048
rand_sets[29]: 1160
Assign rand_sets[30]: 1852  LLC: 2048
rand_sets[30]: 1852
Assign rand_sets[31]: 1881  LLC: 2048
rand_sets[31]: 1881
Assign rand_sets[32]: 1770  LLC: 2048
rand_sets[32]: 1770
Assign rand_sets[33]: 1622  LLC: 2048
rand_sets[33]: 1622
Assign rand_sets[34]: 275  LLC: 2048
rand_sets[34]: 275
Assign rand_sets[35]: 635  LLC: 2048
rand_sets[35]: 635
Assign rand_sets[36]: 466  LLC: 2048
rand_sets[36]: 466
Assign rand_sets[37]: 1413  LLC: 2048
rand_sets[37]: 1413
Assign rand_sets[38]: 417  LLC: 2048
rand_sets[38]: 417
Assign rand_sets[39]: 472  LLC: 2048
rand_sets[39]: 472
Assign rand_sets[40]: 1340  LLC: 2048
rand_sets[40]: 1340
Assign rand_sets[41]: 852  LLC: 2048
rand_sets[41]: 852
Assign rand_sets[42]: 1365  LLC: 2048
rand_sets[42]: 1365
Assign rand_sets[43]: 47  LLC: 2048
rand_sets[43]: 47
Assign rand_sets[44]: 823  LLC: 2048
rand_sets[44]: 823
Assign rand_sets[45]: 686  LLC: 2048
rand_sets[45]: 686
Assign rand_sets[46]: 1637  LLC: 2048
rand_sets[46]: 1637
Assign rand_sets[47]: 1115  LLC: 2048
rand_sets[47]: 1115
Assign rand_sets[48]: 986  LLC: 2048
rand_sets[48]: 986
Assign rand_sets[49]: 258  LLC: 2048
rand_sets[49]: 258
Assign rand_sets[50]: 633  LLC: 2048
rand_sets[50]: 633
Assign rand_sets[51]: 920  LLC: 2048
rand_sets[51]: 920
Assign rand_sets[52]: 204  LLC: 2048
rand_sets[52]: 204
Assign rand_sets[53]: 227  LLC: 2048
rand_sets[53]: 227
Assign rand_sets[54]: 1818  LLC: 2048
rand_sets[54]: 1818
Assign rand_sets[55]: 886  LLC: 2048
rand_sets[55]: 886
Assign rand_sets[56]: 1422  LLC: 2048
rand_sets[56]: 1422
Assign rand_sets[57]: 607  LLC: 2048
rand_sets[57]: 607
Assign rand_sets[58]: 217  LLC: 2048
rand_sets[58]: 217
Assign rand_sets[59]: 1945  LLC: 2048
rand_sets[59]: 1945
Assign rand_sets[60]: 143  LLC: 2048
rand_sets[60]: 143
Assign rand_sets[61]: 1311  LLC: 2048
rand_sets[61]: 1311
Assign rand_sets[62]: 319  LLC: 2048
rand_sets[62]: 319
Assign rand_sets[63]: 1846  LLC: 2048
rand_sets[63]: 1846
 CLEAN-RRIP-POLICY-1: 2-2-1-3-2-3-0-2- CLEAN-RRIP-POLICY-2: 2-2-1-3-2-3-0-2-
 DIRTY-RRIP-POLICY-1: 2-2-0-3-1-3-0-2- DIRTY-RRIP-POLICY-2: 2-2-0-3-1-3-0-2-
 PSEL width: 10
Heartbeat CPU 0 instructions: 10000002 cycles: 7306837 heartbeat IPC: 1.36858 cumulative IPC: 1.36858 (Simulation time: 0 hr 0 min 24 sec) 
Heartbeat CPU 0 instructions: 20000000 cycles: 14613813 heartbeat IPC: 1.36855 cumulative IPC: 1.36857 (Simulation time: 0 hr 0 min 47 sec) 
Heartbeat CPU 0 instructions: 30000001 cycles: 21920654 heartbeat IPC: 1.36858 cumulative IPC: 1.36857 (Simulation time: 0 hr 1 min 11 sec) 
Heartbeat CPU 0 instructions: 40000000 cycles: 29227411 heartbeat IPC: 1.3686 cumulative IPC: 1.36858 (Simulation time: 0 hr 1 min 35 sec) 
Heartbeat CPU 0 instructions: 50000001 cycles: 36534141 heartbeat IPC: 1.3686 cumulative IPC: 1.36858 (Simulation time: 0 hr 1 min 59 sec) 
Heartbeat CPU 0 instructions: 60000000 cycles: 43841100 heartbeat IPC: 1.36856 cumulative IPC: 1.36858 (Simulation time: 0 hr 2 min 23 sec) 
Heartbeat CPU 0 instructions: 70000002 cycles: 51147858 heartbeat IPC: 1.3686 cumulative IPC: 1.36858 (Simulation time: 0 hr 2 min 47 sec) 
Heartbeat CPU 0 instructions: 80000000 cycles: 58454593 heartbeat IPC: 1.3686 cumulative IPC: 1.36858 (Simulation time: 0 hr 3 min 11 sec) 
Heartbeat CPU 0 instructions: 90000003 cycles: 65765123 heartbeat IPC: 1.36789 cumulative IPC: 1.36851 (Simulation time: 0 hr 3 min 35 sec) 
Heartbeat CPU 0 instructions: 100000000 cycles: 73075767 heartbeat IPC: 1.36787 cumulative IPC: 1.36844 (Simulation time: 0 hr 3 min 59 sec) 

Warmup complete CPU 0 instructions: 100000002 cycles: 73075779 (Simulation time: 0 hr 3 min 59 sec) 

Heartbeat CPU 0 instructions: 110000001 cycles: 85549071 heartbeat IPC: 0.801712 cumulative IPC: 0.801713 (Simulation time: 0 hr 4 min 28 sec) 
Heartbeat CPU 0 instructions: 120000000 cycles: 97970271 heartbeat IPC: 0.805075 cumulative IPC: 0.803391 (Simulation time: 0 hr 4 min 56 sec) 
Heartbeat CPU 0 instructions: 130000000 cycles: 110467056 heartbeat IPC: 0.800206 cumulative IPC: 0.802326 (Simulation time: 0 hr 5 min 25 sec) 
Heartbeat CPU 0 instructions: 140000000 cycles: 122917235 heartbeat IPC: 0.803201 cumulative IPC: 0.802545 (Simulation time: 0 hr 5 min 53 sec) 
Heartbeat CPU 0 instructions: 150000000 cycles: 135326813 heartbeat IPC: 0.805829 cumulative IPC: 0.803199 (Simulation time: 0 hr 6 min 22 sec) 
Heartbeat CPU 0 instructions: 160000000 cycles: 147786795 heartbeat IPC: 0.802569 cumulative IPC: 0.803094 (Simulation time: 0 hr 6 min 51 sec) 
Heartbeat CPU 0 instructions: 170000001 cycles: 160267153 heartbeat IPC: 0.801259 cumulative IPC: 0.802832 (Simulation time: 0 hr 7 min 19 sec) 
Heartbeat CPU 0 instructions: 180000000 cycles: 172729701 heartbeat IPC: 0.802404 cumulative IPC: 0.802778 (Simulation time: 0 hr 7 min 48 sec) 
Heartbeat CPU 0 instructions: 190000000 cycles: 185216264 heartbeat IPC: 0.800861 cumulative IPC: 0.802565 (Simulation time: 0 hr 8 min 16 sec) 
Heartbeat CPU 0 instructions: 200000000 cycles: 197657909 heartbeat IPC: 0.803752 cumulative IPC: 0.802683 (Simulation time: 0 hr 8 min 45 sec) 
Heartbeat CPU 0 instructions: 210000002 cycles: 210149758 heartbeat IPC: 0.800522 cumulative IPC: 0.802486 (Simulation time: 0 hr 9 min 14 sec) 
Heartbeat CPU 0 instructions: 220000000 cycles: 222655149 heartbeat IPC: 0.799655 cumulative IPC: 0.80225 (Simulation time: 0 hr 9 min 42 sec) 
Heartbeat CPU 0 instructions: 230000002 cycles: 235106062 heartbeat IPC: 0.803154 cumulative IPC: 0.802319 (Simulation time: 0 hr 10 min 11 sec) 
Heartbeat CPU 0 instructions: 240000000 cycles: 248296665 heartbeat IPC: 0.758115 cumulative IPC: 0.798992 (Simulation time: 0 hr 10 min 40 sec) 
Heartbeat CPU 0 instructions: 250000001 cycles: 265708401 heartbeat IPC: 0.574325 cumulative IPC: 0.778684 (Simulation time: 0 hr 11 min 11 sec) 
Heartbeat CPU 0 instructions: 260000000 cycles: 283054828 heartbeat IPC: 0.576488 cumulative IPC: 0.761981 (Simulation time: 0 hr 11 min 42 sec) 
Heartbeat CPU 0 instructions: 270000000 cycles: 300466530 heartbeat IPC: 0.574326 cumulative IPC: 0.747612 (Simulation time: 0 hr 12 min 13 sec) 
Heartbeat CPU 0 instructions: 280000000 cycles: 317850667 heartbeat IPC: 0.575237 cumulative IPC: 0.73537 (Simulation time: 0 hr 12 min 44 sec) 
Heartbeat CPU 0 instructions: 290000001 cycles: 346510820 heartbeat IPC: 0.348917 cumulative IPC: 0.694863 (Simulation time: 0 hr 13 min 23 sec) 
Heartbeat CPU 0 instructions: 300000000 cycles: 383595893 heartbeat IPC: 0.26965 cumulative IPC: 0.644081 (Simulation time: 0 hr 14 min 6 sec) 
Heartbeat CPU 0 instructions: 310000000 cycles: 400371004 heartbeat IPC: 0.596121 cumulative IPC: 0.641623 (Simulation time: 0 hr 14 min 36 sec) 
Heartbeat CPU 0 instructions: 320000000 cycles: 417135169 heartbeat IPC: 0.59651 cumulative IPC: 0.639425 (Simulation time: 0 hr 15 min 6 sec) 
Heartbeat CPU 0 instructions: 330000003 cycles: 433954618 heartbeat IPC: 0.59455 cumulative IPC: 0.637333 (Simulation time: 0 hr 15 min 36 sec) 
Heartbeat CPU 0 instructions: 340000000 cycles: 450721312 heartbeat IPC: 0.59642 cumulative IPC: 0.635517 (Simulation time: 0 hr 16 min 6 sec) 
Heartbeat CPU 0 instructions: 350000001 cycles: 465652672 heartbeat IPC: 0.669731 cumulative IPC: 0.636818 (Simulation time: 0 hr 16 min 34 sec) 
Heartbeat CPU 0 instructions: 360000000 cycles: 477555064 heartbeat IPC: 0.840167 cumulative IPC: 0.642802 (Simulation time: 0 hr 17 min 0 sec) 
Heartbeat CPU 0 instructions: 370000002 cycles: 489206491 heartbeat IPC: 0.858264 cumulative IPC: 0.648835 (Simulation time: 0 hr 17 min 26 sec) 
Heartbeat CPU 0 instructions: 380000000 cycles: 501088242 heartbeat IPC: 0.841627 cumulative IPC: 0.654187 (Simulation time: 0 hr 17 min 53 sec) 
Heartbeat CPU 0 instructions: 390000003 cycles: 514421384 heartbeat IPC: 0.750011 cumulative IPC: 0.657081 (Simulation time: 0 hr 18 min 20 sec) 
Heartbeat CPU 0 instructions: 400000000 cycles: 526692409 heartbeat IPC: 0.814928 cumulative IPC: 0.661351 (Simulation time: 0 hr 18 min 46 sec) 
Heartbeat CPU 0 instructions: 410000003 cycles: 538690378 heartbeat IPC: 0.833475 cumulative IPC: 0.665787 (Simulation time: 0 hr 19 min 13 sec) 
Heartbeat CPU 0 instructions: 420000000 cycles: 551549518 heartbeat IPC: 0.777657 cumulative IPC: 0.668793 (Simulation time: 0 hr 19 min 40 sec) 
Heartbeat CPU 0 instructions: 430000003 cycles: 570168599 heartbeat IPC: 0.537084 cumulative IPC: 0.66386 (Simulation time: 0 hr 20 min 4 sec) 
Heartbeat CPU 0 instructions: 440000000 cycles: 588772829 heartbeat IPC: 0.537512 cumulative IPC: 0.659302 (Simulation time: 0 hr 20 min 28 sec) 
Heartbeat CPU 0 instructions: 450000003 cycles: 607419390 heartbeat IPC: 0.536292 cumulative IPC: 0.655009 (Simulation time: 0 hr 20 min 52 sec) 
Heartbeat CPU 0 instructions: 460000000 cycles: 626035894 heartbeat IPC: 0.537158 cumulative IPC: 0.651042 (Simulation time: 0 hr 21 min 16 sec) 
Heartbeat CPU 0 instructions: 470000003 cycles: 644653764 heartbeat IPC: 0.537119 cumulative IPC: 0.647331 (Simulation time: 0 hr 21 min 40 sec) 
Heartbeat CPU 0 instructions: 480000000 cycles: 663273629 heartbeat IPC: 0.537061 cumulative IPC: 0.643852 (Simulation time: 0 hr 22 min 4 sec) 
Heartbeat CPU 0 instructions: 490000003 cycles: 681914121 heartbeat IPC: 0.536467 cumulative IPC: 0.640564 (Simulation time: 0 hr 22 min 28 sec) 
Heartbeat CPU 0 instructions: 500000000 cycles: 700496025 heartbeat IPC: 0.538158 cumulative IPC: 0.637531 (Simulation time: 0 hr 22 min 53 sec) 
Heartbeat CPU 0 instructions: 510000003 cycles: 719120811 heartbeat IPC: 0.536919 cumulative IPC: 0.634631 (Simulation time: 0 hr 23 min 17 sec) 
Heartbeat CPU 0 instructions: 520000000 cycles: 737750367 heartbeat IPC: 0.536781 cumulative IPC: 0.631888 (Simulation time: 0 hr 23 min 41 sec) 
Heartbeat CPU 0 instructions: 530000001 cycles: 756379886 heartbeat IPC: 0.536783 cumulative IPC: 0.629295 (Simulation time: 0 hr 24 min 5 sec) 
Heartbeat CPU 0 instructions: 540000000 cycles: 774921184 heartbeat IPC: 0.539337 cumulative IPC: 0.626919 (Simulation time: 0 hr 24 min 29 sec) 
Heartbeat CPU 0 instructions: 550000001 cycles: 793490991 heartbeat IPC: 0.538509 cumulative IPC: 0.62464 (Simulation time: 0 hr 24 min 53 sec) 
Heartbeat CPU 0 instructions: 560000000 cycles: 812066563 heartbeat IPC: 0.538341 cumulative IPC: 0.622471 (Simulation time: 0 hr 25 min 17 sec) 
Heartbeat CPU 0 instructions: 570000001 cycles: 830626808 heartbeat IPC: 0.538786 cumulative IPC: 0.62042 (Simulation time: 0 hr 25 min 41 sec) 
Heartbeat CPU 0 instructions: 580000000 cycles: 849126796 heartbeat IPC: 0.540541 cumulative IPC: 0.618516 (Simulation time: 0 hr 26 min 6 sec) 
Heartbeat CPU 0 instructions: 590000001 cycles: 867689578 heartbeat IPC: 0.538712 cumulative IPC: 0.616652 (Simulation time: 0 hr 26 min 30 sec) 
Heartbeat CPU 0 instructions: 600000000 cycles: 886257446 heartbeat IPC: 0.538565 cumulative IPC: 0.614869 (Simulation time: 0 hr 26 min 54 sec) 
Finished CPU 0 instructions: 500000002 cycles: 813181681 cumulative IPC: 0.614869 (Simulation time: 0 hr 26 min 54 sec) 

CPU 0 Branch Prediction Accuracy: 99.5931% MPKI: 0.08288
Number of Branches: 10184133 Number of Mispredictions: 41440
Number of LOAD Instructions: 261155957
Number of LOAD Instructions (ROI): 261155957
Number of STORE Instructions: 57884062
Number of STORE Instructions (ROI): 57884062
Total Destination Memory Operands: 83293336
Total Destination Memory Operands (ROI): 83293336
Total Source Memory Operands: 261155957
Total Source Memory Operands (ROI): 261155957
Number of DEPENDED LOADS: 22256351
Number of DEPENDED LOADS (ROI): 22256351
Number of SQ_ADDED: 83293300
Number of SQ_ADDED (ROI): 83293300
Number of LQ_ADDED: 1773587983
Number of LQ_ADDED (ROI): 1773587983
Number of Instructions read from trace: 600000257

ChampSim completed all CPUs

Region of Interest Statistics

CPU 0 cumulative IPC: 0.614869 instructions: 500000002 cycles: 813181681
ITLB TOTAL     ACCESS:   94704009  HIT:   94703971  MISS:         38
ITLB LOAD      ACCESS:   94704009  HIT:   94703971  MISS:         38
ITLB RFO       ACCESS:          0  HIT:          0  MISS:          0
ITLB PREFETCH  ACCESS:          0  HIT:          0  MISS:          0
ITLB WRITEBACK ACCESS:          0  HIT:          0  MISS:          0
ITLB PREFETCH  REQUESTED:          0  ISSUED:          0  USEFUL:          0  USELESS:          0
ITLB TOTAL MSHR MERGED:         93
ITLB LOAD MSHR MERGED:         93
ITLB RFO MSHR MERGED:          0
ITLB PREFETCH MSHR MERGED:          0
ITLB WRITEBACK MSHR MERGED:          0
ITLB TOTAL ACCESSES:   94704102 HITS:   94703971 MISSES:        131
ITLB LOAD ACCESSES:   94704102 HITS:   94703971 MISSES:        131
ITLB RFO ACCESSES:          0 HITS:          0 MISSES:          0
ITLB PREFETCH ACCESSES:          0 HITS:          0 MISSES:          0
ITLB WRITEBACK ACCESSES:          0 HITS:          0 MISSES:          0
ITLB RQ ACCESS:  500000001
ITLB RQ TO_CACHE:   94704103
ITLB RQ MERGED:  405295898
ITLB RQ FORWARD:          0
ITLB WQ ACCESS:          0
ITLB WQ TO_CACHE:          0
ITLB WQ MERGED:          0
ITLB WQ FORWARD:          0
DTLB TOTAL     ACCESS:  149187443  HIT:  148590483  MISS:     596960
DTLB LOAD      ACCESS:  107314200  HIT:  106717251  MISS:     596949
DTLB RFO       ACCESS:   41873243  HIT:   41873232  MISS:         11
DTLB PREFETCH  ACCESS:          0  HIT:          0  MISS:          0
DTLB WRITEBACK ACCESS:          0  HIT:          0  MISS:          0
DTLB PREFETCH  REQUESTED:          0  ISSUED:          0  USEFUL:          0  USELESS:          0
DTLB TOTAL MSHR MERGED:     134398
DTLB LOAD MSHR MERGED:     134398
DTLB RFO MSHR MERGED:          0
DTLB PREFETCH MSHR MERGED:          0
DTLB WRITEBACK MSHR MERGED:          0
DTLB TOTAL ACCESSES:  149321841 HITS:  148590483 MISSES:     731358
DTLB LOAD ACCESSES:  107448598 HITS:  106717251 MISSES:     731347
DTLB RFO ACCESSES:   41873243 HITS:   41873232 MISSES:         11
DTLB PREFETCH ACCESSES:          0 HITS:          0 MISSES:          0
DTLB WRITEBACK ACCESSES:          0 HITS:          0 MISSES:          0
DTLB RQ ACCESS:  259759543
DTLB RQ TO_CACHE:  149321841
DTLB RQ MERGED:  110437702
DTLB RQ FORWARD:          0
DTLB WQ ACCESS:          0
DTLB WQ TO_CACHE:          0
DTLB WQ MERGED:          0
DTLB WQ FORWARD:          0
L1D TOTAL     ACCESS:  261081137  HIT:  245680944  MISS:   15400193
L1D LOAD      ACCESS:  118068171  HIT:  112569190  MISS:    5498981
L1D RFO       ACCESS:   68946805  HIT:   68932400  MISS:      14405
L1D PREFETCH  ACCESS:   74066161  HIT:   64179354  MISS:    9886807
L1D WRITEBACK ACCESS:          0  HIT:          0  MISS:          0
L1D PREFETCH  REQUESTED:  120653954  ISSUED:  119092601  USEFUL:    8013600  USELESS:    1873229
L1D TOTAL MSHR MERGED:   16504210
L1D LOAD MSHR MERGED:    4995592
L1D RFO MSHR MERGED:      21775
L1D PREFETCH MSHR MERGED:   11486843
L1D WRITEBACK MSHR MERGED:          0
L1D TOTAL ACCESSES:  277695491 HITS:  245791088 MISSES:   31904403
L1D LOAD ACCESSES:  120661473 HITS:  112576709 MISSES:    8084764
L1D RFO ACCESSES:   68968579 HITS:   68932400 MISSES:      36179
L1D PREFETCH ACCESSES:   88065439 HITS:   64281979 MISSES:   23783460
L1D WRITEBACK ACCESSES:          0 HITS:          0 MISSES:          0
L1D RQ ACCESS:  190685227
L1D RQ TO_CACHE:  120653954
L1D RQ MERGED:   70023754
L1D RQ FORWARD:          0
L1D WQ ACCESS:   69074336
L1D WQ TO_CACHE:   68968581
L1D WQ MERGED:     105755
L1D WQ FORWARD:     110144
L1I TOTAL     ACCESS:  121609161  HIT:  121608088  MISS:       1073
L1I LOAD      ACCESS:  121609161  HIT:  121608088  MISS:       1073
L1I RFO       ACCESS:          0  HIT:          0  MISS:          0
L1I PREFETCH  ACCESS:          0  HIT:          0  MISS:          0
L1I WRITEBACK ACCESS:          0  HIT:          0  MISS:          0
L1I PREFETCH  REQUESTED:          0  ISSUED:          0  USEFUL:          0  USELESS:          0
L1I TOTAL MSHR MERGED:       1097
L1I LOAD MSHR MERGED:       1097
L1I RFO MSHR MERGED:          0
L1I PREFETCH MSHR MERGED:          0
L1I WRITEBACK MSHR MERGED:          0
L1I TOTAL ACCESSES:  121610258 HITS:  121608088 MISSES:       2170
L1I LOAD ACCESSES:  121610258 HITS:  121608088 MISSES:       2170
L1I RFO ACCESSES:          0 HITS:          0 MISSES:          0
L1I PREFETCH ACCESSES:          0 HITS:          0 MISSES:          0
L1I WRITEBACK ACCESSES:          0 HITS:          0 MISSES:          0
L1I RQ ACCESS:  500000000
L1I RQ TO_CACHE:  121610258
L1I RQ MERGED:  378389742
L1I RQ FORWARD:          0
L1I WQ ACCESS:          0
L1I WQ TO_CACHE:          0
L1I WQ MERGED:          0
L1I WQ FORWARD:          0
L2C TOTAL     ACCESS:   22472250  HIT:    9151011  MISS:   13321239
L2C LOAD      ACCESS:    3090212  HIT:     416486  MISS:    2673726
L2C RFO       ACCESS:      14404  HIT:      13988  MISS:        416
L2C PREFETCH  ACCESS:   12737700  HIT:    2092404  MISS:   10645296
L2C WRITEBACK ACCESS:    6629934  HIT:    6628133  MISS:       1801
L2C PREFETCH  REQUESTED:     693101  ISSUED:     693101  USEFUL:     186047  USELESS:   10460051
L2C TOTAL MSHR MERGED:      71139
L2C LOAD MSHR MERGED:      22414
L2C RFO MSHR MERGED:          0
L2C PREFETCH MSHR MERGED:      48725
L2C WRITEBACK MSHR MERGED:          0
L2C TOTAL ACCESSES:   22684113 HITS:    9151054 MISSES:   13533059
L2C LOAD ACCESSES:    3090245 HITS:     416519 MISSES:    2673726
L2C RFO ACCESSES:      14404 HITS:      13988 MISSES:        416
L2C PREFETCH ACCESSES:   12949530 HITS:    2092414 MISSES:   10857116
L2C WRITEBACK ACCESSES:    6629934 HITS:    6628133 MISSES:       1801
L2C RQ ACCESS:    3104649
L2C RQ TO_CACHE:    3104616
L2C RQ MERGED:          0
L2C RQ FORWARD:          0
L2C WQ ACCESS:    6629934
L2C WQ TO_CACHE:    6629934
L2C WQ MERGED:          0
L2C WQ FORWARD:         43
LLC TOTAL     ACCESS:   20028451  HIT:    1810993  MISS:   18217458
LLC LOAD      ACCESS:    2651311  HIT:     363393  MISS:    2287918
LLC RFO       ACCESS:        416  HIT:         19  MISS:        397
LLC PREFETCH  ACCESS:   10785494  HIT:     102445  MISS:   10683049
LLC WRITEBACK ACCESS:    6591230  HIT:    1345136  MISS:    5246094
LLC PREFETCH  REQUESTED:          0  ISSUED:          0  USEFUL:      46570  USELESS:   10637496
LLC TOTAL MSHR MERGED:      21542
LLC LOAD MSHR MERGED:       9942
LLC RFO MSHR MERGED:          0
LLC PREFETCH MSHR MERGED:      11600
LLC WRITEBACK MSHR MERGED:          0
LLC TOTAL ACCESSES:   20049996 HITS:    1810995 MISSES:   18239001
LLC LOAD ACCESSES:    2651312 HITS:     363394 MISSES:    2287918
LLC RFO ACCESSES:        416 HITS:         19 MISSES:        397
LLC PREFETCH ACCESSES:   10807038 HITS:     102446 MISSES:   10704592
LLC WRITEBACK ACCESSES:    6591230 HITS:    1345136 MISSES:    5246094
LLC 0 RQ ACCESS:    2651728
LLC 0 RQ TO_CACHE:    2651727
LLC 0 RQ MERGED:          0
LLC 0 RQ FORWARD:          0
LLC WQ ACCESS:    6591231
LLC WQ TO_CACHE:    6591231
LLC WQ MERGED:          0
LLC WQ FORWARD:          2
Major fault: 0 Minor fault: 183991
CPU 0 L1D next line prefetcher final stats
CPU 0 L2C PC-based stride prefetcher final stats
All Misses: 21099912
All Hits: 1859585
SD Algo Stats - Switches: 0 SRR-Repls: 2347840 BRR-Repls: 0

DRAM Statistics
 CHANNEL 0
 RQ ROW_BUFFER_HIT:    7202230  ROW_BUFFER_MISS:    5769135
 DBUS_CONGESTED:   11316583
 WQ ROW_BUFFER_HIT:    1006655  ROW_BUFFER_MISS:    5580864  FULL:          0

 AVG_CONGESTED_CYCLE: 13
LOADS RETIRED: 204440772
INSTR RETIRED: 500000000
