
*** ChampSim Multicore Out-of-Order Simulator ***

Warmup Instructions: 100000000
Simulation Instructions: 500000000
Number of CPUs: 1
LLC sets: 2048
LLC ways: 16
Clean RRIP Policies: 1213232112132321 Dirty RRIP Policies: 2213132122131321 PSEL Width: 10 Track Set: 4294967295 PSEL Mask: 1 Demote Mask: 1340204313402043DS Algo: 0Window size: 0
Off-chip DRAM Size: 4096 MB Channels: 1 Width: 64-bit Data Rate: 1600 MT/s

CPU 0 runs /mnt/beegfs/iconst01/spec2017/Mcf.trace.gz
NOT SORTED
TRACE STRING: /mnt/beegfs/iconst01/spec2017/Mcf.trace.gz
SORTED
TRACE STRING: /mnt/beegfs/iconst01/spec2017/Mcf.trace.gz
INITIAL
TRACE STRING: /mnt/beegfs/iconst01/spec2017/Mcf.trace.gz

champsim_seed used: 278

CPU 0 L1D next line prefetcher
CPU 0 L2C IP-based stride prefetcher
Initialize DRRIP state
Assign rand_sets[0]: 454  LLC: 2048
rand_sets[0]: 454
Assign rand_sets[1]: 1662  LLC: 2048
rand_sets[1]: 1662
Assign rand_sets[2]: 1921  LLC: 2048
rand_sets[2]: 1921
Assign rand_sets[3]: 1131  LLC: 2048
rand_sets[3]: 1131
Assign rand_sets[4]: 331  LLC: 2048
rand_sets[4]: 331
Assign rand_sets[5]: 1531  LLC: 2048
rand_sets[5]: 1531
Assign rand_sets[6]: 482  LLC: 2048
rand_sets[6]: 482
Assign rand_sets[7]: 1275  LLC: 2048
rand_sets[7]: 1275
Assign rand_sets[8]: 1876  LLC: 2048
rand_sets[8]: 1876
Assign rand_sets[9]: 2038  LLC: 2048
rand_sets[9]: 2038
Assign rand_sets[10]: 701  LLC: 2048
rand_sets[10]: 701
Assign rand_sets[11]: 479  LLC: 2048
rand_sets[11]: 479
Assign rand_sets[12]: 892  LLC: 2048
rand_sets[12]: 892
Assign rand_sets[13]: 1820  LLC: 2048
rand_sets[13]: 1820
Assign rand_sets[14]: 1505  LLC: 2048
rand_sets[14]: 1505
Assign rand_sets[15]: 1159  LLC: 2048
rand_sets[15]: 1159
Assign rand_sets[16]: 513  LLC: 2048
rand_sets[16]: 513
Assign rand_sets[17]: 703  LLC: 2048
rand_sets[17]: 703
Assign rand_sets[18]: 561  LLC: 2048
rand_sets[18]: 561
Assign rand_sets[19]: 990  LLC: 2048
rand_sets[19]: 990
Assign rand_sets[20]: 342  LLC: 2048
rand_sets[20]: 342
Assign rand_sets[21]: 882  LLC: 2048
rand_sets[21]: 882
Assign rand_sets[22]: 15  LLC: 2048
rand_sets[22]: 15
Assign rand_sets[23]: 71  LLC: 2048
rand_sets[23]: 71
Assign rand_sets[24]: 1127  LLC: 2048
rand_sets[24]: 1127
Assign rand_sets[25]: 1382  LLC: 2048
rand_sets[25]: 1382
Assign rand_sets[26]: 647  LLC: 2048
rand_sets[26]: 647
Assign rand_sets[27]: 857  LLC: 2048
rand_sets[27]: 857
Assign rand_sets[28]: 1450  LLC: 2048
rand_sets[28]: 1450
Assign rand_sets[29]: 1160  LLC: 2048
rand_sets[29]: 1160
Assign rand_sets[30]: 1852  LLC: 2048
rand_sets[30]: 1852
Assign rand_sets[31]: 1881  LLC: 2048
rand_sets[31]: 1881
Assign rand_sets[32]: 1770  LLC: 2048
rand_sets[32]: 1770
Assign rand_sets[33]: 1622  LLC: 2048
rand_sets[33]: 1622
Assign rand_sets[34]: 275  LLC: 2048
rand_sets[34]: 275
Assign rand_sets[35]: 635  LLC: 2048
rand_sets[35]: 635
Assign rand_sets[36]: 466  LLC: 2048
rand_sets[36]: 466
Assign rand_sets[37]: 1413  LLC: 2048
rand_sets[37]: 1413
Assign rand_sets[38]: 417  LLC: 2048
rand_sets[38]: 417
Assign rand_sets[39]: 472  LLC: 2048
rand_sets[39]: 472
Assign rand_sets[40]: 1340  LLC: 2048
rand_sets[40]: 1340
Assign rand_sets[41]: 852  LLC: 2048
rand_sets[41]: 852
Assign rand_sets[42]: 1365  LLC: 2048
rand_sets[42]: 1365
Assign rand_sets[43]: 47  LLC: 2048
rand_sets[43]: 47
Assign rand_sets[44]: 823  LLC: 2048
rand_sets[44]: 823
Assign rand_sets[45]: 686  LLC: 2048
rand_sets[45]: 686
Assign rand_sets[46]: 1637  LLC: 2048
rand_sets[46]: 1637
Assign rand_sets[47]: 1115  LLC: 2048
rand_sets[47]: 1115
Assign rand_sets[48]: 986  LLC: 2048
rand_sets[48]: 986
Assign rand_sets[49]: 258  LLC: 2048
rand_sets[49]: 258
Assign rand_sets[50]: 633  LLC: 2048
rand_sets[50]: 633
Assign rand_sets[51]: 920  LLC: 2048
rand_sets[51]: 920
Assign rand_sets[52]: 204  LLC: 2048
rand_sets[52]: 204
Assign rand_sets[53]: 227  LLC: 2048
rand_sets[53]: 227
Assign rand_sets[54]: 1818  LLC: 2048
rand_sets[54]: 1818
Assign rand_sets[55]: 886  LLC: 2048
rand_sets[55]: 886
Assign rand_sets[56]: 1422  LLC: 2048
rand_sets[56]: 1422
Assign rand_sets[57]: 607  LLC: 2048
rand_sets[57]: 607
Assign rand_sets[58]: 217  LLC: 2048
rand_sets[58]: 217
Assign rand_sets[59]: 1945  LLC: 2048
rand_sets[59]: 1945
Assign rand_sets[60]: 143  LLC: 2048
rand_sets[60]: 143
Assign rand_sets[61]: 1311  LLC: 2048
rand_sets[61]: 1311
Assign rand_sets[62]: 319  LLC: 2048
rand_sets[62]: 319
Assign rand_sets[63]: 1846  LLC: 2048
rand_sets[63]: 1846
 CLEAN-RRIP-POLICY-1: 1-2-1-3-2-3-2-1- CLEAN-RRIP-POLICY-2: 1-2-1-3-2-3-2-1-
 DIRTY-RRIP-POLICY-1: 2-2-1-3-1-3-2-1- DIRTY-RRIP-POLICY-2: 2-2-1-3-1-3-2-1-
 PSEL width: 10
Heartbeat CPU 0 instructions: 10000002 cycles: 6249246 heartbeat IPC: 1.60019 cumulative IPC: 1.60019 (Simulation time: 0 hr 0 min 12 sec) 
Heartbeat CPU 0 instructions: 20000000 cycles: 12471863 heartbeat IPC: 1.60704 cumulative IPC: 1.60361 (Simulation time: 0 hr 0 min 24 sec) 
Heartbeat CPU 0 instructions: 30000000 cycles: 18683836 heartbeat IPC: 1.60979 cumulative IPC: 1.60567 (Simulation time: 0 hr 0 min 37 sec) 
Heartbeat CPU 0 instructions: 40000000 cycles: 24895793 heartbeat IPC: 1.6098 cumulative IPC: 1.6067 (Simulation time: 0 hr 0 min 49 sec) 
Heartbeat CPU 0 instructions: 50000003 cycles: 31109441 heartbeat IPC: 1.60936 cumulative IPC: 1.60723 (Simulation time: 0 hr 1 min 1 sec) 
Heartbeat CPU 0 instructions: 60000000 cycles: 37306694 heartbeat IPC: 1.61362 cumulative IPC: 1.60829 (Simulation time: 0 hr 1 min 14 sec) 
Heartbeat CPU 0 instructions: 70000003 cycles: 43526310 heartbeat IPC: 1.60782 cumulative IPC: 1.60822 (Simulation time: 0 hr 1 min 26 sec) 
Heartbeat CPU 0 instructions: 80000000 cycles: 49757681 heartbeat IPC: 1.60478 cumulative IPC: 1.60779 (Simulation time: 0 hr 1 min 38 sec) 
Heartbeat CPU 0 instructions: 90000000 cycles: 55987687 heartbeat IPC: 1.60513 cumulative IPC: 1.6075 (Simulation time: 0 hr 1 min 51 sec) 
Heartbeat CPU 0 instructions: 100000000 cycles: 62207635 heartbeat IPC: 1.60773 cumulative IPC: 1.60752 (Simulation time: 0 hr 2 min 3 sec) 

Warmup complete CPU 0 instructions: 100000001 cycles: 62207636 (Simulation time: 0 hr 2 min 3 sec) 

Heartbeat CPU 0 instructions: 110000000 cycles: 87290351 heartbeat IPC: 0.398681 cumulative IPC: 0.398681 (Simulation time: 0 hr 2 min 26 sec) 
Heartbeat CPU 0 instructions: 120000000 cycles: 112475499 heartbeat IPC: 0.397059 cumulative IPC: 0.397868 (Simulation time: 0 hr 2 min 49 sec) 
Heartbeat CPU 0 instructions: 130000000 cycles: 137758083 heartbeat IPC: 0.395529 cumulative IPC: 0.397086 (Simulation time: 0 hr 3 min 13 sec) 
Heartbeat CPU 0 instructions: 140000000 cycles: 162985596 heartbeat IPC: 0.396393 cumulative IPC: 0.396912 (Simulation time: 0 hr 3 min 36 sec) 
Heartbeat CPU 0 instructions: 150000003 cycles: 188108031 heartbeat IPC: 0.398051 cumulative IPC: 0.397139 (Simulation time: 0 hr 3 min 59 sec) 
Heartbeat CPU 0 instructions: 160000000 cycles: 213525369 heartbeat IPC: 0.393432 cumulative IPC: 0.396517 (Simulation time: 0 hr 4 min 23 sec) 
Heartbeat CPU 0 instructions: 170000001 cycles: 238818931 heartbeat IPC: 0.395358 cumulative IPC: 0.396351 (Simulation time: 0 hr 4 min 46 sec) 
Heartbeat CPU 0 instructions: 180000000 cycles: 264090261 heartbeat IPC: 0.395705 cumulative IPC: 0.39627 (Simulation time: 0 hr 5 min 9 sec) 
Heartbeat CPU 0 instructions: 190000003 cycles: 289332505 heartbeat IPC: 0.396161 cumulative IPC: 0.396258 (Simulation time: 0 hr 5 min 33 sec) 
Heartbeat CPU 0 instructions: 200000000 cycles: 314592713 heartbeat IPC: 0.395879 cumulative IPC: 0.39622 (Simulation time: 0 hr 5 min 56 sec) 
Heartbeat CPU 0 instructions: 210000003 cycles: 339925664 heartbeat IPC: 0.394743 cumulative IPC: 0.396085 (Simulation time: 0 hr 6 min 20 sec) 
Heartbeat CPU 0 instructions: 220000000 cycles: 365485132 heartbeat IPC: 0.391244 cumulative IPC: 0.395677 (Simulation time: 0 hr 6 min 43 sec) 
Heartbeat CPU 0 instructions: 230000002 cycles: 390666061 heartbeat IPC: 0.397126 cumulative IPC: 0.395788 (Simulation time: 0 hr 7 min 7 sec) 
Heartbeat CPU 0 instructions: 240000000 cycles: 416168815 heartbeat IPC: 0.392114 cumulative IPC: 0.395524 (Simulation time: 0 hr 7 min 30 sec) 
Heartbeat CPU 0 instructions: 250000000 cycles: 441470517 heartbeat IPC: 0.39523 cumulative IPC: 0.395504 (Simulation time: 0 hr 7 min 54 sec) 
Heartbeat CPU 0 instructions: 260000000 cycles: 466749980 heartbeat IPC: 0.395578 cumulative IPC: 0.395509 (Simulation time: 0 hr 8 min 18 sec) 
Heartbeat CPU 0 instructions: 270000001 cycles: 492144220 heartbeat IPC: 0.39379 cumulative IPC: 0.395407 (Simulation time: 0 hr 8 min 41 sec) 
Heartbeat CPU 0 instructions: 280000000 cycles: 517459962 heartbeat IPC: 0.395011 cumulative IPC: 0.395385 (Simulation time: 0 hr 9 min 5 sec) 
Heartbeat CPU 0 instructions: 290000001 cycles: 542842806 heartbeat IPC: 0.393967 cumulative IPC: 0.39531 (Simulation time: 0 hr 9 min 29 sec) 
Heartbeat CPU 0 instructions: 300000000 cycles: 568439465 heartbeat IPC: 0.390676 cumulative IPC: 0.395076 (Simulation time: 0 hr 9 min 52 sec) 
Heartbeat CPU 0 instructions: 310000003 cycles: 593676416 heartbeat IPC: 0.396244 cumulative IPC: 0.395131 (Simulation time: 0 hr 10 min 16 sec) 
Heartbeat CPU 0 instructions: 320000000 cycles: 619265393 heartbeat IPC: 0.390793 cumulative IPC: 0.394932 (Simulation time: 0 hr 10 min 40 sec) 
Heartbeat CPU 0 instructions: 330000003 cycles: 644575052 heartbeat IPC: 0.395106 cumulative IPC: 0.39494 (Simulation time: 0 hr 11 min 3 sec) 
Heartbeat CPU 0 instructions: 340000000 cycles: 670221241 heartbeat IPC: 0.389921 cumulative IPC: 0.394728 (Simulation time: 0 hr 11 min 27 sec) 
Heartbeat CPU 0 instructions: 350000002 cycles: 695848429 heartbeat IPC: 0.390211 cumulative IPC: 0.394545 (Simulation time: 0 hr 11 min 51 sec) 
Heartbeat CPU 0 instructions: 360000000 cycles: 721623295 heartbeat IPC: 0.387975 cumulative IPC: 0.394288 (Simulation time: 0 hr 12 min 14 sec) 
Heartbeat CPU 0 instructions: 370000000 cycles: 747156459 heartbeat IPC: 0.391648 cumulative IPC: 0.39419 (Simulation time: 0 hr 12 min 38 sec) 
Heartbeat CPU 0 instructions: 380000000 cycles: 772480881 heartbeat IPC: 0.394876 cumulative IPC: 0.394214 (Simulation time: 0 hr 13 min 1 sec) 
Heartbeat CPU 0 instructions: 390000002 cycles: 797828628 heartbeat IPC: 0.394512 cumulative IPC: 0.394225 (Simulation time: 0 hr 13 min 25 sec) 
Heartbeat CPU 0 instructions: 400000000 cycles: 823352263 heartbeat IPC: 0.391794 cumulative IPC: 0.394143 (Simulation time: 0 hr 13 min 48 sec) 
Heartbeat CPU 0 instructions: 410000002 cycles: 848788567 heartbeat IPC: 0.393139 cumulative IPC: 0.394111 (Simulation time: 0 hr 14 min 12 sec) 
Heartbeat CPU 0 instructions: 420000000 cycles: 874054985 heartbeat IPC: 0.395782 cumulative IPC: 0.394163 (Simulation time: 0 hr 14 min 35 sec) 
Heartbeat CPU 0 instructions: 430000000 cycles: 899572382 heartbeat IPC: 0.39189 cumulative IPC: 0.394093 (Simulation time: 0 hr 14 min 59 sec) 
Heartbeat CPU 0 instructions: 440000000 cycles: 924769641 heartbeat IPC: 0.396869 cumulative IPC: 0.394175 (Simulation time: 0 hr 15 min 22 sec) 
Heartbeat CPU 0 instructions: 450000000 cycles: 950597146 heartbeat IPC: 0.387184 cumulative IPC: 0.393971 (Simulation time: 0 hr 15 min 47 sec) 
Heartbeat CPU 0 instructions: 460000000 cycles: 976335910 heartbeat IPC: 0.388519 cumulative IPC: 0.393818 (Simulation time: 0 hr 16 min 12 sec) 
Heartbeat CPU 0 instructions: 470000001 cycles: 1001838668 heartbeat IPC: 0.392114 cumulative IPC: 0.393772 (Simulation time: 0 hr 16 min 36 sec) 
Heartbeat CPU 0 instructions: 480000000 cycles: 1027534914 heartbeat IPC: 0.389162 cumulative IPC: 0.393649 (Simulation time: 0 hr 17 min 1 sec) 
Heartbeat CPU 0 instructions: 490000000 cycles: 1053347871 heartbeat IPC: 0.387402 cumulative IPC: 0.393486 (Simulation time: 0 hr 17 min 26 sec) 
Heartbeat CPU 0 instructions: 500000000 cycles: 1079482923 heartbeat IPC: 0.382628 cumulative IPC: 0.393207 (Simulation time: 0 hr 17 min 50 sec) 
Heartbeat CPU 0 instructions: 510000003 cycles: 1105465925 heartbeat IPC: 0.384867 cumulative IPC: 0.393 (Simulation time: 0 hr 18 min 15 sec) 
Heartbeat CPU 0 instructions: 520000000 cycles: 1131636943 heartbeat IPC: 0.382102 cumulative IPC: 0.392733 (Simulation time: 0 hr 18 min 39 sec) 
Heartbeat CPU 0 instructions: 530000003 cycles: 1157845436 heartbeat IPC: 0.381556 cumulative IPC: 0.392465 (Simulation time: 0 hr 19 min 4 sec) 
Heartbeat CPU 0 instructions: 540000000 cycles: 1183980231 heartbeat IPC: 0.382632 cumulative IPC: 0.392236 (Simulation time: 0 hr 19 min 29 sec) 
Heartbeat CPU 0 instructions: 550000000 cycles: 1210092821 heartbeat IPC: 0.382957 cumulative IPC: 0.392025 (Simulation time: 0 hr 19 min 53 sec) 
Heartbeat CPU 0 instructions: 560000000 cycles: 1236549196 heartbeat IPC: 0.377981 cumulative IPC: 0.391709 (Simulation time: 0 hr 20 min 18 sec) 
Heartbeat CPU 0 instructions: 570000001 cycles: 1262918193 heartbeat IPC: 0.379233 cumulative IPC: 0.391435 (Simulation time: 0 hr 20 min 43 sec) 
Heartbeat CPU 0 instructions: 580000000 cycles: 1289317749 heartbeat IPC: 0.378794 cumulative IPC: 0.391163 (Simulation time: 0 hr 21 min 7 sec) 
Heartbeat CPU 0 instructions: 590000000 cycles: 1315888621 heartbeat IPC: 0.376352 cumulative IPC: 0.390849 (Simulation time: 0 hr 21 min 32 sec) 
Heartbeat CPU 0 instructions: 600000000 cycles: 1342557677 heartbeat IPC: 0.374966 cumulative IPC: 0.390518 (Simulation time: 0 hr 21 min 57 sec) 
Finished CPU 0 instructions: 500000003 cycles: 1280350054 cumulative IPC: 0.390518 (Simulation time: 0 hr 21 min 57 sec) 

CPU 0 Branch Prediction Accuracy: 91.1342% MPKI: 18.7968
Number of Branches: 106006945 Number of Mispredictions: 9398408
Number of LOAD Instructions: 207894007
Number of LOAD Instructions (ROI): 207894007
Number of STORE Instructions: 54285997
Number of STORE Instructions (ROI): 54285997
Total Destination Memory Operands: 57463404
Total Destination Memory Operands (ROI): 57463404
Total Source Memory Operands: 207894007
Total Source Memory Operands (ROI): 207894007
Number of DEPENDED LOADS: 18113511
Number of DEPENDED LOADS (ROI): 18113511
Number of SQ_ADDED: 57463404
Number of SQ_ADDED (ROI): 57463404
Number of LQ_ADDED: 209400911
Number of LQ_ADDED (ROI): 209400911
Number of Instructions read from trace: 600000039

ChampSim completed all CPUs

Region of Interest Statistics

CPU 0 cumulative IPC: 0.390518 instructions: 500000003 cycles: 1280350054
ITLB TOTAL     ACCESS:   96398907  HIT:   96398907  MISS:          0
ITLB LOAD      ACCESS:   96398907  HIT:   96398907  MISS:          0
ITLB RFO       ACCESS:          0  HIT:          0  MISS:          0
ITLB PREFETCH  ACCESS:          0  HIT:          0  MISS:          0
ITLB WRITEBACK ACCESS:          0  HIT:          0  MISS:          0
ITLB PREFETCH  REQUESTED:          0  ISSUED:          0  USEFUL:          0  USELESS:          0
ITLB TOTAL MSHR MERGED:          0
ITLB LOAD MSHR MERGED:          0
ITLB RFO MSHR MERGED:          0
ITLB PREFETCH MSHR MERGED:          0
ITLB WRITEBACK MSHR MERGED:          0
ITLB TOTAL ACCESSES:   96398907 HITS:   96398907 MISSES:          0
ITLB LOAD ACCESSES:   96398907 HITS:   96398907 MISSES:          0
ITLB RFO ACCESSES:          0 HITS:          0 MISSES:          0
ITLB PREFETCH ACCESSES:          0 HITS:          0 MISSES:          0
ITLB WRITEBACK ACCESSES:          0 HITS:          0 MISSES:          0
ITLB RQ ACCESS:  499999980
ITLB RQ TO_CACHE:   96398907
ITLB RQ MERGED:  403601073
ITLB RQ FORWARD:          0
ITLB WQ ACCESS:          0
ITLB WQ TO_CACHE:          0
ITLB WQ MERGED:          0
ITLB WQ FORWARD:          0
DTLB TOTAL     ACCESS:  155159616  HIT:  150247540  MISS:    4912076
DTLB LOAD      ACCESS:  117713112  HIT:  113322672  MISS:    4390440
DTLB RFO       ACCESS:   37446504  HIT:   36924868  MISS:     521636
DTLB PREFETCH  ACCESS:          0  HIT:          0  MISS:          0
DTLB WRITEBACK ACCESS:          0  HIT:          0  MISS:          0
DTLB PREFETCH  REQUESTED:          0  ISSUED:          0  USEFUL:          0  USELESS:          0
DTLB TOTAL MSHR MERGED:     451297
DTLB LOAD MSHR MERGED:     159645
DTLB RFO MSHR MERGED:     291652
DTLB PREFETCH MSHR MERGED:          0
DTLB WRITEBACK MSHR MERGED:          0
DTLB TOTAL ACCESSES:  155610913 HITS:  150247540 MISSES:    5363373
DTLB LOAD ACCESSES:  117872757 HITS:  113322672 MISSES:    4550085
DTLB RFO ACCESSES:   37738156 HITS:   36924868 MISSES:     813288
DTLB PREFETCH ACCESSES:          0 HITS:          0 MISSES:          0
DTLB WRITEBACK ACCESSES:          0 HITS:          0 MISSES:          0
DTLB RQ ACCESS:  205969578
DTLB RQ TO_CACHE:  155610913
DTLB RQ MERGED:   50358665
DTLB RQ FORWARD:          0
DTLB WQ ACCESS:          0
DTLB WQ TO_CACHE:          0
DTLB WQ MERGED:          0
DTLB WQ FORWARD:          0
L1D TOTAL     ACCESS:  277207723  HIT:  242385330  MISS:   34822393
L1D LOAD      ACCESS:  125428505  HIT:  107818741  MISS:   17609764
L1D RFO       ACCESS:   41133689  HIT:   38821863  MISS:    2311826
L1D PREFETCH  ACCESS:  110645529  HIT:   95744726  MISS:   14900803
L1D WRITEBACK ACCESS:          0  HIT:          0  MISS:          0
L1D PREFETCH  REQUESTED:  126265156  ISSUED:  124745878  USEFUL:    2734637  USELESS:   12166191
L1D TOTAL MSHR MERGED:    8463424
L1D LOAD MSHR MERGED:    1515029
L1D RFO MSHR MERGED:    3769685
L1D PREFETCH MSHR MERGED:    3178710
L1D WRITEBACK MSHR MERGED:          0
L1D TOTAL ACCESSES:  285758398 HITS:  242472580 MISSES:   43285818
L1D LOAD ACCESSES:  126265182 HITS:  107818767 MISSES:   18446415
L1D RFO ACCESSES:   44902877 HITS:   38821863 MISSES:    6081014
L1D PREFETCH ACCESSES:  114590339 HITS:   95831950 MISSES:   18758389
L1D WRITEBACK ACCESSES:          0 HITS:          0 MISSES:          0
L1D RQ ACCESS:  158422697
L1D RQ TO_CACHE:  126265156
L1D RQ MERGED:   32157515
L1D RQ FORWARD:          0
L1D WQ ACCESS:   47546882
L1D WQ TO_CACHE:   44902877
L1D WQ MERGED:    2644005
L1D WQ FORWARD:      87250
L1I TOTAL     ACCESS:  132806857  HIT:  132806857  MISS:          0
L1I LOAD      ACCESS:  132806857  HIT:  132806857  MISS:          0
L1I RFO       ACCESS:          0  HIT:          0  MISS:          0
L1I PREFETCH  ACCESS:          0  HIT:          0  MISS:          0
L1I WRITEBACK ACCESS:          0  HIT:          0  MISS:          0
L1I PREFETCH  REQUESTED:          0  ISSUED:          0  USEFUL:          0  USELESS:          0
L1I TOTAL MSHR MERGED:          0
L1I LOAD MSHR MERGED:          0
L1I RFO MSHR MERGED:          0
L1I PREFETCH MSHR MERGED:          0
L1I WRITEBACK MSHR MERGED:          0
L1I TOTAL ACCESSES:  132806857 HITS:  132806857 MISSES:          0
L1I LOAD ACCESSES:  132806857 HITS:  132806857 MISSES:          0
L1I RFO ACCESSES:          0 HITS:          0 MISSES:          0
L1I PREFETCH ACCESSES:          0 HITS:          0 MISSES:          0
L1I WRITEBACK ACCESSES:          0 HITS:          0 MISSES:          0
L1I RQ ACCESS:  499999980
L1I RQ TO_CACHE:  132806857
L1I RQ MERGED:  367193123
L1I RQ FORWARD:          0
L1I WQ ACCESS:          0
L1I WQ TO_CACHE:          0
L1I WQ MERGED:          0
L1I WQ FORWARD:          0
L2C TOTAL     ACCESS:   39593835  HIT:   20624578  MISS:   18969257
L2C LOAD      ACCESS:   16931326  HIT:    8566720  MISS:    8364606
L2C RFO       ACCESS:    2311279  HIT:     630813  MISS:    1680466
L2C PREFETCH  ACCESS:   17128807  HIT:    8208372  MISS:    8920435
L2C WRITEBACK ACCESS:    3222423  HIT:    3218673  MISS:       3750
L2C PREFETCH  REQUESTED:    2835305  ISSUED:    2835305  USEFUL:    1306347  USELESS:    7613823
L2C TOTAL MSHR MERGED:     507547
L2C LOAD MSHR MERGED:      76879
L2C RFO MSHR MERGED:          0
L2C PREFETCH MSHR MERGED:     430668
L2C WRITEBACK MSHR MERGED:          0
L2C TOTAL ACCESSES:   40198212 HITS:   20624739 MISSES:   19573473
L2C LOAD ACCESSES:   16931386 HITS:    8566780 MISSES:    8364606
L2C RFO ACCESSES:    2311329 HITS:     630863 MISSES:    1680466
L2C PREFETCH ACCESSES:   17733074 HITS:    8208423 MISSES:    9524651
L2C WRITEBACK ACCESSES:    3222423 HITS:    3218673 MISSES:       3750
L2C RQ ACCESS:   19242715
L2C RQ TO_CACHE:   19242605
L2C RQ MERGED:          0
L2C RQ FORWARD:          0
L2C WQ ACCESS:    3222423
L2C WQ TO_CACHE:    3222423
L2C WQ MERGED:          0
L2C WQ FORWARD:        161
LLC TOTAL     ACCESS:   21192149  HIT:   13761802  MISS:    7430347
LLC LOAD      ACCESS:    8287704  HIT:    5492739  MISS:    2794965
LLC RFO       ACCESS:    1680394  HIT:    1605947  MISS:      74447
LLC PREFETCH  ACCESS:    9048402  HIT:    4559992  MISS:    4488410
LLC WRITEBACK ACCESS:    2175649  HIT:    2103124  MISS:      72525
LLC PREFETCH  REQUESTED:          0  ISSUED:          0  USEFUL:     192699  USELESS:    4298157
LLC TOTAL MSHR MERGED:      38613
LLC LOAD MSHR MERGED:      11518
LLC RFO MSHR MERGED:          0
LLC PREFETCH MSHR MERGED:      27095
LLC WRITEBACK MSHR MERGED:          0
LLC TOTAL ACCESSES:   21230889 HITS:   13761928 MISSES:    7468961
LLC LOAD ACCESSES:    8287727 HITS:    5492762 MISSES:    2794965
LLC RFO ACCESSES:    1680466 HITS:    1606019 MISSES:      74447
LLC PREFETCH ACCESSES:    9087047 HITS:    4560023 MISSES:    4527024
LLC WRITEBACK ACCESSES:    2175649 HITS:    2103124 MISSES:      72525
LLC 0 RQ ACCESS:    9968193
LLC 0 RQ TO_CACHE:    9968098
LLC 0 RQ MERGED:          0
LLC 0 RQ FORWARD:          0
LLC WQ ACCESS:    2175650
LLC WQ TO_CACHE:    2175650
LLC WQ MERGED:          0
LLC WQ FORWARD:        126
Major fault: 0 Minor fault: 56391
CPU 0 L1D next line prefetcher final stats
CPU 0 L2C PC-based stride prefetcher final stats
All Misses: 8721913
All Hits: 15847079
SD Algo Stats - Switches: 0 SRR-Repls: 2944384 BRR-Repls: 0

DRAM Statistics
 CHANNEL 0
 RQ ROW_BUFFER_HIT:    4601252  ROW_BUFFER_MISS:    2718035
 DBUS_CONGESTED:    3422931
 WQ ROW_BUFFER_HIT:      10573  ROW_BUFFER_MISS:     123823  FULL:          0

 AVG_CONGESTED_CYCLE: 12
LOADS RETIRED: 173631671
INSTR RETIRED: 500000000
