
*** ChampSim Multicore Out-of-Order Simulator ***

Warmup Instructions: 100000000
Simulation Instructions: 500000000
Number of CPUs: 1
LLC sets: 2048
LLC ways: 16
Clean RRIP Policies: 1213232112132321 Dirty RRIP Policies: 2213132122131321 PSEL Width: 10 Track Set: 4294967295 PSEL Mask: 1 Demote Mask: 1340204313402043DS Algo: 0Window size: 0
Off-chip DRAM Size: 4096 MB Channels: 1 Width: 64-bit Data Rate: 1600 MT/s

CPU 0 runs /mnt/beegfs/iconst01/spec2017/Roms.trace.gz
NOT SORTED
TRACE STRING: /mnt/beegfs/iconst01/spec2017/Roms.trace.gz
SORTED
TRACE STRING: /mnt/beegfs/iconst01/spec2017/Roms.trace.gz
INITIAL
TRACE STRING: /mnt/beegfs/iconst01/spec2017/Roms.trace.gz

champsim_seed used: 417

CPU 0 L1D next line prefetcher
CPU 0 L2C IP-based stride prefetcher
Initialize DRRIP state
Assign rand_sets[0]: 454  LLC: 2048
rand_sets[0]: 454
Assign rand_sets[1]: 1662  LLC: 2048
rand_sets[1]: 1662
Assign rand_sets[2]: 1921  LLC: 2048
rand_sets[2]: 1921
Assign rand_sets[3]: 1131  LLC: 2048
rand_sets[3]: 1131
Assign rand_sets[4]: 331  LLC: 2048
rand_sets[4]: 331
Assign rand_sets[5]: 1531  LLC: 2048
rand_sets[5]: 1531
Assign rand_sets[6]: 482  LLC: 2048
rand_sets[6]: 482
Assign rand_sets[7]: 1275  LLC: 2048
rand_sets[7]: 1275
Assign rand_sets[8]: 1876  LLC: 2048
rand_sets[8]: 1876
Assign rand_sets[9]: 2038  LLC: 2048
rand_sets[9]: 2038
Assign rand_sets[10]: 701  LLC: 2048
rand_sets[10]: 701
Assign rand_sets[11]: 479  LLC: 2048
rand_sets[11]: 479
Assign rand_sets[12]: 892  LLC: 2048
rand_sets[12]: 892
Assign rand_sets[13]: 1820  LLC: 2048
rand_sets[13]: 1820
Assign rand_sets[14]: 1505  LLC: 2048
rand_sets[14]: 1505
Assign rand_sets[15]: 1159  LLC: 2048
rand_sets[15]: 1159
Assign rand_sets[16]: 513  LLC: 2048
rand_sets[16]: 513
Assign rand_sets[17]: 703  LLC: 2048
rand_sets[17]: 703
Assign rand_sets[18]: 561  LLC: 2048
rand_sets[18]: 561
Assign rand_sets[19]: 990  LLC: 2048
rand_sets[19]: 990
Assign rand_sets[20]: 342  LLC: 2048
rand_sets[20]: 342
Assign rand_sets[21]: 882  LLC: 2048
rand_sets[21]: 882
Assign rand_sets[22]: 15  LLC: 2048
rand_sets[22]: 15
Assign rand_sets[23]: 71  LLC: 2048
rand_sets[23]: 71
Assign rand_sets[24]: 1127  LLC: 2048
rand_sets[24]: 1127
Assign rand_sets[25]: 1382  LLC: 2048
rand_sets[25]: 1382
Assign rand_sets[26]: 647  LLC: 2048
rand_sets[26]: 647
Assign rand_sets[27]: 857  LLC: 2048
rand_sets[27]: 857
Assign rand_sets[28]: 1450  LLC: 2048
rand_sets[28]: 1450
Assign rand_sets[29]: 1160  LLC: 2048
rand_sets[29]: 1160
Assign rand_sets[30]: 1852  LLC: 2048
rand_sets[30]: 1852
Assign rand_sets[31]: 1881  LLC: 2048
rand_sets[31]: 1881
Assign rand_sets[32]: 1770  LLC: 2048
rand_sets[32]: 1770
Assign rand_sets[33]: 1622  LLC: 2048
rand_sets[33]: 1622
Assign rand_sets[34]: 275  LLC: 2048
rand_sets[34]: 275
Assign rand_sets[35]: 635  LLC: 2048
rand_sets[35]: 635
Assign rand_sets[36]: 466  LLC: 2048
rand_sets[36]: 466
Assign rand_sets[37]: 1413  LLC: 2048
rand_sets[37]: 1413
Assign rand_sets[38]: 417  LLC: 2048
rand_sets[38]: 417
Assign rand_sets[39]: 472  LLC: 2048
rand_sets[39]: 472
Assign rand_sets[40]: 1340  LLC: 2048
rand_sets[40]: 1340
Assign rand_sets[41]: 852  LLC: 2048
rand_sets[41]: 852
Assign rand_sets[42]: 1365  LLC: 2048
rand_sets[42]: 1365
Assign rand_sets[43]: 47  LLC: 2048
rand_sets[43]: 47
Assign rand_sets[44]: 823  LLC: 2048
rand_sets[44]: 823
Assign rand_sets[45]: 686  LLC: 2048
rand_sets[45]: 686
Assign rand_sets[46]: 1637  LLC: 2048
rand_sets[46]: 1637
Assign rand_sets[47]: 1115  LLC: 2048
rand_sets[47]: 1115
Assign rand_sets[48]: 986  LLC: 2048
rand_sets[48]: 986
Assign rand_sets[49]: 258  LLC: 2048
rand_sets[49]: 258
Assign rand_sets[50]: 633  LLC: 2048
rand_sets[50]: 633
Assign rand_sets[51]: 920  LLC: 2048
rand_sets[51]: 920
Assign rand_sets[52]: 204  LLC: 2048
rand_sets[52]: 204
Assign rand_sets[53]: 227  LLC: 2048
rand_sets[53]: 227
Assign rand_sets[54]: 1818  LLC: 2048
rand_sets[54]: 1818
Assign rand_sets[55]: 886  LLC: 2048
rand_sets[55]: 886
Assign rand_sets[56]: 1422  LLC: 2048
rand_sets[56]: 1422
Assign rand_sets[57]: 607  LLC: 2048
rand_sets[57]: 607
Assign rand_sets[58]: 217  LLC: 2048
rand_sets[58]: 217
Assign rand_sets[59]: 1945  LLC: 2048
rand_sets[59]: 1945
Assign rand_sets[60]: 143  LLC: 2048
rand_sets[60]: 143
Assign rand_sets[61]: 1311  LLC: 2048
rand_sets[61]: 1311
Assign rand_sets[62]: 319  LLC: 2048
rand_sets[62]: 319
Assign rand_sets[63]: 1846  LLC: 2048
rand_sets[63]: 1846
 CLEAN-RRIP-POLICY-1: 1-2-1-3-2-3-2-1- CLEAN-RRIP-POLICY-2: 1-2-1-3-2-3-2-1-
 DIRTY-RRIP-POLICY-1: 2-2-1-3-1-3-2-1- DIRTY-RRIP-POLICY-2: 2-2-1-3-1-3-2-1-
 PSEL width: 10
Heartbeat CPU 0 instructions: 10000000 cycles: 4688066 heartbeat IPC: 2.13308 cumulative IPC: 2.13308 (Simulation time: 0 hr 0 min 16 sec) 
Heartbeat CPU 0 instructions: 20000000 cycles: 9325334 heartbeat IPC: 2.15644 cumulative IPC: 2.1447 (Simulation time: 0 hr 0 min 33 sec) 
Heartbeat CPU 0 instructions: 30000003 cycles: 14019725 heartbeat IPC: 2.1302 cumulative IPC: 2.13984 (Simulation time: 0 hr 0 min 50 sec) 
Heartbeat CPU 0 instructions: 40000000 cycles: 18670156 heartbeat IPC: 2.15034 cumulative IPC: 2.14246 (Simulation time: 0 hr 1 min 7 sec) 
Heartbeat CPU 0 instructions: 50000003 cycles: 23323541 heartbeat IPC: 2.14897 cumulative IPC: 2.14376 (Simulation time: 0 hr 1 min 23 sec) 
Heartbeat CPU 0 instructions: 60000000 cycles: 27976238 heartbeat IPC: 2.14929 cumulative IPC: 2.14468 (Simulation time: 0 hr 1 min 40 sec) 
Heartbeat CPU 0 instructions: 70000002 cycles: 32367511 heartbeat IPC: 2.27724 cumulative IPC: 2.16266 (Simulation time: 0 hr 1 min 54 sec) 
Heartbeat CPU 0 instructions: 80000000 cycles: 36304450 heartbeat IPC: 2.54004 cumulative IPC: 2.20359 (Simulation time: 0 hr 2 min 6 sec) 
Heartbeat CPU 0 instructions: 90000000 cycles: 40249830 heartbeat IPC: 2.53461 cumulative IPC: 2.23603 (Simulation time: 0 hr 2 min 17 sec) 
Heartbeat CPU 0 instructions: 100000000 cycles: 44212355 heartbeat IPC: 2.52364 cumulative IPC: 2.26181 (Simulation time: 0 hr 2 min 29 sec) 

Warmup complete CPU 0 instructions: 100000002 cycles: 44212356 (Simulation time: 0 hr 2 min 29 sec) 

Heartbeat CPU 0 instructions: 110000000 cycles: 53278355 heartbeat IPC: 1.10302 cumulative IPC: 1.10302 (Simulation time: 0 hr 2 min 48 sec) 
Heartbeat CPU 0 instructions: 120000000 cycles: 62288922 heartbeat IPC: 1.10981 cumulative IPC: 1.1064 (Simulation time: 0 hr 3 min 6 sec) 
Heartbeat CPU 0 instructions: 130000002 cycles: 71309630 heartbeat IPC: 1.10856 cumulative IPC: 1.10712 (Simulation time: 0 hr 3 min 25 sec) 
Heartbeat CPU 0 instructions: 140000000 cycles: 80183742 heartbeat IPC: 1.12687 cumulative IPC: 1.11199 (Simulation time: 0 hr 3 min 43 sec) 
Heartbeat CPU 0 instructions: 150000003 cycles: 89203691 heartbeat IPC: 1.10865 cumulative IPC: 1.11133 (Simulation time: 0 hr 4 min 1 sec) 
Heartbeat CPU 0 instructions: 160000000 cycles: 99783430 heartbeat IPC: 0.945203 cumulative IPC: 1.0797 (Simulation time: 0 hr 4 min 22 sec) 
Heartbeat CPU 0 instructions: 170000002 cycles: 112357602 heartbeat IPC: 0.795281 cumulative IPC: 1.02722 (Simulation time: 0 hr 4 min 45 sec) 
Heartbeat CPU 0 instructions: 180000000 cycles: 124924433 heartbeat IPC: 0.795745 cumulative IPC: 0.991178 (Simulation time: 0 hr 5 min 7 sec) 
Heartbeat CPU 0 instructions: 190000000 cycles: 137763135 heartbeat IPC: 0.778895 cumulative IPC: 0.962044 (Simulation time: 0 hr 5 min 30 sec) 
Heartbeat CPU 0 instructions: 200000000 cycles: 151675478 heartbeat IPC: 0.718786 cumulative IPC: 0.930552 (Simulation time: 0 hr 5 min 53 sec) 
Heartbeat CPU 0 instructions: 210000001 cycles: 165614701 heartbeat IPC: 0.7174 cumulative IPC: 0.906078 (Simulation time: 0 hr 6 min 17 sec) 
Heartbeat CPU 0 instructions: 220000000 cycles: 179428210 heartbeat IPC: 0.723929 cumulative IPC: 0.88747 (Simulation time: 0 hr 6 min 40 sec) 
Heartbeat CPU 0 instructions: 230000000 cycles: 193095569 heartbeat IPC: 0.73167 cumulative IPC: 0.873168 (Simulation time: 0 hr 7 min 4 sec) 
Heartbeat CPU 0 instructions: 240000000 cycles: 206871267 heartbeat IPC: 0.725916 cumulative IPC: 0.860697 (Simulation time: 0 hr 7 min 28 sec) 
Heartbeat CPU 0 instructions: 250000003 cycles: 218098791 heartbeat IPC: 0.890669 cumulative IPC: 0.862632 (Simulation time: 0 hr 7 min 50 sec) 
Heartbeat CPU 0 instructions: 260000000 cycles: 226045027 heartbeat IPC: 1.25846 cumulative IPC: 0.87993 (Simulation time: 0 hr 8 min 9 sec) 
Heartbeat CPU 0 instructions: 270000003 cycles: 234605997 heartbeat IPC: 1.16809 cumulative IPC: 0.892887 (Simulation time: 0 hr 8 min 29 sec) 
Heartbeat CPU 0 instructions: 280000000 cycles: 244218071 heartbeat IPC: 1.04036 cumulative IPC: 0.899974 (Simulation time: 0 hr 8 min 50 sec) 
Heartbeat CPU 0 instructions: 290000000 cycles: 253533317 heartbeat IPC: 1.07351 cumulative IPC: 0.907697 (Simulation time: 0 hr 9 min 10 sec) 
Heartbeat CPU 0 instructions: 300000000 cycles: 262689091 heartbeat IPC: 1.09221 cumulative IPC: 0.915429 (Simulation time: 0 hr 9 min 31 sec) 
Heartbeat CPU 0 instructions: 310000000 cycles: 271857996 heartbeat IPC: 1.09064 cumulative IPC: 0.922486 (Simulation time: 0 hr 9 min 52 sec) 
Heartbeat CPU 0 instructions: 320000000 cycles: 281023371 heartbeat IPC: 1.09106 cumulative IPC: 0.929011 (Simulation time: 0 hr 10 min 13 sec) 
Heartbeat CPU 0 instructions: 330000002 cycles: 290117392 heartbeat IPC: 1.09962 cumulative IPC: 0.93532 (Simulation time: 0 hr 10 min 34 sec) 
Heartbeat CPU 0 instructions: 340000000 cycles: 300613888 heartbeat IPC: 0.952699 cumulative IPC: 0.936032 (Simulation time: 0 hr 10 min 57 sec) 
Heartbeat CPU 0 instructions: 350000001 cycles: 309754975 heartbeat IPC: 1.09396 cumulative IPC: 0.941468 (Simulation time: 0 hr 11 min 17 sec) 
Heartbeat CPU 0 instructions: 360000000 cycles: 318833100 heartbeat IPC: 1.10155 cumulative IPC: 0.94676 (Simulation time: 0 hr 11 min 38 sec) 
Heartbeat CPU 0 instructions: 370000000 cycles: 327850712 heartbeat IPC: 1.10894 cumulative IPC: 0.951916 (Simulation time: 0 hr 11 min 58 sec) 
Heartbeat CPU 0 instructions: 380000000 cycles: 336771814 heartbeat IPC: 1.12094 cumulative IPC: 0.95707 (Simulation time: 0 hr 12 min 19 sec) 
Heartbeat CPU 0 instructions: 390000001 cycles: 345463589 heartbeat IPC: 1.15051 cumulative IPC: 0.962652 (Simulation time: 0 hr 12 min 39 sec) 
Heartbeat CPU 0 instructions: 400000000 cycles: 354213168 heartbeat IPC: 1.14291 cumulative IPC: 0.967739 (Simulation time: 0 hr 12 min 59 sec) 
Heartbeat CPU 0 instructions: 410000003 cycles: 362835289 heartbeat IPC: 1.15981 cumulative IPC: 0.972937 (Simulation time: 0 hr 13 min 19 sec) 
Heartbeat CPU 0 instructions: 420000000 cycles: 371523189 heartbeat IPC: 1.15103 cumulative IPC: 0.977664 (Simulation time: 0 hr 13 min 39 sec) 
Heartbeat CPU 0 instructions: 430000001 cycles: 380116318 heartbeat IPC: 1.16372 cumulative IPC: 0.982424 (Simulation time: 0 hr 13 min 59 sec) 
Heartbeat CPU 0 instructions: 440000000 cycles: 388643200 heartbeat IPC: 1.17276 cumulative IPC: 0.987136 (Simulation time: 0 hr 14 min 19 sec) 
Heartbeat CPU 0 instructions: 450000001 cycles: 398508798 heartbeat IPC: 1.01362 cumulative IPC: 0.987873 (Simulation time: 0 hr 14 min 41 sec) 
Heartbeat CPU 0 instructions: 460000000 cycles: 407044281 heartbeat IPC: 1.17158 cumulative IPC: 0.992195 (Simulation time: 0 hr 15 min 1 sec) 
Heartbeat CPU 0 instructions: 470000003 cycles: 415450096 heartbeat IPC: 1.18965 cumulative IPC: 0.996666 (Simulation time: 0 hr 15 min 20 sec) 
Heartbeat CPU 0 instructions: 480000000 cycles: 423881661 heartbeat IPC: 1.18602 cumulative IPC: 1.00087 (Simulation time: 0 hr 15 min 40 sec) 
Heartbeat CPU 0 instructions: 490000000 cycles: 432273567 heartbeat IPC: 1.19162 cumulative IPC: 1.005 (Simulation time: 0 hr 16 min 0 sec) 
Heartbeat CPU 0 instructions: 500000000 cycles: 440678897 heartbeat IPC: 1.18972 cumulative IPC: 1.00891 (Simulation time: 0 hr 16 min 20 sec) 
Heartbeat CPU 0 instructions: 510000001 cycles: 449028813 heartbeat IPC: 1.19762 cumulative IPC: 1.0128 (Simulation time: 0 hr 16 min 39 sec) 
Heartbeat CPU 0 instructions: 520000000 cycles: 457413681 heartbeat IPC: 1.19262 cumulative IPC: 1.01645 (Simulation time: 0 hr 16 min 59 sec) 
Heartbeat CPU 0 instructions: 530000001 cycles: 465784156 heartbeat IPC: 1.19468 cumulative IPC: 1.01999 (Simulation time: 0 hr 17 min 19 sec) 
Heartbeat CPU 0 instructions: 540000000 cycles: 474341663 heartbeat IPC: 1.16856 cumulative IPC: 1.02295 (Simulation time: 0 hr 17 min 39 sec) 
Heartbeat CPU 0 instructions: 550000000 cycles: 482942472 heartbeat IPC: 1.16268 cumulative IPC: 1.02569 (Simulation time: 0 hr 17 min 59 sec) 
Heartbeat CPU 0 instructions: 560000000 cycles: 491318848 heartbeat IPC: 1.19383 cumulative IPC: 1.02884 (Simulation time: 0 hr 18 min 19 sec) 
Heartbeat CPU 0 instructions: 570000001 cycles: 502822960 heartbeat IPC: 0.869254 cumulative IPC: 1.02483 (Simulation time: 0 hr 18 min 40 sec) 
Heartbeat CPU 0 instructions: 580000000 cycles: 514076877 heartbeat IPC: 0.888579 cumulative IPC: 1.02157 (Simulation time: 0 hr 19 min 2 sec) 
Heartbeat CPU 0 instructions: 590000001 cycles: 525549405 heartbeat IPC: 0.871648 cumulative IPC: 1.018 (Simulation time: 0 hr 19 min 23 sec) 
Heartbeat CPU 0 instructions: 600000000 cycles: 536695426 heartbeat IPC: 0.897181 cumulative IPC: 1.01526 (Simulation time: 0 hr 19 min 44 sec) 
Finished CPU 0 instructions: 500000001 cycles: 492483083 cumulative IPC: 1.01526 (Simulation time: 0 hr 19 min 44 sec) 

CPU 0 Branch Prediction Accuracy: 99.7422% MPKI: 0.173296
Number of Branches: 33608403 Number of Mispredictions: 86648
Number of LOAD Instructions: 180215231
Number of LOAD Instructions (ROI): 180215231
Number of STORE Instructions: 36067263
Number of STORE Instructions (ROI): 36067263
Total Destination Memory Operands: 38428915
Total Destination Memory Operands (ROI): 38428915
Total Source Memory Operands: 180215231
Total Source Memory Operands (ROI): 180215231
Number of DEPENDED LOADS: 3041568
Number of DEPENDED LOADS (ROI): 3041568
Number of SQ_ADDED: 38428892
Number of SQ_ADDED (ROI): 38428892
Number of LQ_ADDED: 208022377
Number of LQ_ADDED (ROI): 208022377
Number of Instructions read from trace: 600000257

ChampSim completed all CPUs

Region of Interest Statistics

CPU 0 cumulative IPC: 1.01526 instructions: 500000001 cycles: 492483083
ITLB TOTAL     ACCESS:   91930808  HIT:   91930789  MISS:         19
ITLB LOAD      ACCESS:   91930808  HIT:   91930789  MISS:         19
ITLB RFO       ACCESS:          0  HIT:          0  MISS:          0
ITLB PREFETCH  ACCESS:          0  HIT:          0  MISS:          0
ITLB WRITEBACK ACCESS:          0  HIT:          0  MISS:          0
ITLB PREFETCH  REQUESTED:          0  ISSUED:          0  USEFUL:          0  USELESS:          0
ITLB TOTAL MSHR MERGED:         40
ITLB LOAD MSHR MERGED:         40
ITLB RFO MSHR MERGED:          0
ITLB PREFETCH MSHR MERGED:          0
ITLB WRITEBACK MSHR MERGED:          0
ITLB TOTAL ACCESSES:   91930848 HITS:   91930789 MISSES:         59
ITLB LOAD ACCESSES:   91930848 HITS:   91930789 MISSES:         59
ITLB RFO ACCESSES:          0 HITS:          0 MISSES:          0
ITLB PREFETCH ACCESSES:          0 HITS:          0 MISSES:          0
ITLB WRITEBACK ACCESSES:          0 HITS:          0 MISSES:          0
ITLB RQ ACCESS:  500000003
ITLB RQ TO_CACHE:   91930848
ITLB RQ MERGED:  408069155
ITLB RQ FORWARD:          0
ITLB WQ ACCESS:          0
ITLB WQ TO_CACHE:          0
ITLB WQ MERGED:          0
ITLB WQ FORWARD:          0
DTLB TOTAL     ACCESS:  142009134  HIT:  141642673  MISS:     366461
DTLB LOAD      ACCESS:  119377470  HIT:  119063885  MISS:     313585
DTLB RFO       ACCESS:   22631664  HIT:   22578788  MISS:      52876
DTLB PREFETCH  ACCESS:          0  HIT:          0  MISS:          0
DTLB WRITEBACK ACCESS:          0  HIT:          0  MISS:          0
DTLB PREFETCH  REQUESTED:          0  ISSUED:          0  USEFUL:          0  USELESS:          0
DTLB TOTAL MSHR MERGED:     286158
DTLB LOAD MSHR MERGED:     238162
DTLB RFO MSHR MERGED:      47996
DTLB PREFETCH MSHR MERGED:          0
DTLB WRITEBACK MSHR MERGED:          0
DTLB TOTAL ACCESSES:  142295292 HITS:  141642673 MISSES:     652619
DTLB LOAD ACCESSES:  119615632 HITS:  119063885 MISSES:     551747
DTLB RFO ACCESSES:   22679660 HITS:   22578788 MISSES:     100872
DTLB PREFETCH ACCESSES:          0 HITS:          0 MISSES:          0
DTLB WRITEBACK ACCESSES:          0 HITS:          0 MISSES:          0
DTLB RQ ACCESS:  184791409
DTLB RQ TO_CACHE:  142295292
DTLB RQ MERGED:   42496117
DTLB RQ FORWARD:          0
DTLB WQ ACCESS:          0
DTLB WQ TO_CACHE:          0
DTLB WQ MERGED:          0
DTLB WQ FORWARD:          0
L1D TOTAL     ACCESS:  188868950  HIT:  175421452  MISS:   13447498
L1D LOAD      ACCESS:  111782542  HIT:  108433576  MISS:    3348966
L1D RFO       ACCESS:   18410849  HIT:   15629100  MISS:    2781749
L1D PREFETCH  ACCESS:   58675559  HIT:   51358776  MISS:    7316783
L1D WRITEBACK ACCESS:          0  HIT:          0  MISS:          0
L1D PREFETCH  REQUESTED:  116484889  ISSUED:  115128754  USEFUL:    7107239  USELESS:     209544
L1D TOTAL MSHR MERGED:   32907638
L1D LOAD MSHR MERGED:    7495113
L1D RFO MSHR MERGED:    9841824
L1D PREFETCH MSHR MERGED:   15570701
L1D WRITEBACK MSHR MERGED:          0
L1D TOTAL ACCESSES:  221777034 HITS:  175421897 MISSES:   46355137
L1D LOAD ACCESSES:  116484966 HITS:  108433653 MISSES:    8051313
L1D RFO ACCESSES:   28252613 HITS:   15629100 MISSES:   12623513
L1D PREFETCH ACCESSES:   77039455 HITS:   51359144 MISSES:   25680311
L1D WRITEBACK ACCESSES:          0 HITS:          0 MISSES:          0
L1D RQ ACCESS:  156535343
L1D RQ TO_CACHE:  116484892
L1D RQ MERGED:   40050374
L1D RQ FORWARD:          0
L1D WQ ACCESS:   28256066
L1D WQ TO_CACHE:   28252613
L1D WQ MERGED:       3453
L1D WQ FORWARD:        445
L1I TOTAL     ACCESS:  115924039  HIT:  115923091  MISS:        948
L1I LOAD      ACCESS:  115924039  HIT:  115923091  MISS:        948
L1I RFO       ACCESS:          0  HIT:          0  MISS:          0
L1I PREFETCH  ACCESS:          0  HIT:          0  MISS:          0
L1I WRITEBACK ACCESS:          0  HIT:          0  MISS:          0
L1I PREFETCH  REQUESTED:          0  ISSUED:          0  USEFUL:          0  USELESS:          0
L1I TOTAL MSHR MERGED:       1572
L1I LOAD MSHR MERGED:       1572
L1I RFO MSHR MERGED:          0
L1I PREFETCH MSHR MERGED:          0
L1I WRITEBACK MSHR MERGED:          0
L1I TOTAL ACCESSES:  115925611 HITS:  115923091 MISSES:       2520
L1I LOAD ACCESSES:  115925611 HITS:  115923091 MISSES:       2520
L1I RFO ACCESSES:          0 HITS:          0 MISSES:          0
L1I PREFETCH ACCESSES:          0 HITS:          0 MISSES:          0
L1I WRITEBACK ACCESSES:          0 HITS:          0 MISSES:          0
L1I RQ ACCESS:  500000007
L1I RQ TO_CACHE:  115925611
L1I RQ MERGED:  384074396
L1I RQ FORWARD:          0
L1I WQ ACCESS:          0
L1I WQ TO_CACHE:          0
L1I WQ MERGED:          0
L1I WQ FORWARD:          0
L2C TOTAL     ACCESS:   16693166  HIT:    4848820  MISS:   11844346
L2C LOAD      ACCESS:     557123  HIT:      95302  MISS:     461821
L2C RFO       ACCESS:    2781689  HIT:     266707  MISS:    2514982
L2C PREFETCH  ACCESS:   10133725  HIT:    1268460  MISS:    8865265
L2C WRITEBACK ACCESS:    3220629  HIT:    3218351  MISS:       2278
L2C PREFETCH  REQUESTED:      26032  ISSUED:      26032  USEFUL:      92803  USELESS:    8770533
L2C TOTAL MSHR MERGED:        456
L2C LOAD MSHR MERGED:          5
L2C RFO MSHR MERGED:          0
L2C PREFETCH MSHR MERGED:        451
L2C WRITEBACK MSHR MERGED:          0
L2C TOTAL ACCESSES:   16693744 HITS:    4848865 MISSES:   11844879
L2C LOAD ACCESSES:     557148 HITS:      95327 MISSES:     461821
L2C RFO ACCESSES:    2781689 HITS:     266707 MISSES:    2514982
L2C PREFETCH ACCESSES:   10134278 HITS:    1268480 MISSES:    8865798
L2C WRITEBACK ACCESSES:    3220629 HITS:    3218351 MISSES:       2278
L2C RQ ACCESS:    3338837
L2C RQ TO_CACHE:    3338812
L2C RQ MERGED:          0
L2C RQ FORWARD:          0
L2C WQ ACCESS:    3220629
L2C WQ TO_CACHE:    3220629
L2C WQ MERGED:          0
L2C WQ FORWARD:         45
LLC TOTAL     ACCESS:   14742352  HIT:    6776493  MISS:    7965859
LLC LOAD      ACCESS:     461814  HIT:     159014  MISS:     302800
LLC RFO       ACCESS:    2514959  HIT:    1684113  MISS:     830846
LLC PREFETCH  ACCESS:    8865290  HIT:    2916095  MISS:    5949195
LLC WRITEBACK ACCESS:    2900289  HIT:    2017271  MISS:     883018
LLC PREFETCH  REQUESTED:          0  ISSUED:          0  USEFUL:       3717  USELESS:    5944384
LLC TOTAL MSHR MERGED:          6
LLC LOAD MSHR MERGED:          0
LLC RFO MSHR MERGED:          0
LLC PREFETCH MSHR MERGED:          6
LLC WRITEBACK MSHR MERGED:          0
LLC TOTAL ACCESSES:   14742431 HITS:    6776566 MISSES:    7965865
LLC LOAD ACCESSES:     461816 HITS:     159016 MISSES:     302800
LLC RFO ACCESSES:    2514982 HITS:    1684136 MISSES:     830846
LLC PREFETCH ACCESSES:    8865344 HITS:    2916143 MISSES:    5949201
LLC WRITEBACK ACCESSES:    2900289 HITS:    2017271 MISSES:     883018
LLC 0 RQ ACCESS:    2976798
LLC 0 RQ TO_CACHE:    2976773
LLC 0 RQ MERGED:          0
LLC 0 RQ FORWARD:          0
LLC WQ ACCESS:    2900289
LLC WQ TO_CACHE:    2900289
LLC WQ MERGED:          0
LLC WQ FORWARD:         73
Major fault: 0 Minor fault: 57518
CPU 0 L1D next line prefetcher final stats
CPU 0 L2C PC-based stride prefetcher final stats
All Misses: 8644542
All Hits: 7593991
SD Algo Stats - Switches: 0 SRR-Repls: 313526 BRR-Repls: 0

DRAM Statistics
 CHANNEL 0
 RQ ROW_BUFFER_HIT:    3806033  ROW_BUFFER_MISS:    3272026
 DBUS_CONGESTED:    3389725
 WQ ROW_BUFFER_HIT:     129466  ROW_BUFFER_MISS:     976882  FULL:          0

 AVG_CONGESTED_CYCLE: 12
LOADS RETIRED: 157818985
INSTR RETIRED: 500000000
