
*** ChampSim Multicore Out-of-Order Simulator ***

Warmup Instructions: 100000000
Simulation Instructions: 500000000
Number of CPUs: 1
LLC sets: 2048
LLC ways: 16
Clean RRIP Policies: 2021020220210202 Dirty RRIP Policies: 21222200212222 PSEL Width: 10 Track Set: 4294967295 PSEL Mask: 1 Demote Mask: 2440104124401041DS Algo: 0Window size: 0
Off-chip DRAM Size: 4096 MB Channels: 1 Width: 64-bit Data Rate: 1600 MT/s

CPU 0 runs /mnt/beegfs/iconst01/spec2017/Gcc.trace.gz
NOT SORTED
TRACE STRING: /mnt/beegfs/iconst01/spec2017/Gcc.trace.gz
SORTED
TRACE STRING: /mnt/beegfs/iconst01/spec2017/Gcc.trace.gz
INITIAL
TRACE STRING: /mnt/beegfs/iconst01/spec2017/Gcc.trace.gz

champsim_seed used: 269

CPU 0 L1D next line prefetcher
CPU 0 L2C IP-based stride prefetcher
Initialize DRRIP state
Assign rand_sets[0]: 454  LLC: 2048
rand_sets[0]: 454
Assign rand_sets[1]: 1662  LLC: 2048
rand_sets[1]: 1662
Assign rand_sets[2]: 1921  LLC: 2048
rand_sets[2]: 1921
Assign rand_sets[3]: 1131  LLC: 2048
rand_sets[3]: 1131
Assign rand_sets[4]: 331  LLC: 2048
rand_sets[4]: 331
Assign rand_sets[5]: 1531  LLC: 2048
rand_sets[5]: 1531
Assign rand_sets[6]: 482  LLC: 2048
rand_sets[6]: 482
Assign rand_sets[7]: 1275  LLC: 2048
rand_sets[7]: 1275
Assign rand_sets[8]: 1876  LLC: 2048
rand_sets[8]: 1876
Assign rand_sets[9]: 2038  LLC: 2048
rand_sets[9]: 2038
Assign rand_sets[10]: 701  LLC: 2048
rand_sets[10]: 701
Assign rand_sets[11]: 479  LLC: 2048
rand_sets[11]: 479
Assign rand_sets[12]: 892  LLC: 2048
rand_sets[12]: 892
Assign rand_sets[13]: 1820  LLC: 2048
rand_sets[13]: 1820
Assign rand_sets[14]: 1505  LLC: 2048
rand_sets[14]: 1505
Assign rand_sets[15]: 1159  LLC: 2048
rand_sets[15]: 1159
Assign rand_sets[16]: 513  LLC: 2048
rand_sets[16]: 513
Assign rand_sets[17]: 703  LLC: 2048
rand_sets[17]: 703
Assign rand_sets[18]: 561  LLC: 2048
rand_sets[18]: 561
Assign rand_sets[19]: 990  LLC: 2048
rand_sets[19]: 990
Assign rand_sets[20]: 342  LLC: 2048
rand_sets[20]: 342
Assign rand_sets[21]: 882  LLC: 2048
rand_sets[21]: 882
Assign rand_sets[22]: 15  LLC: 2048
rand_sets[22]: 15
Assign rand_sets[23]: 71  LLC: 2048
rand_sets[23]: 71
Assign rand_sets[24]: 1127  LLC: 2048
rand_sets[24]: 1127
Assign rand_sets[25]: 1382  LLC: 2048
rand_sets[25]: 1382
Assign rand_sets[26]: 647  LLC: 2048
rand_sets[26]: 647
Assign rand_sets[27]: 857  LLC: 2048
rand_sets[27]: 857
Assign rand_sets[28]: 1450  LLC: 2048
rand_sets[28]: 1450
Assign rand_sets[29]: 1160  LLC: 2048
rand_sets[29]: 1160
Assign rand_sets[30]: 1852  LLC: 2048
rand_sets[30]: 1852
Assign rand_sets[31]: 1881  LLC: 2048
rand_sets[31]: 1881
Assign rand_sets[32]: 1770  LLC: 2048
rand_sets[32]: 1770
Assign rand_sets[33]: 1622  LLC: 2048
rand_sets[33]: 1622
Assign rand_sets[34]: 275  LLC: 2048
rand_sets[34]: 275
Assign rand_sets[35]: 635  LLC: 2048
rand_sets[35]: 635
Assign rand_sets[36]: 466  LLC: 2048
rand_sets[36]: 466
Assign rand_sets[37]: 1413  LLC: 2048
rand_sets[37]: 1413
Assign rand_sets[38]: 417  LLC: 2048
rand_sets[38]: 417
Assign rand_sets[39]: 472  LLC: 2048
rand_sets[39]: 472
Assign rand_sets[40]: 1340  LLC: 2048
rand_sets[40]: 1340
Assign rand_sets[41]: 852  LLC: 2048
rand_sets[41]: 852
Assign rand_sets[42]: 1365  LLC: 2048
rand_sets[42]: 1365
Assign rand_sets[43]: 47  LLC: 2048
rand_sets[43]: 47
Assign rand_sets[44]: 823  LLC: 2048
rand_sets[44]: 823
Assign rand_sets[45]: 686  LLC: 2048
rand_sets[45]: 686
Assign rand_sets[46]: 1637  LLC: 2048
rand_sets[46]: 1637
Assign rand_sets[47]: 1115  LLC: 2048
rand_sets[47]: 1115
Assign rand_sets[48]: 986  LLC: 2048
rand_sets[48]: 986
Assign rand_sets[49]: 258  LLC: 2048
rand_sets[49]: 258
Assign rand_sets[50]: 633  LLC: 2048
rand_sets[50]: 633
Assign rand_sets[51]: 920  LLC: 2048
rand_sets[51]: 920
Assign rand_sets[52]: 204  LLC: 2048
rand_sets[52]: 204
Assign rand_sets[53]: 227  LLC: 2048
rand_sets[53]: 227
Assign rand_sets[54]: 1818  LLC: 2048
rand_sets[54]: 1818
Assign rand_sets[55]: 886  LLC: 2048
rand_sets[55]: 886
Assign rand_sets[56]: 1422  LLC: 2048
rand_sets[56]: 1422
Assign rand_sets[57]: 607  LLC: 2048
rand_sets[57]: 607
Assign rand_sets[58]: 217  LLC: 2048
rand_sets[58]: 217
Assign rand_sets[59]: 1945  LLC: 2048
rand_sets[59]: 1945
Assign rand_sets[60]: 143  LLC: 2048
rand_sets[60]: 143
Assign rand_sets[61]: 1311  LLC: 2048
rand_sets[61]: 1311
Assign rand_sets[62]: 319  LLC: 2048
rand_sets[62]: 319
Assign rand_sets[63]: 1846  LLC: 2048
rand_sets[63]: 1846
 CLEAN-RRIP-POLICY-1: 2-0-2-1-0-2-0-2- CLEAN-RRIP-POLICY-2: 2-0-2-1-0-2-0-2-
 DIRTY-RRIP-POLICY-1: 0-0-2-1-2-2-2-2- DIRTY-RRIP-POLICY-2: 0-0-2-1-2-2-2-2-
 PSEL width: 10
Heartbeat CPU 0 instructions: 10000001 cycles: 7315913 heartbeat IPC: 1.36688 cumulative IPC: 1.36688 (Simulation time: 0 hr 0 min 15 sec) 
Heartbeat CPU 0 instructions: 20000000 cycles: 14308000 heartbeat IPC: 1.43019 cumulative IPC: 1.39782 (Simulation time: 0 hr 0 min 30 sec) 
Heartbeat CPU 0 instructions: 30000001 cycles: 21021120 heartbeat IPC: 1.48962 cumulative IPC: 1.42714 (Simulation time: 0 hr 0 min 46 sec) 
Heartbeat CPU 0 instructions: 40000000 cycles: 27482037 heartbeat IPC: 1.54777 cumulative IPC: 1.4555 (Simulation time: 0 hr 1 min 3 sec) 
Heartbeat CPU 0 instructions: 50000001 cycles: 33583904 heartbeat IPC: 1.63884 cumulative IPC: 1.48881 (Simulation time: 0 hr 1 min 19 sec) 
Heartbeat CPU 0 instructions: 60000000 cycles: 40065173 heartbeat IPC: 1.54291 cumulative IPC: 1.49756 (Simulation time: 0 hr 1 min 35 sec) 
Heartbeat CPU 0 instructions: 70000000 cycles: 47103798 heartbeat IPC: 1.42073 cumulative IPC: 1.48608 (Simulation time: 0 hr 1 min 50 sec) 
Heartbeat CPU 0 instructions: 80000000 cycles: 54193996 heartbeat IPC: 1.4104 cumulative IPC: 1.47618 (Simulation time: 0 hr 2 min 5 sec) 
Heartbeat CPU 0 instructions: 90000003 cycles: 61198924 heartbeat IPC: 1.42757 cumulative IPC: 1.47061 (Simulation time: 0 hr 2 min 20 sec) 
Heartbeat CPU 0 instructions: 100000000 cycles: 68366611 heartbeat IPC: 1.39515 cumulative IPC: 1.4627 (Simulation time: 0 hr 2 min 35 sec) 

Warmup complete CPU 0 instructions: 100000004 cycles: 68366612 (Simulation time: 0 hr 2 min 35 sec) 

Heartbeat CPU 0 instructions: 110000003 cycles: 96048079 heartbeat IPC: 0.361253 cumulative IPC: 0.361252 (Simulation time: 0 hr 3 min 5 sec) 
Heartbeat CPU 0 instructions: 120000000 cycles: 123527255 heartbeat IPC: 0.363912 cumulative IPC: 0.362577 (Simulation time: 0 hr 3 min 35 sec) 
Heartbeat CPU 0 instructions: 130000000 cycles: 148537353 heartbeat IPC: 0.399839 cumulative IPC: 0.374201 (Simulation time: 0 hr 4 min 4 sec) 
Heartbeat CPU 0 instructions: 140000000 cycles: 178097535 heartbeat IPC: 0.338293 cumulative IPC: 0.364528 (Simulation time: 0 hr 4 min 33 sec) 
Heartbeat CPU 0 instructions: 150000000 cycles: 208027189 heartbeat IPC: 0.334117 cumulative IPC: 0.358011 (Simulation time: 0 hr 5 min 3 sec) 
Heartbeat CPU 0 instructions: 160000000 cycles: 235484879 heartbeat IPC: 0.364197 cumulative IPC: 0.359027 (Simulation time: 0 hr 5 min 32 sec) 
Heartbeat CPU 0 instructions: 170000001 cycles: 263521182 heartbeat IPC: 0.35668 cumulative IPC: 0.35869 (Simulation time: 0 hr 6 min 2 sec) 
Heartbeat CPU 0 instructions: 180000000 cycles: 291980432 heartbeat IPC: 0.35138 cumulative IPC: 0.35776 (Simulation time: 0 hr 6 min 33 sec) 
Heartbeat CPU 0 instructions: 190000002 cycles: 320045857 heartbeat IPC: 0.35631 cumulative IPC: 0.357598 (Simulation time: 0 hr 7 min 2 sec) 
Heartbeat CPU 0 instructions: 200000000 cycles: 348435584 heartbeat IPC: 0.35224 cumulative IPC: 0.357055 (Simulation time: 0 hr 7 min 32 sec) 
Heartbeat CPU 0 instructions: 210000002 cycles: 376339343 heartbeat IPC: 0.358375 cumulative IPC: 0.357174 (Simulation time: 0 hr 8 min 2 sec) 
Heartbeat CPU 0 instructions: 220000000 cycles: 405597557 heartbeat IPC: 0.341784 cumulative IPC: 0.355839 (Simulation time: 0 hr 8 min 31 sec) 
Heartbeat CPU 0 instructions: 230000000 cycles: 433193403 heartbeat IPC: 0.362373 cumulative IPC: 0.356333 (Simulation time: 0 hr 9 min 0 sec) 
Heartbeat CPU 0 instructions: 240000000 cycles: 459226716 heartbeat IPC: 0.384123 cumulative IPC: 0.358184 (Simulation time: 0 hr 9 min 28 sec) 
Heartbeat CPU 0 instructions: 250000000 cycles: 489374604 heartbeat IPC: 0.331698 cumulative IPC: 0.356288 (Simulation time: 0 hr 9 min 59 sec) 
Heartbeat CPU 0 instructions: 260000000 cycles: 516515491 heartbeat IPC: 0.368448 cumulative IPC: 0.357024 (Simulation time: 0 hr 10 min 28 sec) 
Heartbeat CPU 0 instructions: 270000003 cycles: 544950502 heartbeat IPC: 0.351679 cumulative IPC: 0.356705 (Simulation time: 0 hr 10 min 59 sec) 
Heartbeat CPU 0 instructions: 280000000 cycles: 573121398 heartbeat IPC: 0.354976 cumulative IPC: 0.356609 (Simulation time: 0 hr 11 min 29 sec) 
Heartbeat CPU 0 instructions: 290000000 cycles: 602059565 heartbeat IPC: 0.345564 cumulative IPC: 0.35601 (Simulation time: 0 hr 12 min 0 sec) 
Heartbeat CPU 0 instructions: 300000000 cycles: 632101019 heartbeat IPC: 0.332873 cumulative IPC: 0.354777 (Simulation time: 0 hr 12 min 29 sec) 
Heartbeat CPU 0 instructions: 310000001 cycles: 661550333 heartbeat IPC: 0.339567 cumulative IPC: 0.354022 (Simulation time: 0 hr 12 min 59 sec) 
Heartbeat CPU 0 instructions: 320000000 cycles: 689842338 heartbeat IPC: 0.353457 cumulative IPC: 0.353996 (Simulation time: 0 hr 13 min 28 sec) 
Heartbeat CPU 0 instructions: 330000000 cycles: 718535535 heartbeat IPC: 0.348515 cumulative IPC: 0.353754 (Simulation time: 0 hr 13 min 57 sec) 
Heartbeat CPU 0 instructions: 340000000 cycles: 747852531 heartbeat IPC: 0.341099 cumulative IPC: 0.353208 (Simulation time: 0 hr 14 min 27 sec) 
Heartbeat CPU 0 instructions: 350000003 cycles: 774971860 heartbeat IPC: 0.368741 cumulative IPC: 0.353804 (Simulation time: 0 hr 14 min 56 sec) 
