
*** ChampSim Multicore Out-of-Order Simulator ***

Warmup Instructions: 100000000
Simulation Instructions: 500000000
Number of CPUs: 1
LLC sets: 2048
LLC ways: 16
Clean RRIP Policies: 2213230222132302 Dirty RRIP Policies: 1203130212031302 PSEL Width: 10 Track Set: 4294967295 PSEL Mask: 1 Demote Mask: 1240140012401400DS Algo: 0Window size: 0
Off-chip DRAM Size: 4096 MB Channels: 1 Width: 64-bit Data Rate: 1600 MT/s

CPU 0 runs /mnt/beegfs/iconst01/spec2017/Lbm.trace.gz
NOT SORTED
TRACE STRING: /mnt/beegfs/iconst01/spec2017/Lbm.trace.gz
SORTED
TRACE STRING: /mnt/beegfs/iconst01/spec2017/Lbm.trace.gz
INITIAL
TRACE STRING: /mnt/beegfs/iconst01/spec2017/Lbm.trace.gz

champsim_seed used: 283

CPU 0 L1D next line prefetcher
CPU 0 L2C IP-based stride prefetcher
Initialize DRRIP state
Assign rand_sets[0]: 454  LLC: 2048
rand_sets[0]: 454
Assign rand_sets[1]: 1662  LLC: 2048
rand_sets[1]: 1662
Assign rand_sets[2]: 1921  LLC: 2048
rand_sets[2]: 1921
Assign rand_sets[3]: 1131  LLC: 2048
rand_sets[3]: 1131
Assign rand_sets[4]: 331  LLC: 2048
rand_sets[4]: 331
Assign rand_sets[5]: 1531  LLC: 2048
rand_sets[5]: 1531
Assign rand_sets[6]: 482  LLC: 2048
rand_sets[6]: 482
Assign rand_sets[7]: 1275  LLC: 2048
rand_sets[7]: 1275
Assign rand_sets[8]: 1876  LLC: 2048
rand_sets[8]: 1876
Assign rand_sets[9]: 2038  LLC: 2048
rand_sets[9]: 2038
Assign rand_sets[10]: 701  LLC: 2048
rand_sets[10]: 701
Assign rand_sets[11]: 479  LLC: 2048
rand_sets[11]: 479
Assign rand_sets[12]: 892  LLC: 2048
rand_sets[12]: 892
Assign rand_sets[13]: 1820  LLC: 2048
rand_sets[13]: 1820
Assign rand_sets[14]: 1505  LLC: 2048
rand_sets[14]: 1505
Assign rand_sets[15]: 1159  LLC: 2048
rand_sets[15]: 1159
Assign rand_sets[16]: 513  LLC: 2048
rand_sets[16]: 513
Assign rand_sets[17]: 703  LLC: 2048
rand_sets[17]: 703
Assign rand_sets[18]: 561  LLC: 2048
rand_sets[18]: 561
Assign rand_sets[19]: 990  LLC: 2048
rand_sets[19]: 990
Assign rand_sets[20]: 342  LLC: 2048
rand_sets[20]: 342
Assign rand_sets[21]: 882  LLC: 2048
rand_sets[21]: 882
Assign rand_sets[22]: 15  LLC: 2048
rand_sets[22]: 15
Assign rand_sets[23]: 71  LLC: 2048
rand_sets[23]: 71
Assign rand_sets[24]: 1127  LLC: 2048
rand_sets[24]: 1127
Assign rand_sets[25]: 1382  LLC: 2048
rand_sets[25]: 1382
Assign rand_sets[26]: 647  LLC: 2048
rand_sets[26]: 647
Assign rand_sets[27]: 857  LLC: 2048
rand_sets[27]: 857
Assign rand_sets[28]: 1450  LLC: 2048
rand_sets[28]: 1450
Assign rand_sets[29]: 1160  LLC: 2048
rand_sets[29]: 1160
Assign rand_sets[30]: 1852  LLC: 2048
rand_sets[30]: 1852
Assign rand_sets[31]: 1881  LLC: 2048
rand_sets[31]: 1881
Assign rand_sets[32]: 1770  LLC: 2048
rand_sets[32]: 1770
Assign rand_sets[33]: 1622  LLC: 2048
rand_sets[33]: 1622
Assign rand_sets[34]: 275  LLC: 2048
rand_sets[34]: 275
Assign rand_sets[35]: 635  LLC: 2048
rand_sets[35]: 635
Assign rand_sets[36]: 466  LLC: 2048
rand_sets[36]: 466
Assign rand_sets[37]: 1413  LLC: 2048
rand_sets[37]: 1413
Assign rand_sets[38]: 417  LLC: 2048
rand_sets[38]: 417
Assign rand_sets[39]: 472  LLC: 2048
rand_sets[39]: 472
Assign rand_sets[40]: 1340  LLC: 2048
rand_sets[40]: 1340
Assign rand_sets[41]: 852  LLC: 2048
rand_sets[41]: 852
Assign rand_sets[42]: 1365  LLC: 2048
rand_sets[42]: 1365
Assign rand_sets[43]: 47  LLC: 2048
rand_sets[43]: 47
Assign rand_sets[44]: 823  LLC: 2048
rand_sets[44]: 823
Assign rand_sets[45]: 686  LLC: 2048
rand_sets[45]: 686
Assign rand_sets[46]: 1637  LLC: 2048
rand_sets[46]: 1637
Assign rand_sets[47]: 1115  LLC: 2048
rand_sets[47]: 1115
Assign rand_sets[48]: 986  LLC: 2048
rand_sets[48]: 986
Assign rand_sets[49]: 258  LLC: 2048
rand_sets[49]: 258
Assign rand_sets[50]: 633  LLC: 2048
rand_sets[50]: 633
Assign rand_sets[51]: 920  LLC: 2048
rand_sets[51]: 920
Assign rand_sets[52]: 204  LLC: 2048
rand_sets[52]: 204
Assign rand_sets[53]: 227  LLC: 2048
rand_sets[53]: 227
Assign rand_sets[54]: 1818  LLC: 2048
rand_sets[54]: 1818
Assign rand_sets[55]: 886  LLC: 2048
rand_sets[55]: 886
Assign rand_sets[56]: 1422  LLC: 2048
rand_sets[56]: 1422
Assign rand_sets[57]: 607  LLC: 2048
rand_sets[57]: 607
Assign rand_sets[58]: 217  LLC: 2048
rand_sets[58]: 217
Assign rand_sets[59]: 1945  LLC: 2048
rand_sets[59]: 1945
Assign rand_sets[60]: 143  LLC: 2048
rand_sets[60]: 143
Assign rand_sets[61]: 1311  LLC: 2048
rand_sets[61]: 1311
Assign rand_sets[62]: 319  LLC: 2048
rand_sets[62]: 319
Assign rand_sets[63]: 1846  LLC: 2048
rand_sets[63]: 1846
 CLEAN-RRIP-POLICY-1: 2-2-1-3-2-3-0-2- CLEAN-RRIP-POLICY-2: 2-2-1-3-2-3-0-2-
 DIRTY-RRIP-POLICY-1: 1-2-0-3-1-3-0-2- DIRTY-RRIP-POLICY-2: 1-2-0-3-1-3-0-2-
 PSEL width: 10
Heartbeat CPU 0 instructions: 10000000 cycles: 4321554 heartbeat IPC: 2.31398 cumulative IPC: 2.31398 (Simulation time: 0 hr 0 min 17 sec) 
Heartbeat CPU 0 instructions: 20000000 cycles: 8643583 heartbeat IPC: 2.31373 cumulative IPC: 2.31386 (Simulation time: 0 hr 0 min 34 sec) 
Heartbeat CPU 0 instructions: 30000000 cycles: 12965398 heartbeat IPC: 2.31384 cumulative IPC: 2.31385 (Simulation time: 0 hr 0 min 52 sec) 
Heartbeat CPU 0 instructions: 40000000 cycles: 17291296 heartbeat IPC: 2.31166 cumulative IPC: 2.3133 (Simulation time: 0 hr 1 min 9 sec) 
Heartbeat CPU 0 instructions: 50000000 cycles: 21613172 heartbeat IPC: 2.31381 cumulative IPC: 2.3134 (Simulation time: 0 hr 1 min 27 sec) 
Heartbeat CPU 0 instructions: 60000000 cycles: 25935083 heartbeat IPC: 2.31379 cumulative IPC: 2.31347 (Simulation time: 0 hr 1 min 44 sec) 
Heartbeat CPU 0 instructions: 70000000 cycles: 30256474 heartbeat IPC: 2.31407 cumulative IPC: 2.31355 (Simulation time: 0 hr 2 min 1 sec) 
Heartbeat CPU 0 instructions: 80000000 cycles: 34582670 heartbeat IPC: 2.3115 cumulative IPC: 2.3133 (Simulation time: 0 hr 2 min 19 sec) 
Heartbeat CPU 0 instructions: 90000003 cycles: 38904704 heartbeat IPC: 2.31373 cumulative IPC: 2.31334 (Simulation time: 0 hr 2 min 37 sec) 
Heartbeat CPU 0 instructions: 100000000 cycles: 43226160 heartbeat IPC: 2.31403 cumulative IPC: 2.31341 (Simulation time: 0 hr 2 min 54 sec) 

Warmup complete CPU 0 instructions: 100000001 cycles: 43226161 (Simulation time: 0 hr 2 min 54 sec) 

Heartbeat CPU 0 instructions: 110000000 cycles: 57362453 heartbeat IPC: 0.707399 cumulative IPC: 0.707399 (Simulation time: 0 hr 3 min 19 sec) 
Heartbeat CPU 0 instructions: 120000000 cycles: 71538564 heartbeat IPC: 0.705412 cumulative IPC: 0.706404 (Simulation time: 0 hr 3 min 44 sec) 
Heartbeat CPU 0 instructions: 130000000 cycles: 85687512 heartbeat IPC: 0.706766 cumulative IPC: 0.706525 (Simulation time: 0 hr 4 min 10 sec) 
Heartbeat CPU 0 instructions: 140000000 cycles: 99769281 heartbeat IPC: 0.710138 cumulative IPC: 0.707425 (Simulation time: 0 hr 4 min 35 sec) 
Heartbeat CPU 0 instructions: 150000003 cycles: 113371454 heartbeat IPC: 0.735177 cumulative IPC: 0.712806 (Simulation time: 0 hr 5 min 0 sec) 
Heartbeat CPU 0 instructions: 160000000 cycles: 127142461 heartbeat IPC: 0.726163 cumulative IPC: 0.714998 (Simulation time: 0 hr 5 min 25 sec) 
Heartbeat CPU 0 instructions: 170000002 cycles: 141486470 heartbeat IPC: 0.697155 cumulative IPC: 0.712393 (Simulation time: 0 hr 5 min 50 sec) 
Heartbeat CPU 0 instructions: 180000000 cycles: 155280822 heartbeat IPC: 0.724934 cumulative IPC: 0.713937 (Simulation time: 0 hr 6 min 15 sec) 
Heartbeat CPU 0 instructions: 190000003 cycles: 171901604 heartbeat IPC: 0.601657 cumulative IPC: 0.699434 (Simulation time: 0 hr 6 min 43 sec) 
Heartbeat CPU 0 instructions: 200000000 cycles: 192203656 heartbeat IPC: 0.492561 cumulative IPC: 0.671242 (Simulation time: 0 hr 7 min 14 sec) 
Heartbeat CPU 0 instructions: 210000001 cycles: 206244478 heartbeat IPC: 0.712209 cumulative IPC: 0.674771 (Simulation time: 0 hr 7 min 39 sec) 
Heartbeat CPU 0 instructions: 220000000 cycles: 219988130 heartbeat IPC: 0.727609 cumulative IPC: 0.678879 (Simulation time: 0 hr 8 min 4 sec) 
Heartbeat CPU 0 instructions: 230000001 cycles: 233849788 heartbeat IPC: 0.721415 cumulative IPC: 0.681972 (Simulation time: 0 hr 8 min 28 sec) 
Heartbeat CPU 0 instructions: 240000000 cycles: 248066128 heartbeat IPC: 0.703416 cumulative IPC: 0.68346 (Simulation time: 0 hr 8 min 53 sec) 
Heartbeat CPU 0 instructions: 250000000 cycles: 262502177 heartbeat IPC: 0.69271 cumulative IPC: 0.684069 (Simulation time: 0 hr 9 min 19 sec) 
Heartbeat CPU 0 instructions: 260000000 cycles: 277187064 heartbeat IPC: 0.680972 cumulative IPC: 0.683875 (Simulation time: 0 hr 9 min 44 sec) 
Heartbeat CPU 0 instructions: 270000002 cycles: 291803468 heartbeat IPC: 0.684163 cumulative IPC: 0.683892 (Simulation time: 0 hr 10 min 10 sec) 
Heartbeat CPU 0 instructions: 280000000 cycles: 306730265 heartbeat IPC: 0.669936 cumulative IPC: 0.683101 (Simulation time: 0 hr 10 min 35 sec) 
Heartbeat CPU 0 instructions: 290000003 cycles: 322250379 heartbeat IPC: 0.644325 cumulative IPC: 0.680945 (Simulation time: 0 hr 11 min 1 sec) 
Heartbeat CPU 0 instructions: 300000000 cycles: 337264335 heartbeat IPC: 0.666047 cumulative IPC: 0.680184 (Simulation time: 0 hr 11 min 27 sec) 
Heartbeat CPU 0 instructions: 310000000 cycles: 352959008 heartbeat IPC: 0.637159 cumulative IPC: 0.678004 (Simulation time: 0 hr 11 min 53 sec) 
Heartbeat CPU 0 instructions: 320000000 cycles: 368556385 heartbeat IPC: 0.641133 cumulative IPC: 0.676236 (Simulation time: 0 hr 12 min 19 sec) 
Heartbeat CPU 0 instructions: 330000002 cycles: 383448294 heartbeat IPC: 0.671506 cumulative IPC: 0.676029 (Simulation time: 0 hr 12 min 44 sec) 
Heartbeat CPU 0 instructions: 340000000 cycles: 399423401 heartbeat IPC: 0.625974 cumulative IPC: 0.673784 (Simulation time: 0 hr 13 min 10 sec) 
Heartbeat CPU 0 instructions: 350000001 cycles: 413810511 heartbeat IPC: 0.695067 cumulative IPC: 0.67461 (Simulation time: 0 hr 13 min 35 sec) 
Heartbeat CPU 0 instructions: 360000000 cycles: 429118261 heartbeat IPC: 0.653264 cumulative IPC: 0.673763 (Simulation time: 0 hr 14 min 0 sec) 
Heartbeat CPU 0 instructions: 370000000 cycles: 443629620 heartbeat IPC: 0.689115 cumulative IPC: 0.67432 (Simulation time: 0 hr 14 min 25 sec) 
Heartbeat CPU 0 instructions: 380000000 cycles: 458558843 heartbeat IPC: 0.669827 cumulative IPC: 0.674158 (Simulation time: 0 hr 14 min 50 sec) 
Heartbeat CPU 0 instructions: 390000000 cycles: 472780537 heartbeat IPC: 0.703151 cumulative IPC: 0.675118 (Simulation time: 0 hr 15 min 15 sec) 
Heartbeat CPU 0 instructions: 400000000 cycles: 486982729 heartbeat IPC: 0.704117 cumulative IPC: 0.676046 (Simulation time: 0 hr 15 min 40 sec) 
Heartbeat CPU 0 instructions: 410000000 cycles: 500824312 heartbeat IPC: 0.722461 cumulative IPC: 0.67745 (Simulation time: 0 hr 16 min 4 sec) 
Heartbeat CPU 0 instructions: 420000000 cycles: 514814121 heartbeat IPC: 0.714806 cumulative IPC: 0.678558 (Simulation time: 0 hr 16 min 28 sec) 
Heartbeat CPU 0 instructions: 430000002 cycles: 528278734 heartbeat IPC: 0.742688 cumulative IPC: 0.680339 (Simulation time: 0 hr 16 min 52 sec) 
Heartbeat CPU 0 instructions: 440000000 cycles: 541810960 heartbeat IPC: 0.738977 cumulative IPC: 0.68193 (Simulation time: 0 hr 17 min 16 sec) 
Heartbeat CPU 0 instructions: 450000000 cycles: 555700927 heartbeat IPC: 0.719944 cumulative IPC: 0.68296 (Simulation time: 0 hr 17 min 40 sec) 
Heartbeat CPU 0 instructions: 460000000 cycles: 570305474 heartbeat IPC: 0.684718 cumulative IPC: 0.683009 (Simulation time: 0 hr 18 min 5 sec) 
Heartbeat CPU 0 instructions: 470000000 cycles: 584247022 heartbeat IPC: 0.71728 cumulative IPC: 0.683892 (Simulation time: 0 hr 18 min 29 sec) 
Heartbeat CPU 0 instructions: 480000000 cycles: 598201111 heartbeat IPC: 0.716636 cumulative IPC: 0.684716 (Simulation time: 0 hr 18 min 53 sec) 
Heartbeat CPU 0 instructions: 490000001 cycles: 612372197 heartbeat IPC: 0.705662 cumulative IPC: 0.685237 (Simulation time: 0 hr 19 min 18 sec) 
Heartbeat CPU 0 instructions: 500000000 cycles: 626423721 heartbeat IPC: 0.711667 cumulative IPC: 0.685874 (Simulation time: 0 hr 19 min 42 sec) 
Heartbeat CPU 0 instructions: 510000002 cycles: 640271559 heartbeat IPC: 0.722135 cumulative IPC: 0.686715 (Simulation time: 0 hr 20 min 6 sec) 
Heartbeat CPU 0 instructions: 520000000 cycles: 654062584 heartbeat IPC: 0.725109 cumulative IPC: 0.687582 (Simulation time: 0 hr 20 min 31 sec) 
Heartbeat CPU 0 instructions: 530000001 cycles: 667935713 heartbeat IPC: 0.720818 cumulative IPC: 0.68832 (Simulation time: 0 hr 20 min 55 sec) 
Heartbeat CPU 0 instructions: 540000000 cycles: 682161008 heartbeat IPC: 0.702973 cumulative IPC: 0.688646 (Simulation time: 0 hr 21 min 19 sec) 
Heartbeat CPU 0 instructions: 550000003 cycles: 695860696 heartbeat IPC: 0.729944 cumulative IPC: 0.689513 (Simulation time: 0 hr 21 min 43 sec) 
Heartbeat CPU 0 instructions: 560000000 cycles: 710271140 heartbeat IPC: 0.693941 cumulative IPC: 0.689609 (Simulation time: 0 hr 22 min 8 sec) 
Heartbeat CPU 0 instructions: 570000001 cycles: 724185639 heartbeat IPC: 0.718675 cumulative IPC: 0.690203 (Simulation time: 0 hr 22 min 32 sec) 
Heartbeat CPU 0 instructions: 580000000 cycles: 737720201 heartbeat IPC: 0.738849 cumulative IPC: 0.691151 (Simulation time: 0 hr 22 min 56 sec) 
Heartbeat CPU 0 instructions: 590000003 cycles: 750838256 heartbeat IPC: 0.762308 cumulative IPC: 0.69247 (Simulation time: 0 hr 23 min 20 sec) 
Heartbeat CPU 0 instructions: 600000000 cycles: 764675989 heartbeat IPC: 0.722661 cumulative IPC: 0.693049 (Simulation time: 0 hr 23 min 44 sec) 
Finished CPU 0 instructions: 500000000 cycles: 721449836 cumulative IPC: 0.693049 (Simulation time: 0 hr 23 min 44 sec) 

CPU 0 Branch Prediction Accuracy: 99.5915% MPKI: 0.037126
Number of Branches: 4544106 Number of Mispredictions: 18563
Number of LOAD Instructions: 149787067
Number of LOAD Instructions (ROI): 149787067
Number of STORE Instructions: 77239062
Number of STORE Instructions (ROI): 77239062
Total Destination Memory Operands: 77239062
Total Destination Memory Operands (ROI): 77239062
Total Source Memory Operands: 149787067
Total Source Memory Operands (ROI): 149787067
Number of DEPENDED LOADS: 19245451
Number of DEPENDED LOADS (ROI): 19245451
Number of SQ_ADDED: 77239036
Number of SQ_ADDED (ROI): 77239036
Number of LQ_ADDED: 149787020
Number of LQ_ADDED (ROI): 149787020
Number of Instructions read from trace: 600000256

ChampSim completed all CPUs

Region of Interest Statistics

CPU 0 cumulative IPC: 0.693049 instructions: 500000000 cycles: 721449836
ITLB TOTAL     ACCESS:   86451895  HIT:   86451894  MISS:          1
ITLB LOAD      ACCESS:   86451895  HIT:   86451894  MISS:          1
ITLB RFO       ACCESS:          0  HIT:          0  MISS:          0
ITLB PREFETCH  ACCESS:          0  HIT:          0  MISS:          0
ITLB WRITEBACK ACCESS:          0  HIT:          0  MISS:          0
ITLB PREFETCH  REQUESTED:          0  ISSUED:          0  USEFUL:          0  USELESS:          0
ITLB TOTAL MSHR MERGED:          1
ITLB LOAD MSHR MERGED:          1
ITLB RFO MSHR MERGED:          0
ITLB PREFETCH MSHR MERGED:          0
ITLB WRITEBACK MSHR MERGED:          0
ITLB TOTAL ACCESSES:   86451896 HITS:   86451894 MISSES:          2
ITLB LOAD ACCESSES:   86451896 HITS:   86451894 MISSES:          2
ITLB RFO ACCESSES:          0 HITS:          0 MISSES:          0
ITLB PREFETCH ACCESSES:          0 HITS:          0 MISSES:          0
ITLB WRITEBACK ACCESSES:          0 HITS:          0 MISSES:          0
ITLB RQ ACCESS:  500000002
ITLB RQ TO_CACHE:   86451896
ITLB RQ MERGED:  413548106
ITLB RQ FORWARD:          0
ITLB WQ ACCESS:          0
ITLB WQ TO_CACHE:          0
ITLB WQ MERGED:          0
ITLB WQ FORWARD:          0
DTLB TOTAL     ACCESS:   98112072  HIT:   97926811  MISS:     185261
DTLB LOAD      ACCESS:   55043569  HIT:   54997258  MISS:      46311
DTLB RFO       ACCESS:   43068503  HIT:   42929553  MISS:     138950
DTLB PREFETCH  ACCESS:          0  HIT:          0  MISS:          0
DTLB WRITEBACK ACCESS:          0  HIT:          0  MISS:          0
DTLB PREFETCH  REQUESTED:          0  ISSUED:          0  USEFUL:          0  USELESS:          0
DTLB TOTAL MSHR MERGED:      83531
DTLB LOAD MSHR MERGED:      83526
DTLB RFO MSHR MERGED:          5
DTLB PREFETCH MSHR MERGED:          0
DTLB WRITEBACK MSHR MERGED:          0
DTLB TOTAL ACCESSES:   98195603 HITS:   97926811 MISSES:     268792
DTLB LOAD ACCESSES:   55127095 HITS:   54997258 MISSES:     129837
DTLB RFO ACCESSES:   43068508 HITS:   42929553 MISSES:     138955
DTLB PREFETCH ACCESSES:          0 HITS:          0 MISSES:          0
DTLB WRITEBACK ACCESSES:          0 HITS:          0 MISSES:          0
DTLB RQ ACCESS:  173637076
DTLB RQ TO_CACHE:   98195603
DTLB RQ MERGED:   75441473
DTLB RQ FORWARD:          0
DTLB WQ ACCESS:          0
DTLB WQ TO_CACHE:          0
DTLB WQ MERGED:          0
DTLB WQ FORWARD:          0
L1D TOTAL     ACCESS:  164612934  HIT:  145040383  MISS:   19572551
L1D LOAD      ACCESS:   60571737  HIT:   58720194  MISS:    1851543
L1D RFO       ACCESS:   64514053  HIT:   47911916  MISS:   16602137
L1D PREFETCH  ACCESS:   39527144  HIT:   38408273  MISS:    1118871
L1D WRITEBACK ACCESS:          0  HIT:          0  MISS:          0
L1D PREFETCH  REQUESTED:   61770354  ISSUED:   61477751  USEFUL:    1116953  USELESS:       1918
L1D TOTAL MSHR MERGED:    3541499
L1D LOAD MSHR MERGED:    1270001
L1D RFO MSHR MERGED:      11622
L1D PREFETCH MSHR MERGED:    2259876
L1D WRITEBACK MSHR MERGED:          0
L1D TOTAL ACCESSES:  168712512 HITS:  145598463 MISSES:   23114049
L1D LOAD ACCESSES:   62021108 HITS:   58970948 MISSES:    3050160
L1D RFO ACCESSES:   64525642 HITS:   47911916 MISSES:   16613726
L1D PREFETCH ACCESSES:   42165762 HITS:   38715599 MISSES:    3450163
L1D WRITEBACK ACCESSES:          0 HITS:          0 MISSES:          0
L1D RQ ACCESS:  109095761
L1D RQ TO_CACHE:   61770354
L1D RQ MERGED:   47074653
L1D RQ FORWARD:          0
L1D WQ ACCESS:   64541313
L1D WQ TO_CACHE:   64525643
L1D WQ MERGED:      15670
L1D WQ FORWARD:     558080
L1I TOTAL     ACCESS:  107761043  HIT:  107761035  MISS:          8
L1I LOAD      ACCESS:  107761043  HIT:  107761035  MISS:          8
L1I RFO       ACCESS:          0  HIT:          0  MISS:          0
L1I PREFETCH  ACCESS:          0  HIT:          0  MISS:          0
L1I WRITEBACK ACCESS:          0  HIT:          0  MISS:          0
L1I PREFETCH  REQUESTED:          0  ISSUED:          0  USEFUL:          0  USELESS:          0
L1I TOTAL MSHR MERGED:          3
L1I LOAD MSHR MERGED:          3
L1I RFO MSHR MERGED:          0
L1I PREFETCH MSHR MERGED:          0
L1I WRITEBACK MSHR MERGED:          0
L1I TOTAL ACCESSES:  107761046 HITS:  107761035 MISSES:         11
L1I LOAD ACCESSES:  107761046 HITS:  107761035 MISSES:         11
L1I RFO ACCESSES:          0 HITS:          0 MISSES:          0
L1I PREFETCH ACCESSES:          0 HITS:          0 MISSES:          0
L1I WRITEBACK ACCESSES:          0 HITS:          0 MISSES:          0
L1I RQ ACCESS:  500000007
L1I RQ TO_CACHE:  107761046
L1I RQ MERGED:  392238961
L1I RQ FORWARD:          0
L1I WQ ACCESS:          0
L1I WQ TO_CACHE:          0
L1I WQ MERGED:          0
L1I WQ FORWARD:          0
L2C TOTAL     ACCESS:   36815203  HIT:   24857619  MISS:   11957584
L2C LOAD      ACCESS:    1780167  HIT:     258163  MISS:    1522004
L2C RFO       ACCESS:   16602104  HIT:    7610736  MISS:    8991368
L2C PREFETCH  ACCESS:    1830747  HIT:     387768  MISS:    1442979
L2C WRITEBACK ACCESS:   16602185  HIT:   16600952  MISS:       1233
L2C PREFETCH  REQUESTED:     815240  ISSUED:     815240  USEFUL:     255853  USELESS:    1187407
L2C TOTAL MSHR MERGED:       2712
L2C LOAD MSHR MERGED:        565
L2C RFO MSHR MERGED:          0
L2C PREFETCH MSHR MERGED:       2147
L2C WRITEBACK MSHR MERGED:          0
L2C TOTAL ACCESSES:   36989899 HITS:   24857620 MISSES:   12132279
L2C LOAD ACCESSES:    1780167 HITS:     258163 MISSES:    1522004
L2C RFO ACCESSES:   16602104 HITS:    7610737 MISSES:    8991367
L2C PREFETCH ACCESSES:    2005443 HITS:     387768 MISSES:    1617675
L2C WRITEBACK ACCESSES:   16602185 HITS:   16600952 MISSES:       1233
L2C RQ ACCESS:   18382271
L2C RQ TO_CACHE:   18382270
L2C RQ MERGED:          0
L2C RQ FORWARD:          0
L2C WQ ACCESS:   16602185
L2C WQ TO_CACHE:   16602185
L2C WQ MERGED:          0
L2C WQ FORWARD:          1
LLC TOTAL     ACCESS:   21117564  HIT:    2142211  MISS:   18975353
LLC LOAD      ACCESS:    1521439  HIT:      62153  MISS:    1459286
LLC RFO       ACCESS:    8991347  HIT:     882205  MISS:    8109142
LLC PREFETCH  ACCESS:    1612582  HIT:     106582  MISS:    1506000
LLC WRITEBACK ACCESS:    8992196  HIT:    1091271  MISS:    7900925
LLC PREFETCH  REQUESTED:          0  ISSUED:          0  USEFUL:      62012  USELESS:    1443843
LLC TOTAL MSHR MERGED:       2605
LLC LOAD MSHR MERGED:        221
LLC RFO MSHR MERGED:          0
LLC PREFETCH MSHR MERGED:       2384
LLC WRITEBACK MSHR MERGED:          0
LLC TOTAL ACCESSES:   21120189 HITS:    2142232 MISSES:   18977957
LLC LOAD ACCESSES:    1521439 HITS:      62153 MISSES:    1459286
LLC RFO ACCESSES:    8991367 HITS:     882226 MISSES:    8109141
LLC PREFETCH ACCESSES:    1615187 HITS:     106582 MISSES:    1508605
LLC WRITEBACK ACCESSES:    8992196 HITS:    1091271 MISSES:    7900925
LLC 0 RQ ACCESS:   10512806
LLC 0 RQ TO_CACHE:   10512785
LLC 0 RQ MERGED:          0
LLC 0 RQ FORWARD:          0
LLC WQ ACCESS:    8992196
LLC WQ TO_CACHE:    8992196
LLC WQ MERGED:          0
LLC WQ FORWARD:         21
Major fault: 0 Minor fault: 102360
CPU 0 L1D next line prefetcher final stats
CPU 0 L2C PC-based stride prefetcher final stats
All Misses: 22569301
All Hits: 2523774
SD Algo Stats - Switches: 0 SRR-Repls: 1637912 BRR-Repls: 0

DRAM Statistics
 CHANNEL 0
 RQ ROW_BUFFER_HIT:    3720553  ROW_BUFFER_MISS:    7351842
 DBUS_CONGESTED:   13089961
 WQ ROW_BUFFER_HIT:    1295029  ROW_BUFFER_MISS:    6813577  FULL:          0

 AVG_CONGESTED_CYCLE: 13
LOADS RETIRED: 124982196
INSTR RETIRED: 500000000
