
*** ChampSim Multicore Out-of-Order Simulator ***

Warmup Instructions: 100000000
Simulation Instructions: 500000000
Number of CPUs: 1
LLC sets: 2048
LLC ways: 16
Clean RRIP Policies: 2213230122132301 Dirty RRIP Policies: 2203130122031301 PSEL Width: 10 Track Set: 4294967295 PSEL Mask: 1 Demote Mask: 3040100030401000DS Algo: 0Window size: 0
Off-chip DRAM Size: 4096 MB Channels: 1 Width: 64-bit Data Rate: 1600 MT/s

CPU 0 runs /mnt/beegfs/iconst01/spec2017/cactuBSSN.trace.gz
NOT SORTED
TRACE STRING: /mnt/beegfs/iconst01/spec2017/cactuBSSN.trace.gz
SORTED
TRACE STRING: /mnt/beegfs/iconst01/spec2017/cactuBSSN.trace.gz
INITIAL
TRACE STRING: /mnt/beegfs/iconst01/spec2017/cactuBSSN.trace.gz

champsim_seed used: 838

CPU 0 L1D next line prefetcher
CPU 0 L2C IP-based stride prefetcher
Initialize DRRIP state
Assign rand_sets[0]: 454  LLC: 2048
rand_sets[0]: 454
Assign rand_sets[1]: 1662  LLC: 2048
rand_sets[1]: 1662
Assign rand_sets[2]: 1921  LLC: 2048
rand_sets[2]: 1921
Assign rand_sets[3]: 1131  LLC: 2048
rand_sets[3]: 1131
Assign rand_sets[4]: 331  LLC: 2048
rand_sets[4]: 331
Assign rand_sets[5]: 1531  LLC: 2048
rand_sets[5]: 1531
Assign rand_sets[6]: 482  LLC: 2048
rand_sets[6]: 482
Assign rand_sets[7]: 1275  LLC: 2048
rand_sets[7]: 1275
Assign rand_sets[8]: 1876  LLC: 2048
rand_sets[8]: 1876
Assign rand_sets[9]: 2038  LLC: 2048
rand_sets[9]: 2038
Assign rand_sets[10]: 701  LLC: 2048
rand_sets[10]: 701
Assign rand_sets[11]: 479  LLC: 2048
rand_sets[11]: 479
Assign rand_sets[12]: 892  LLC: 2048
rand_sets[12]: 892
Assign rand_sets[13]: 1820  LLC: 2048
rand_sets[13]: 1820
Assign rand_sets[14]: 1505  LLC: 2048
rand_sets[14]: 1505
Assign rand_sets[15]: 1159  LLC: 2048
rand_sets[15]: 1159
Assign rand_sets[16]: 513  LLC: 2048
rand_sets[16]: 513
Assign rand_sets[17]: 703  LLC: 2048
rand_sets[17]: 703
Assign rand_sets[18]: 561  LLC: 2048
rand_sets[18]: 561
Assign rand_sets[19]: 990  LLC: 2048
rand_sets[19]: 990
Assign rand_sets[20]: 342  LLC: 2048
rand_sets[20]: 342
Assign rand_sets[21]: 882  LLC: 2048
rand_sets[21]: 882
Assign rand_sets[22]: 15  LLC: 2048
rand_sets[22]: 15
Assign rand_sets[23]: 71  LLC: 2048
rand_sets[23]: 71
Assign rand_sets[24]: 1127  LLC: 2048
rand_sets[24]: 1127
Assign rand_sets[25]: 1382  LLC: 2048
rand_sets[25]: 1382
Assign rand_sets[26]: 647  LLC: 2048
rand_sets[26]: 647
Assign rand_sets[27]: 857  LLC: 2048
rand_sets[27]: 857
Assign rand_sets[28]: 1450  LLC: 2048
rand_sets[28]: 1450
Assign rand_sets[29]: 1160  LLC: 2048
rand_sets[29]: 1160
Assign rand_sets[30]: 1852  LLC: 2048
rand_sets[30]: 1852
Assign rand_sets[31]: 1881  LLC: 2048
rand_sets[31]: 1881
Assign rand_sets[32]: 1770  LLC: 2048
rand_sets[32]: 1770
Assign rand_sets[33]: 1622  LLC: 2048
rand_sets[33]: 1622
Assign rand_sets[34]: 275  LLC: 2048
rand_sets[34]: 275
Assign rand_sets[35]: 635  LLC: 2048
rand_sets[35]: 635
Assign rand_sets[36]: 466  LLC: 2048
rand_sets[36]: 466
Assign rand_sets[37]: 1413  LLC: 2048
rand_sets[37]: 1413
Assign rand_sets[38]: 417  LLC: 2048
rand_sets[38]: 417
Assign rand_sets[39]: 472  LLC: 2048
rand_sets[39]: 472
Assign rand_sets[40]: 1340  LLC: 2048
rand_sets[40]: 1340
Assign rand_sets[41]: 852  LLC: 2048
rand_sets[41]: 852
Assign rand_sets[42]: 1365  LLC: 2048
rand_sets[42]: 1365
Assign rand_sets[43]: 47  LLC: 2048
rand_sets[43]: 47
Assign rand_sets[44]: 823  LLC: 2048
rand_sets[44]: 823
Assign rand_sets[45]: 686  LLC: 2048
rand_sets[45]: 686
Assign rand_sets[46]: 1637  LLC: 2048
rand_sets[46]: 1637
Assign rand_sets[47]: 1115  LLC: 2048
rand_sets[47]: 1115
Assign rand_sets[48]: 986  LLC: 2048
rand_sets[48]: 986
Assign rand_sets[49]: 258  LLC: 2048
rand_sets[49]: 258
Assign rand_sets[50]: 633  LLC: 2048
rand_sets[50]: 633
Assign rand_sets[51]: 920  LLC: 2048
rand_sets[51]: 920
Assign rand_sets[52]: 204  LLC: 2048
rand_sets[52]: 204
Assign rand_sets[53]: 227  LLC: 2048
rand_sets[53]: 227
Assign rand_sets[54]: 1818  LLC: 2048
rand_sets[54]: 1818
Assign rand_sets[55]: 886  LLC: 2048
rand_sets[55]: 886
Assign rand_sets[56]: 1422  LLC: 2048
rand_sets[56]: 1422
Assign rand_sets[57]: 607  LLC: 2048
rand_sets[57]: 607
Assign rand_sets[58]: 217  LLC: 2048
rand_sets[58]: 217
Assign rand_sets[59]: 1945  LLC: 2048
rand_sets[59]: 1945
Assign rand_sets[60]: 143  LLC: 2048
rand_sets[60]: 143
Assign rand_sets[61]: 1311  LLC: 2048
rand_sets[61]: 1311
Assign rand_sets[62]: 319  LLC: 2048
rand_sets[62]: 319
Assign rand_sets[63]: 1846  LLC: 2048
rand_sets[63]: 1846
 CLEAN-RRIP-POLICY-1: 2-2-1-3-2-3-0-1- CLEAN-RRIP-POLICY-2: 2-2-1-3-2-3-0-1-
 DIRTY-RRIP-POLICY-1: 2-2-0-3-1-3-0-1- DIRTY-RRIP-POLICY-2: 2-2-0-3-1-3-0-1-
 PSEL width: 10
Heartbeat CPU 0 instructions: 10000000 cycles: 6588002 heartbeat IPC: 1.51791 cumulative IPC: 1.51791 (Simulation time: 0 hr 0 min 24 sec) 
Heartbeat CPU 0 instructions: 20000000 cycles: 13179595 heartbeat IPC: 1.51708 cumulative IPC: 1.5175 (Simulation time: 0 hr 0 min 48 sec) 
Heartbeat CPU 0 instructions: 30000003 cycles: 19772915 heartbeat IPC: 1.51669 cumulative IPC: 1.51723 (Simulation time: 0 hr 1 min 12 sec) 
Heartbeat CPU 0 instructions: 40000000 cycles: 26364658 heartbeat IPC: 1.51705 cumulative IPC: 1.51718 (Simulation time: 0 hr 1 min 36 sec) 
Heartbeat CPU 0 instructions: 50000001 cycles: 32957330 heartbeat IPC: 1.51684 cumulative IPC: 1.51711 (Simulation time: 0 hr 2 min 0 sec) 
Heartbeat CPU 0 instructions: 60000000 cycles: 39556142 heartbeat IPC: 1.51542 cumulative IPC: 1.51683 (Simulation time: 0 hr 2 min 24 sec) 
Heartbeat CPU 0 instructions: 70000003 cycles: 46154508 heartbeat IPC: 1.51553 cumulative IPC: 1.51664 (Simulation time: 0 hr 2 min 48 sec) 
Heartbeat CPU 0 instructions: 80000000 cycles: 52752559 heartbeat IPC: 1.5156 cumulative IPC: 1.51651 (Simulation time: 0 hr 3 min 12 sec) 
Heartbeat CPU 0 instructions: 90000002 cycles: 59348213 heartbeat IPC: 1.51615 cumulative IPC: 1.51647 (Simulation time: 0 hr 3 min 36 sec) 
Heartbeat CPU 0 instructions: 100000000 cycles: 65943258 heartbeat IPC: 1.51629 cumulative IPC: 1.51646 (Simulation time: 0 hr 4 min 0 sec) 

Warmup complete CPU 0 instructions: 100000002 cycles: 65943259 (Simulation time: 0 hr 4 min 0 sec) 

Heartbeat CPU 0 instructions: 110000000 cycles: 79182546 heartbeat IPC: 0.755328 cumulative IPC: 0.755328 (Simulation time: 0 hr 4 min 30 sec) 
Heartbeat CPU 0 instructions: 120000000 cycles: 92378458 heartbeat IPC: 0.75781 cumulative IPC: 0.756567 (Simulation time: 0 hr 4 min 59 sec) 
Heartbeat CPU 0 instructions: 130000001 cycles: 105642874 heartbeat IPC: 0.753897 cumulative IPC: 0.755675 (Simulation time: 0 hr 5 min 28 sec) 
Heartbeat CPU 0 instructions: 140000000 cycles: 118822405 heartbeat IPC: 0.758752 cumulative IPC: 0.756442 (Simulation time: 0 hr 5 min 57 sec) 
Heartbeat CPU 0 instructions: 150000001 cycles: 132006157 heartbeat IPC: 0.75851 cumulative IPC: 0.756854 (Simulation time: 0 hr 6 min 27 sec) 
Heartbeat CPU 0 instructions: 160000000 cycles: 145229524 heartbeat IPC: 0.756237 cumulative IPC: 0.756751 (Simulation time: 0 hr 6 min 56 sec) 
Heartbeat CPU 0 instructions: 170000000 cycles: 158443897 heartbeat IPC: 0.756752 cumulative IPC: 0.756752 (Simulation time: 0 hr 7 min 25 sec) 
Heartbeat CPU 0 instructions: 180000000 cycles: 171640490 heartbeat IPC: 0.757771 cumulative IPC: 0.756879 (Simulation time: 0 hr 7 min 55 sec) 
Heartbeat CPU 0 instructions: 190000000 cycles: 184800697 heartbeat IPC: 0.759866 cumulative IPC: 0.75721 (Simulation time: 0 hr 8 min 24 sec) 
Heartbeat CPU 0 instructions: 200000000 cycles: 198049321 heartbeat IPC: 0.754795 cumulative IPC: 0.756968 (Simulation time: 0 hr 8 min 53 sec) 
Heartbeat CPU 0 instructions: 210000002 cycles: 211260199 heartbeat IPC: 0.756952 cumulative IPC: 0.756966 (Simulation time: 0 hr 9 min 22 sec) 
Heartbeat CPU 0 instructions: 220000000 cycles: 224432108 heartbeat IPC: 0.759191 cumulative IPC: 0.757151 (Simulation time: 0 hr 9 min 52 sec) 
Heartbeat CPU 0 instructions: 230000003 cycles: 237675801 heartbeat IPC: 0.755077 cumulative IPC: 0.756991 (Simulation time: 0 hr 10 min 21 sec) 
Heartbeat CPU 0 instructions: 240000000 cycles: 250863374 heartbeat IPC: 0.758289 cumulative IPC: 0.757084 (Simulation time: 0 hr 10 min 50 sec) 
Heartbeat CPU 0 instructions: 250000001 cycles: 264083459 heartbeat IPC: 0.756425 cumulative IPC: 0.75704 (Simulation time: 0 hr 11 min 20 sec) 
Heartbeat CPU 0 instructions: 260000000 cycles: 277294700 heartbeat IPC: 0.756931 cumulative IPC: 0.757033 (Simulation time: 0 hr 11 min 48 sec) 
Heartbeat CPU 0 instructions: 270000003 cycles: 290529094 heartbeat IPC: 0.755607 cumulative IPC: 0.756949 (Simulation time: 0 hr 12 min 17 sec) 
Heartbeat CPU 0 instructions: 280000000 cycles: 303734976 heartbeat IPC: 0.757238 cumulative IPC: 0.756965 (Simulation time: 0 hr 12 min 47 sec) 
Heartbeat CPU 0 instructions: 290000000 cycles: 316906165 heartbeat IPC: 0.759233 cumulative IPC: 0.757084 (Simulation time: 0 hr 13 min 15 sec) 
Heartbeat CPU 0 instructions: 300000000 cycles: 330160331 heartbeat IPC: 0.75448 cumulative IPC: 0.756953 (Simulation time: 0 hr 13 min 45 sec) 
Heartbeat CPU 0 instructions: 310000001 cycles: 343334124 heartbeat IPC: 0.759083 cumulative IPC: 0.757055 (Simulation time: 0 hr 14 min 14 sec) 
Heartbeat CPU 0 instructions: 320000000 cycles: 356527146 heartbeat IPC: 0.757976 cumulative IPC: 0.757096 (Simulation time: 0 hr 14 min 42 sec) 
Heartbeat CPU 0 instructions: 330000002 cycles: 369718111 heartbeat IPC: 0.758095 cumulative IPC: 0.75714 (Simulation time: 0 hr 15 min 12 sec) 
Heartbeat CPU 0 instructions: 340000000 cycles: 382957525 heartbeat IPC: 0.75532 cumulative IPC: 0.757064 (Simulation time: 0 hr 15 min 41 sec) 
Heartbeat CPU 0 instructions: 350000000 cycles: 396202190 heartbeat IPC: 0.755021 cumulative IPC: 0.756982 (Simulation time: 0 hr 16 min 10 sec) 
Heartbeat CPU 0 instructions: 360000000 cycles: 409417454 heartbeat IPC: 0.756701 cumulative IPC: 0.756971 (Simulation time: 0 hr 16 min 39 sec) 
Heartbeat CPU 0 instructions: 370000002 cycles: 422687039 heartbeat IPC: 0.753603 cumulative IPC: 0.756846 (Simulation time: 0 hr 17 min 8 sec) 
Heartbeat CPU 0 instructions: 380000000 cycles: 435891513 heartbeat IPC: 0.757319 cumulative IPC: 0.756863 (Simulation time: 0 hr 17 min 37 sec) 
Heartbeat CPU 0 instructions: 390000000 cycles: 449068541 heartbeat IPC: 0.758896 cumulative IPC: 0.756933 (Simulation time: 0 hr 18 min 6 sec) 
Heartbeat CPU 0 instructions: 400000000 cycles: 462259066 heartbeat IPC: 0.75812 cumulative IPC: 0.756972 (Simulation time: 0 hr 18 min 35 sec) 
Heartbeat CPU 0 instructions: 410000001 cycles: 475510238 heartbeat IPC: 0.75465 cumulative IPC: 0.756897 (Simulation time: 0 hr 19 min 4 sec) 
Heartbeat CPU 0 instructions: 420000000 cycles: 488695544 heartbeat IPC: 0.75842 cumulative IPC: 0.756944 (Simulation time: 0 hr 19 min 33 sec) 
Heartbeat CPU 0 instructions: 430000001 cycles: 501885721 heartbeat IPC: 0.75814 cumulative IPC: 0.756981 (Simulation time: 0 hr 20 min 2 sec) 
Heartbeat CPU 0 instructions: 440000000 cycles: 515053427 heartbeat IPC: 0.759434 cumulative IPC: 0.757053 (Simulation time: 0 hr 20 min 31 sec) 
Heartbeat CPU 0 instructions: 450000002 cycles: 528358792 heartbeat IPC: 0.751577 cumulative IPC: 0.756895 (Simulation time: 0 hr 21 min 0 sec) 
Heartbeat CPU 0 instructions: 460000000 cycles: 541575621 heartbeat IPC: 0.756611 cumulative IPC: 0.756887 (Simulation time: 0 hr 21 min 29 sec) 
Heartbeat CPU 0 instructions: 470000003 cycles: 554773411 heartbeat IPC: 0.757703 cumulative IPC: 0.756909 (Simulation time: 0 hr 21 min 58 sec) 
Heartbeat CPU 0 instructions: 480000000 cycles: 568008990 heartbeat IPC: 0.755539 cumulative IPC: 0.756873 (Simulation time: 0 hr 22 min 27 sec) 
Heartbeat CPU 0 instructions: 490000000 cycles: 581223547 heartbeat IPC: 0.756741 cumulative IPC: 0.75687 (Simulation time: 0 hr 22 min 56 sec) 
Heartbeat CPU 0 instructions: 500000000 cycles: 594415708 heartbeat IPC: 0.758026 cumulative IPC: 0.756898 (Simulation time: 0 hr 23 min 25 sec) 
Heartbeat CPU 0 instructions: 510000001 cycles: 607584959 heartbeat IPC: 0.759345 cumulative IPC: 0.756958 (Simulation time: 0 hr 23 min 54 sec) 
Heartbeat CPU 0 instructions: 520000000 cycles: 620860198 heartbeat IPC: 0.753282 cumulative IPC: 0.75687 (Simulation time: 0 hr 24 min 23 sec) 
Heartbeat CPU 0 instructions: 530000000 cycles: 634103162 heartbeat IPC: 0.755118 cumulative IPC: 0.756829 (Simulation time: 0 hr 24 min 51 sec) 
Heartbeat CPU 0 instructions: 540000000 cycles: 647323994 heartbeat IPC: 0.756382 cumulative IPC: 0.756819 (Simulation time: 0 hr 25 min 20 sec) 
Heartbeat CPU 0 instructions: 550000002 cycles: 660574796 heartbeat IPC: 0.754671 cumulative IPC: 0.756771 (Simulation time: 0 hr 25 min 49 sec) 
Heartbeat CPU 0 instructions: 560000000 cycles: 673764150 heartbeat IPC: 0.758187 cumulative IPC: 0.756802 (Simulation time: 0 hr 26 min 18 sec) 
Heartbeat CPU 0 instructions: 570000001 cycles: 686963906 heartbeat IPC: 0.75759 cumulative IPC: 0.756819 (Simulation time: 0 hr 26 min 47 sec) 
Heartbeat CPU 0 instructions: 580000000 cycles: 700162072 heartbeat IPC: 0.757681 cumulative IPC: 0.756837 (Simulation time: 0 hr 27 min 16 sec) 
Heartbeat CPU 0 instructions: 590000003 cycles: 713390311 heartbeat IPC: 0.755959 cumulative IPC: 0.756819 (Simulation time: 0 hr 27 min 45 sec) 
Heartbeat CPU 0 instructions: 600000000 cycles: 726649367 heartbeat IPC: 0.754201 cumulative IPC: 0.756766 (Simulation time: 0 hr 28 min 14 sec) 
Finished CPU 0 instructions: 500000000 cycles: 660706118 cumulative IPC: 0.756766 (Simulation time: 0 hr 28 min 14 sec) 

CPU 0 Branch Prediction Accuracy: 99.968% MPKI: 0.002246
Number of Branches: 3513331 Number of Mispredictions: 1123
Number of LOAD Instructions: 287251172
Number of LOAD Instructions (ROI): 287251172
Number of STORE Instructions: 51060820
Number of STORE Instructions (ROI): 51060820
Total Destination Memory Operands: 51166221
Total Destination Memory Operands (ROI): 51166221
Total Source Memory Operands: 287251172
Total Source Memory Operands (ROI): 287251172
Number of DEPENDED LOADS: 9555475
Number of DEPENDED LOADS (ROI): 9555475
Number of SQ_ADDED: 51166208
Number of SQ_ADDED (ROI): 51166208
Number of LQ_ADDED: 290419969
Number of LQ_ADDED (ROI): 290419969
Number of Instructions read from trace: 600000257

ChampSim completed all CPUs

Region of Interest Statistics

CPU 0 cumulative IPC: 0.756766 instructions: 500000000 cycles: 660706118
ITLB TOTAL     ACCESS:  108949305  HIT:  108949305  MISS:          0
ITLB LOAD      ACCESS:  108949305  HIT:  108949305  MISS:          0
ITLB RFO       ACCESS:          0  HIT:          0  MISS:          0
ITLB PREFETCH  ACCESS:          0  HIT:          0  MISS:          0
ITLB WRITEBACK ACCESS:          0  HIT:          0  MISS:          0
ITLB PREFETCH  REQUESTED:          0  ISSUED:          0  USEFUL:          0  USELESS:          0
ITLB TOTAL MSHR MERGED:          0
ITLB LOAD MSHR MERGED:          0
ITLB RFO MSHR MERGED:          0
ITLB PREFETCH MSHR MERGED:          0
ITLB WRITEBACK MSHR MERGED:          0
ITLB TOTAL ACCESSES:  108949305 HITS:  108949305 MISSES:          0
ITLB LOAD ACCESSES:  108949305 HITS:  108949305 MISSES:          0
ITLB RFO ACCESSES:          0 HITS:          0 MISSES:          0
ITLB PREFETCH ACCESSES:          0 HITS:          0 MISSES:          0
ITLB WRITEBACK ACCESSES:          0 HITS:          0 MISSES:          0
ITLB RQ ACCESS:  500000001
ITLB RQ TO_CACHE:  108949305
ITLB RQ MERGED:  391050696
ITLB RQ FORWARD:          0
ITLB WQ ACCESS:          0
ITLB WQ TO_CACHE:          0
ITLB WQ MERGED:          0
ITLB WQ FORWARD:          0
DTLB TOTAL     ACCESS:  171131008  HIT:  161114684  MISS:   10016324
DTLB LOAD      ACCESS:  143471898  HIT:  135595824  MISS:    7876074
DTLB RFO       ACCESS:   27659110  HIT:   25518860  MISS:    2140250
DTLB PREFETCH  ACCESS:          0  HIT:          0  MISS:          0
DTLB WRITEBACK ACCESS:          0  HIT:          0  MISS:          0
DTLB PREFETCH  REQUESTED:          0  ISSUED:          0  USEFUL:          0  USELESS:          0
DTLB TOTAL MSHR MERGED:     360479
DTLB LOAD MSHR MERGED:     360479
DTLB RFO MSHR MERGED:          0
DTLB PREFETCH MSHR MERGED:          0
DTLB WRITEBACK MSHR MERGED:          0
DTLB TOTAL ACCESSES:  171491487 HITS:  161114684 MISSES:   10376803
DTLB LOAD ACCESSES:  143832377 HITS:  135595824 MISSES:    8236553
DTLB RFO ACCESSES:   27659110 HITS:   25518860 MISSES:    2140250
DTLB PREFETCH ACCESSES:          0 HITS:          0 MISSES:          0
DTLB WRITEBACK ACCESSES:          0 HITS:          0 MISSES:          0
DTLB RQ ACCESS:  274072342
DTLB RQ TO_CACHE:  171491487
DTLB RQ MERGED:  102580855
DTLB RQ FORWARD:          0
DTLB WQ ACCESS:          0
DTLB WQ TO_CACHE:          0
DTLB WQ MERGED:          0
DTLB WQ FORWARD:          0
L1D TOTAL     ACCESS:  350953015  HIT:  283753842  MISS:   67199173
L1D LOAD      ACCESS:  175626897  HIT:  142587716  MISS:   33039181
L1D RFO       ACCESS:   42020263  HIT:   39214796  MISS:    2805467
L1D PREFETCH  ACCESS:  133305855  HIT:  101951330  MISS:   31354525
L1D WRITEBACK ACCESS:          0  HIT:          0  MISS:          0
L1D PREFETCH  REQUESTED:  176230980  ISSUED:  175292524  USEFUL:    2180688  USELESS:   29173839
L1D TOTAL MSHR MERGED:    1482606
L1D LOAD MSHR MERGED:     704047
L1D RFO MSHR MERGED:     348834
L1D PREFETCH MSHR MERGED:     429725
L1D WRITEBACK MSHR MERGED:          0
L1D TOTAL ACCESSES:  352547990 HITS:  283866211 MISSES:   68681779
L1D LOAD ACCESSES:  176237450 HITS:  142594186 MISSES:   33643264
L1D RFO ACCESSES:   42368412 HITS:   39214796 MISSES:    3153616
L1D PREFETCH ACCESSES:  133942128 HITS:  102057229 MISSES:   31884899
L1D WRITEBACK ACCESSES:          0 HITS:          0 MISSES:          0
L1D RQ ACCESS:  231433869
L1D RQ TO_CACHE:  176230980
L1D RQ MERGED:   55196419
L1D RQ FORWARD:          0
L1D WQ ACCESS:   42638475
L1D WQ TO_CACHE:   42368412
L1D WQ MERGED:     270063
L1D WQ FORWARD:     112369
L1I TOTAL     ACCESS:  109342901  HIT:   77827197  MISS:   31515704
L1I LOAD      ACCESS:  109342901  HIT:   77827197  MISS:   31515704
L1I RFO       ACCESS:          0  HIT:          0  MISS:          0
L1I PREFETCH  ACCESS:          0  HIT:          0  MISS:          0
L1I WRITEBACK ACCESS:          0  HIT:          0  MISS:          0
L1I PREFETCH  REQUESTED:          0  ISSUED:          0  USEFUL:          0  USELESS:          0
L1I TOTAL MSHR MERGED:   30750373
L1I LOAD MSHR MERGED:   30750373
L1I RFO MSHR MERGED:          0
L1I PREFETCH MSHR MERGED:          0
L1I WRITEBACK MSHR MERGED:          0
L1I TOTAL ACCESSES:  140093276 HITS:   77827197 MISSES:   62266079
L1I LOAD ACCESSES:  140093276 HITS:   77827197 MISSES:   62266079
L1I RFO ACCESSES:          0 HITS:          0 MISSES:          0
L1I PREFETCH ACCESSES:          0 HITS:          0 MISSES:          0
L1I WRITEBACK ACCESSES:          0 HITS:          0 MISSES:          0
L1I RQ ACCESS:  500000003
L1I RQ TO_CACHE:  140093276
L1I RQ MERGED:  359906727
L1I RQ FORWARD:          0
L1I WQ ACCESS:          0
L1I WQ TO_CACHE:          0
L1I WQ MERGED:          0
L1I WQ FORWARD:          0
L2C TOTAL     ACCESS:  113700837  HIT:  110698563  MISS:    3002274
L2C LOAD      ACCESS:   64453062  HIT:   63892546  MISS:     560516
L2C RFO       ACCESS:    2802889  HIT:    2193371  MISS:     609518
L2C PREFETCH  ACCESS:   43283912  HIT:   41457950  MISS:    1825962
L2C WRITEBACK ACCESS:    3160974  HIT:    3154696  MISS:       6278
L2C PREFETCH  REQUESTED:   15134502  ISSUED:   14619810  USEFUL:    1700978  USELESS:     124990
L2C TOTAL MSHR MERGED:      12736
L2C LOAD MSHR MERGED:          0
L2C RFO MSHR MERGED:          0
L2C PREFETCH MSHR MERGED:      12736
L2C WRITEBACK MSHR MERGED:          0
L2C TOTAL ACCESSES:  113903292 HITS:  110704425 MISSES:    3198867
L2C LOAD ACCESSES:   64454922 HITS:   63894405 MISSES:     560517
L2C RFO ACCESSES:    2804782 HITS:    2195264 MISSES:     609518
L2C PREFETCH ACCESSES:   43482614 HITS:   41460060 MISSES:    2022554
L2C WRITEBACK ACCESSES:    3160974 HITS:    3154696 MISSES:       6278
L2C RQ ACCESS:   67259705
L2C RQ TO_CACHE:   67255953
L2C RQ MERGED:          0
L2C RQ FORWARD:          0
L2C WQ ACCESS:    3160974
L2C WQ TO_CACHE:    3160974
L2C WQ MERGED:          0
L2C WQ FORWARD:       5862
LLC TOTAL     ACCESS:    3711199  HIT:    1867151  MISS:    1844048
LLC LOAD      ACCESS:     560485  HIT:     498250  MISS:      62235
LLC RFO       ACCESS:     527402  HIT:     239271  MISS:     288131
LLC PREFETCH  ACCESS:    2004764  HIT:     658587  MISS:    1346177
LLC WRITEBACK ACCESS:     618548  HIT:     471043  MISS:     147505
LLC PREFETCH  REQUESTED:          0  ISSUED:          0  USEFUL:      43968  USELESS:    1295145
LLC TOTAL MSHR MERGED:       4388
LLC LOAD MSHR MERGED:          0
LLC RFO MSHR MERGED:          0
LLC PREFETCH MSHR MERGED:       4388
LLC WRITEBACK MSHR MERGED:          0
LLC TOTAL ACCESSES:    3797819 HITS:    1949383 MISSES:    1848436
LLC LOAD ACCESSES:     560516 HITS:     498281 MISSES:      62235
LLC RFO ACCESSES:     609518 HITS:     321387 MISSES:     288131
LLC PREFETCH ACCESSES:    2009237 HITS:     658672 MISSES:    1350565
LLC WRITEBACK ACCESSES:     618548 HITS:     471043 MISSES:     147505
LLC 0 RQ ACCESS:    1170035
LLC 0 RQ TO_CACHE:    1087888
LLC 0 RQ MERGED:          0
LLC 0 RQ FORWARD:          0
LLC WQ ACCESS:     618548
LLC WQ TO_CACHE:     618548
LLC WQ MERGED:          0
LLC WQ FORWARD:      82232
Major fault: 0 Minor fault: 12800
CPU 0 L1D next line prefetcher final stats
CPU 0 L2C PC-based stride prefetcher final stats
All Misses: 2240249
All Hits: 2321900
SD Algo Stats - Switches: 0 SRR-Repls: 79571 BRR-Repls: 0

DRAM Statistics
 CHANNEL 0
 RQ ROW_BUFFER_HIT:     834733  ROW_BUFFER_MISS:     861779
 DBUS_CONGESTED:     899548
 WQ ROW_BUFFER_HIT:      31201  ROW_BUFFER_MISS:     260272  FULL:          0

 AVG_CONGESTED_CYCLE: 13
LOADS RETIRED: 239375970
INSTR RETIRED: 500000000
