
*** ChampSim Multicore Out-of-Order Simulator ***

Warmup Instructions: 100000000
Simulation Instructions: 500000000
Number of CPUs: 1
LLC sets: 2048
LLC ways: 16
Clean RRIP Policies: 323102303231023 Dirty RRIP Policies: 2303200323032003 PSEL Width: 10 Track Set: 4294967295 PSEL Mask: 1 Demote Mask: 2303133323031333DS Algo: 0Window size: 0
Off-chip DRAM Size: 4096 MB Channels: 1 Width: 64-bit Data Rate: 1600 MT/s

CPU 0 runs /mnt/beegfs/iconst01/spec2017/Gcc.trace.gz
NOT SORTED
TRACE STRING: /mnt/beegfs/iconst01/spec2017/Gcc.trace.gz
SORTED
TRACE STRING: /mnt/beegfs/iconst01/spec2017/Gcc.trace.gz
INITIAL
TRACE STRING: /mnt/beegfs/iconst01/spec2017/Gcc.trace.gz

champsim_seed used: 269

CPU 0 L1D next line prefetcher
CPU 0 L2C IP-based stride prefetcher
Initialize DRRIP state
Assign rand_sets[0]: 454  LLC: 2048
rand_sets[0]: 454
Assign rand_sets[1]: 1662  LLC: 2048
rand_sets[1]: 1662
Assign rand_sets[2]: 1921  LLC: 2048
rand_sets[2]: 1921
Assign rand_sets[3]: 1131  LLC: 2048
rand_sets[3]: 1131
Assign rand_sets[4]: 331  LLC: 2048
rand_sets[4]: 331
Assign rand_sets[5]: 1531  LLC: 2048
rand_sets[5]: 1531
Assign rand_sets[6]: 482  LLC: 2048
rand_sets[6]: 482
Assign rand_sets[7]: 1275  LLC: 2048
rand_sets[7]: 1275
Assign rand_sets[8]: 1876  LLC: 2048
rand_sets[8]: 1876
Assign rand_sets[9]: 2038  LLC: 2048
rand_sets[9]: 2038
Assign rand_sets[10]: 701  LLC: 2048
rand_sets[10]: 701
Assign rand_sets[11]: 479  LLC: 2048
rand_sets[11]: 479
Assign rand_sets[12]: 892  LLC: 2048
rand_sets[12]: 892
Assign rand_sets[13]: 1820  LLC: 2048
rand_sets[13]: 1820
Assign rand_sets[14]: 1505  LLC: 2048
rand_sets[14]: 1505
Assign rand_sets[15]: 1159  LLC: 2048
rand_sets[15]: 1159
Assign rand_sets[16]: 513  LLC: 2048
rand_sets[16]: 513
Assign rand_sets[17]: 703  LLC: 2048
rand_sets[17]: 703
Assign rand_sets[18]: 561  LLC: 2048
rand_sets[18]: 561
Assign rand_sets[19]: 990  LLC: 2048
rand_sets[19]: 990
Assign rand_sets[20]: 342  LLC: 2048
rand_sets[20]: 342
Assign rand_sets[21]: 882  LLC: 2048
rand_sets[21]: 882
Assign rand_sets[22]: 15  LLC: 2048
rand_sets[22]: 15
Assign rand_sets[23]: 71  LLC: 2048
rand_sets[23]: 71
Assign rand_sets[24]: 1127  LLC: 2048
rand_sets[24]: 1127
Assign rand_sets[25]: 1382  LLC: 2048
rand_sets[25]: 1382
Assign rand_sets[26]: 647  LLC: 2048
rand_sets[26]: 647
Assign rand_sets[27]: 857  LLC: 2048
rand_sets[27]: 857
Assign rand_sets[28]: 1450  LLC: 2048
rand_sets[28]: 1450
Assign rand_sets[29]: 1160  LLC: 2048
rand_sets[29]: 1160
Assign rand_sets[30]: 1852  LLC: 2048
rand_sets[30]: 1852
Assign rand_sets[31]: 1881  LLC: 2048
rand_sets[31]: 1881
Assign rand_sets[32]: 1770  LLC: 2048
rand_sets[32]: 1770
Assign rand_sets[33]: 1622  LLC: 2048
rand_sets[33]: 1622
Assign rand_sets[34]: 275  LLC: 2048
rand_sets[34]: 275
Assign rand_sets[35]: 635  LLC: 2048
rand_sets[35]: 635
Assign rand_sets[36]: 466  LLC: 2048
rand_sets[36]: 466
Assign rand_sets[37]: 1413  LLC: 2048
rand_sets[37]: 1413
Assign rand_sets[38]: 417  LLC: 2048
rand_sets[38]: 417
Assign rand_sets[39]: 472  LLC: 2048
rand_sets[39]: 472
Assign rand_sets[40]: 1340  LLC: 2048
rand_sets[40]: 1340
Assign rand_sets[41]: 852  LLC: 2048
rand_sets[41]: 852
Assign rand_sets[42]: 1365  LLC: 2048
rand_sets[42]: 1365
Assign rand_sets[43]: 47  LLC: 2048
rand_sets[43]: 47
Assign rand_sets[44]: 823  LLC: 2048
rand_sets[44]: 823
Assign rand_sets[45]: 686  LLC: 2048
rand_sets[45]: 686
Assign rand_sets[46]: 1637  LLC: 2048
rand_sets[46]: 1637
Assign rand_sets[47]: 1115  LLC: 2048
rand_sets[47]: 1115
Assign rand_sets[48]: 986  LLC: 2048
rand_sets[48]: 986
Assign rand_sets[49]: 258  LLC: 2048
rand_sets[49]: 258
Assign rand_sets[50]: 633  LLC: 2048
rand_sets[50]: 633
Assign rand_sets[51]: 920  LLC: 2048
rand_sets[51]: 920
Assign rand_sets[52]: 204  LLC: 2048
rand_sets[52]: 204
Assign rand_sets[53]: 227  LLC: 2048
rand_sets[53]: 227
Assign rand_sets[54]: 1818  LLC: 2048
rand_sets[54]: 1818
Assign rand_sets[55]: 886  LLC: 2048
rand_sets[55]: 886
Assign rand_sets[56]: 1422  LLC: 2048
rand_sets[56]: 1422
Assign rand_sets[57]: 607  LLC: 2048
rand_sets[57]: 607
Assign rand_sets[58]: 217  LLC: 2048
rand_sets[58]: 217
Assign rand_sets[59]: 1945  LLC: 2048
rand_sets[59]: 1945
Assign rand_sets[60]: 143  LLC: 2048
rand_sets[60]: 143
Assign rand_sets[61]: 1311  LLC: 2048
rand_sets[61]: 1311
Assign rand_sets[62]: 319  LLC: 2048
rand_sets[62]: 319
Assign rand_sets[63]: 1846  LLC: 2048
rand_sets[63]: 1846
 CLEAN-RRIP-POLICY-1: 0-3-2-3-1-0-2-3- CLEAN-RRIP-POLICY-2: 0-3-2-3-1-0-2-3-
 DIRTY-RRIP-POLICY-1: 2-3-0-3-2-0-0-3- DIRTY-RRIP-POLICY-2: 2-3-0-3-2-0-0-3-
 PSEL width: 10
Heartbeat CPU 0 instructions: 10000001 cycles: 7321625 heartbeat IPC: 1.36582 cumulative IPC: 1.36582 (Simulation time: 0 hr 0 min 18 sec) 
Heartbeat CPU 0 instructions: 20000000 cycles: 14328006 heartbeat IPC: 1.42727 cumulative IPC: 1.39587 (Simulation time: 0 hr 0 min 37 sec) 
Heartbeat CPU 0 instructions: 30000001 cycles: 21045401 heartbeat IPC: 1.48867 cumulative IPC: 1.42549 (Simulation time: 0 hr 0 min 56 sec) 
Heartbeat CPU 0 instructions: 40000000 cycles: 27507828 heartbeat IPC: 1.54741 cumulative IPC: 1.45413 (Simulation time: 0 hr 1 min 16 sec) 
Heartbeat CPU 0 instructions: 50000001 cycles: 33610823 heartbeat IPC: 1.63854 cumulative IPC: 1.48762 (Simulation time: 0 hr 1 min 35 sec) 
Heartbeat CPU 0 instructions: 60000000 cycles: 40093208 heartbeat IPC: 1.54264 cumulative IPC: 1.49651 (Simulation time: 0 hr 1 min 55 sec) 
Heartbeat CPU 0 instructions: 70000000 cycles: 47136803 heartbeat IPC: 1.41973 cumulative IPC: 1.48504 (Simulation time: 0 hr 2 min 13 sec) 
Heartbeat CPU 0 instructions: 80000000 cycles: 54232771 heartbeat IPC: 1.40925 cumulative IPC: 1.47512 (Simulation time: 0 hr 2 min 31 sec) 
Heartbeat CPU 0 instructions: 90000003 cycles: 61243679 heartbeat IPC: 1.42635 cumulative IPC: 1.46954 (Simulation time: 0 hr 2 min 50 sec) 
Heartbeat CPU 0 instructions: 100000000 cycles: 68417442 heartbeat IPC: 1.39397 cumulative IPC: 1.46162 (Simulation time: 0 hr 3 min 8 sec) 

Warmup complete CPU 0 instructions: 100000004 cycles: 68417443 (Simulation time: 0 hr 3 min 8 sec) 

Heartbeat CPU 0 instructions: 110000003 cycles: 97108323 heartbeat IPC: 0.348543 cumulative IPC: 0.348543 (Simulation time: 0 hr 3 min 44 sec) 
Heartbeat CPU 0 instructions: 120000000 cycles: 124963862 heartbeat IPC: 0.358995 cumulative IPC: 0.353692 (Simulation time: 0 hr 4 min 20 sec) 
Heartbeat CPU 0 instructions: 130000000 cycles: 150272180 heartbeat IPC: 0.395127 cumulative IPC: 0.366503 (Simulation time: 0 hr 4 min 56 sec) 
Heartbeat CPU 0 instructions: 140000000 cycles: 181658674 heartbeat IPC: 0.318608 cumulative IPC: 0.353228 (Simulation time: 0 hr 5 min 32 sec) 
Heartbeat CPU 0 instructions: 150000000 cycles: 212874422 heartbeat IPC: 0.320351 cumulative IPC: 0.346124 (Simulation time: 0 hr 6 min 9 sec) 
Heartbeat CPU 0 instructions: 160000000 cycles: 240783850 heartbeat IPC: 0.358302 cumulative IPC: 0.348096 (Simulation time: 0 hr 6 min 44 sec) 
Heartbeat CPU 0 instructions: 170000001 cycles: 269375864 heartbeat IPC: 0.349748 cumulative IPC: 0.348331 (Simulation time: 0 hr 7 min 21 sec) 
Heartbeat CPU 0 instructions: 180000000 cycles: 298462129 heartbeat IPC: 0.343805 cumulative IPC: 0.347759 (Simulation time: 0 hr 7 min 58 sec) 
Heartbeat CPU 0 instructions: 190000002 cycles: 327185582 heartbeat IPC: 0.348148 cumulative IPC: 0.347802 (Simulation time: 0 hr 8 min 34 sec) 
Heartbeat CPU 0 instructions: 200000000 cycles: 356229948 heartbeat IPC: 0.344301 cumulative IPC: 0.347448 (Simulation time: 0 hr 9 min 11 sec) 
Heartbeat CPU 0 instructions: 210000002 cycles: 384765697 heartbeat IPC: 0.350438 cumulative IPC: 0.347718 (Simulation time: 0 hr 9 min 48 sec) 
Heartbeat CPU 0 instructions: 220000000 cycles: 415619208 heartbeat IPC: 0.324112 cumulative IPC: 0.34562 (Simulation time: 0 hr 10 min 23 sec) 
Heartbeat CPU 0 instructions: 230000000 cycles: 444037885 heartbeat IPC: 0.351881 cumulative IPC: 0.346094 (Simulation time: 0 hr 10 min 58 sec) 
Heartbeat CPU 0 instructions: 240000000 cycles: 470612929 heartbeat IPC: 0.376293 cumulative IPC: 0.348089 (Simulation time: 0 hr 11 min 33 sec) 
Heartbeat CPU 0 instructions: 250000000 cycles: 501136404 heartbeat IPC: 0.327617 cumulative IPC: 0.346645 (Simulation time: 0 hr 12 min 10 sec) 
Heartbeat CPU 0 instructions: 260000000 cycles: 528506175 heartbeat IPC: 0.365367 cumulative IPC: 0.347759 (Simulation time: 0 hr 12 min 46 sec) 
Heartbeat CPU 0 instructions: 270000003 cycles: 557362093 heartbeat IPC: 0.346549 cumulative IPC: 0.347688 (Simulation time: 0 hr 13 min 23 sec) 
Heartbeat CPU 0 instructions: 280000000 cycles: 586030100 heartbeat IPC: 0.348821 cumulative IPC: 0.34775 (Simulation time: 0 hr 14 min 0 sec) 
Heartbeat CPU 0 instructions: 290000000 cycles: 615338122 heartbeat IPC: 0.341204 cumulative IPC: 0.3474 (Simulation time: 0 hr 14 min 38 sec) 
Heartbeat CPU 0 instructions: 300000000 cycles: 646498085 heartbeat IPC: 0.320925 cumulative IPC: 0.345972 (Simulation time: 0 hr 15 min 14 sec) 
Heartbeat CPU 0 instructions: 310000001 cycles: 676788249 heartbeat IPC: 0.33014 cumulative IPC: 0.345184 (Simulation time: 0 hr 15 min 50 sec) 
Heartbeat CPU 0 instructions: 320000000 cycles: 706052124 heartbeat IPC: 0.341718 cumulative IPC: 0.345025 (Simulation time: 0 hr 16 min 26 sec) 
Heartbeat CPU 0 instructions: 330000000 cycles: 735437583 heartbeat IPC: 0.340304 cumulative IPC: 0.344817 (Simulation time: 0 hr 17 min 2 sec) 
Heartbeat CPU 0 instructions: 340000000 cycles: 765603346 heartbeat IPC: 0.331502 cumulative IPC: 0.344241 (Simulation time: 0 hr 17 min 38 sec) 
Heartbeat CPU 0 instructions: 350000003 cycles: 793175139 heartbeat IPC: 0.36269 cumulative IPC: 0.344943 (Simulation time: 0 hr 18 min 13 sec) 
Heartbeat CPU 0 instructions: 360000000 cycles: 823911474 heartbeat IPC: 0.325348 cumulative IPC: 0.344146 (Simulation time: 0 hr 18 min 49 sec) 
Heartbeat CPU 0 instructions: 370000000 cycles: 854770695 heartbeat IPC: 0.324052 cumulative IPC: 0.343357 (Simulation time: 0 hr 19 min 25 sec) 
Heartbeat CPU 0 instructions: 380000000 cycles: 886037822 heartbeat IPC: 0.319825 cumulative IPC: 0.342457 (Simulation time: 0 hr 20 min 0 sec) 
Heartbeat CPU 0 instructions: 390000001 cycles: 916422869 heartbeat IPC: 0.329109 cumulative IPC: 0.341979 (Simulation time: 0 hr 20 min 36 sec) 
Heartbeat CPU 0 instructions: 400000000 cycles: 947661493 heartbeat IPC: 0.320116 cumulative IPC: 0.341202 (Simulation time: 0 hr 21 min 11 sec) 
Heartbeat CPU 0 instructions: 410000001 cycles: 977739694 heartbeat IPC: 0.332467 cumulative IPC: 0.340913 (Simulation time: 0 hr 21 min 47 sec) 
Heartbeat CPU 0 instructions: 420000000 cycles: 1007857128 heartbeat IPC: 0.332034 cumulative IPC: 0.340629 (Simulation time: 0 hr 22 min 22 sec) 
Heartbeat CPU 0 instructions: 430000002 cycles: 1038401335 heartbeat IPC: 0.327394 cumulative IPC: 0.340212 (Simulation time: 0 hr 22 min 58 sec) 
Heartbeat CPU 0 instructions: 440000000 cycles: 1070062313 heartbeat IPC: 0.315846 cumulative IPC: 0.339442 (Simulation time: 0 hr 23 min 33 sec) 
Heartbeat CPU 0 instructions: 450000002 cycles: 1101574624 heartbeat IPC: 0.317336 cumulative IPC: 0.338767 (Simulation time: 0 hr 24 min 8 sec) 
Heartbeat CPU 0 instructions: 460000000 cycles: 1131961034 heartbeat IPC: 0.329094 cumulative IPC: 0.338491 (Simulation time: 0 hr 24 min 42 sec) 
Heartbeat CPU 0 instructions: 470000000 cycles: 1162004386 heartbeat IPC: 0.332852 cumulative IPC: 0.338336 (Simulation time: 0 hr 25 min 15 sec) 
Heartbeat CPU 0 instructions: 480000000 cycles: 1192264901 heartbeat IPC: 0.330464 cumulative IPC: 0.338124 (Simulation time: 0 hr 25 min 48 sec) 
Heartbeat CPU 0 instructions: 490000000 cycles: 1222250230 heartbeat IPC: 0.333496 cumulative IPC: 0.338004 (Simulation time: 0 hr 26 min 21 sec) 
Heartbeat CPU 0 instructions: 500000000 cycles: 1252655435 heartbeat IPC: 0.328891 cumulative IPC: 0.33777 (Simulation time: 0 hr 26 min 55 sec) 
Heartbeat CPU 0 instructions: 510000000 cycles: 1287902038 heartbeat IPC: 0.283715 cumulative IPC: 0.336208 (Simulation time: 0 hr 27 min 31 sec) 
Heartbeat CPU 0 instructions: 520000000 cycles: 1316075085 heartbeat IPC: 0.354949 cumulative IPC: 0.336631 (Simulation time: 0 hr 28 min 5 sec) 
Heartbeat CPU 0 instructions: 530000001 cycles: 1346616724 heartbeat IPC: 0.327422 cumulative IPC: 0.336411 (Simulation time: 0 hr 28 min 39 sec) 
Heartbeat CPU 0 instructions: 540000000 cycles: 1375634824 heartbeat IPC: 0.344612 cumulative IPC: 0.336593 (Simulation time: 0 hr 29 min 13 sec) 
Heartbeat CPU 0 instructions: 550000001 cycles: 1405083922 heartbeat IPC: 0.339569 cumulative IPC: 0.336658 (Simulation time: 0 hr 29 min 48 sec) 
Heartbeat CPU 0 instructions: 560000000 cycles: 1430762362 heartbeat IPC: 0.389432 cumulative IPC: 0.337653 (Simulation time: 0 hr 30 min 21 sec) 
Heartbeat CPU 0 instructions: 570000000 cycles: 1461044416 heartbeat IPC: 0.330229 cumulative IPC: 0.337492 (Simulation time: 0 hr 30 min 55 sec) 
Heartbeat CPU 0 instructions: 580000000 cycles: 1489788097 heartbeat IPC: 0.347903 cumulative IPC: 0.337702 (Simulation time: 0 hr 31 min 29 sec) 
Heartbeat CPU 0 instructions: 590000001 cycles: 1515005373 heartbeat IPC: 0.396554 cumulative IPC: 0.338728 (Simulation time: 0 hr 32 min 1 sec) 
Heartbeat CPU 0 instructions: 600000000 cycles: 1541986289 heartbeat IPC: 0.370632 cumulative IPC: 0.339312 (Simulation time: 0 hr 32 min 32 sec) 
Finished CPU 0 instructions: 500000000 cycles: 1473568868 cumulative IPC: 0.339312 (Simulation time: 0 hr 32 min 32 sec) 

CPU 0 Branch Prediction Accuracy: 86.4311% MPKI: 26.2662
Number of Branches: 96788573 Number of Mispredictions: 13133102
Number of LOAD Instructions: 164682285
Number of LOAD Instructions (ROI): 164682285
Number of STORE Instructions: 78194750
Number of STORE Instructions (ROI): 78194750
Total Destination Memory Operands: 83268534
Total Destination Memory Operands (ROI): 83268534
Total Source Memory Operands: 164712438
Total Source Memory Operands (ROI): 164712438
Number of DEPENDED LOADS: 7052301
Number of DEPENDED LOADS (ROI): 7052301
Number of SQ_ADDED: 83268522
Number of SQ_ADDED (ROI): 83268522
Number of LQ_ADDED: 236618985
Number of LQ_ADDED (ROI): 236618985
Number of Instructions read from trace: 600000066

ChampSim completed all CPUs

Region of Interest Statistics

CPU 0 cumulative IPC: 0.339312 instructions: 500000000 cycles: 1473568868
ITLB TOTAL     ACCESS:  100529346  HIT:  100324900  MISS:     204446
ITLB LOAD      ACCESS:  100529346  HIT:  100324900  MISS:     204446
ITLB RFO       ACCESS:          0  HIT:          0  MISS:          0
ITLB PREFETCH  ACCESS:          0  HIT:          0  MISS:          0
ITLB WRITEBACK ACCESS:          0  HIT:          0  MISS:          0
ITLB PREFETCH  REQUESTED:          0  ISSUED:          0  USEFUL:          0  USELESS:          0
ITLB TOTAL MSHR MERGED:     172424
ITLB LOAD MSHR MERGED:     172424
ITLB RFO MSHR MERGED:          0
ITLB PREFETCH MSHR MERGED:          0
ITLB WRITEBACK MSHR MERGED:          0
ITLB TOTAL ACCESSES:  100701770 HITS:  100324900 MISSES:     376870
ITLB LOAD ACCESSES:  100701770 HITS:  100324900 MISSES:     376870
ITLB RFO ACCESSES:          0 HITS:          0 MISSES:          0
ITLB PREFETCH ACCESSES:          0 HITS:          0 MISSES:          0
ITLB WRITEBACK ACCESSES:          0 HITS:          0 MISSES:          0
ITLB RQ ACCESS:  500000057
ITLB RQ TO_CACHE:  100701770
ITLB RQ MERGED:  399298287
ITLB RQ FORWARD:          0
ITLB WQ ACCESS:          0
ITLB WQ TO_CACHE:          0
ITLB WQ MERGED:          0
ITLB WQ FORWARD:          0
DTLB TOTAL     ACCESS:  165357682  HIT:  164723331  MISS:     634351
DTLB LOAD      ACCESS:  106306591  HIT:  105736547  MISS:     570044
DTLB RFO       ACCESS:   59051091  HIT:   58986784  MISS:      64307
DTLB PREFETCH  ACCESS:          0  HIT:          0  MISS:          0
DTLB WRITEBACK ACCESS:          0  HIT:          0  MISS:          0
DTLB PREFETCH  REQUESTED:          0  ISSUED:          0  USEFUL:          0  USELESS:          0
DTLB TOTAL MSHR MERGED:      99488
DTLB LOAD MSHR MERGED:      59144
DTLB RFO MSHR MERGED:      40344
DTLB PREFETCH MSHR MERGED:          0
DTLB WRITEBACK MSHR MERGED:          0
DTLB TOTAL ACCESSES:  165457170 HITS:  164723331 MISSES:     733839
DTLB LOAD ACCESSES:  106365735 HITS:  105736547 MISSES:     629188
DTLB RFO ACCESSES:   59091435 HITS:   58986784 MISSES:     104651
DTLB PREFETCH ACCESSES:          0 HITS:          0 MISSES:          0
DTLB WRITEBACK ACCESSES:          0 HITS:          0 MISSES:          0
DTLB RQ ACCESS:  200318600
DTLB RQ TO_CACHE:  165457170
DTLB RQ MERGED:   34861430
DTLB RQ FORWARD:          0
DTLB WQ ACCESS:          0
DTLB WQ TO_CACHE:          0
DTLB WQ MERGED:          0
DTLB WQ FORWARD:          0
L1D TOTAL     ACCESS:  281892740  HIT:  273983251  MISS:    7909489
L1D LOAD      ACCESS:  110438036  HIT:  107159465  MISS:    3278571
L1D RFO       ACCESS:   67136449  HIT:   66246457  MISS:     889992
L1D PREFETCH  ACCESS:  104318255  HIT:  100577329  MISS:    3740926
L1D WRITEBACK ACCESS:          0  HIT:          0  MISS:          0
L1D PREFETCH  REQUESTED:  110837075  ISSUED:  109137583  USEFUL:    1661424  USELESS:    2079466
L1D TOTAL MSHR MERGED:    2858888
L1D LOAD MSHR MERGED:     497408
L1D RFO MSHR MERGED:    1849527
L1D PREFETCH MSHR MERGED:     511953
L1D WRITEBACK MSHR MERGED:          0
L1D TOTAL ACCESSES:  284779014 HITS:  274010637 MISSES:   10768377
L1D LOAD ACCESSES:  110838520 HITS:  107160910 MISSES:    3677610
L1D RFO ACCESSES:   68974678 HITS:   66246457 MISSES:    2728221
L1D PREFETCH ACCESSES:  104965816 HITS:  100603270 MISSES:    4362546
L1D WRITEBACK ACCESSES:          0 HITS:          0 MISSES:          0
L1D RQ ACCESS:  130765997
L1D RQ TO_CACHE:  110837078
L1D RQ MERGED:   19927474
L1D RQ FORWARD:          0
L1D WQ ACCESS:   69552603
L1D WQ TO_CACHE:   68974679
L1D WQ MERGED:     577924
L1D WQ FORWARD:      27386
L1I TOTAL     ACCESS:  126572539  HIT:  122334018  MISS:    4238521
L1I LOAD      ACCESS:  126572539  HIT:  122334018  MISS:    4238521
L1I RFO       ACCESS:          0  HIT:          0  MISS:          0
L1I PREFETCH  ACCESS:          0  HIT:          0  MISS:          0
L1I WRITEBACK ACCESS:          0  HIT:          0  MISS:          0
L1I PREFETCH  REQUESTED:          0  ISSUED:          0  USEFUL:          0  USELESS:          0
L1I TOTAL MSHR MERGED:    1839138
L1I LOAD MSHR MERGED:    1839138
L1I RFO MSHR MERGED:          0
L1I PREFETCH MSHR MERGED:          0
L1I WRITEBACK MSHR MERGED:          0
L1I TOTAL ACCESSES:  128411680 HITS:  122334018 MISSES:    6077662
L1I LOAD ACCESSES:  128411680 HITS:  122334018 MISSES:    6077662
L1I RFO ACCESSES:          0 HITS:          0 MISSES:          0
L1I PREFETCH ACCESSES:          0 HITS:          0 MISSES:          0
L1I WRITEBACK ACCESSES:          0 HITS:          0 MISSES:          0
L1I RQ ACCESS:  500000057
L1I RQ TO_CACHE:  128411680
L1I RQ MERGED:  371588377
L1I RQ FORWARD:          0
L1I WQ ACCESS:          0
L1I WQ TO_CACHE:          0
L1I WQ MERGED:          0
L1I WQ FORWARD:          0
L2C TOTAL     ACCESS:   14905668  HIT:   11159213  MISS:    3746455
L2C LOAD      ACCESS:    7418517  HIT:    5098724  MISS:    2319793
L2C RFO       ACCESS:     878599  HIT:     409948  MISS:     468651
L2C PREFETCH  ACCESS:    4569292  HIT:    3628542  MISS:     940750
L2C WRITEBACK ACCESS:    2039260  HIT:    2021999  MISS:      17261
L2C PREFETCH  REQUESTED:     842852  ISSUED:     842852  USEFUL:     203563  USELESS:     736894
L2C TOTAL MSHR MERGED:       6791
L2C LOAD MSHR MERGED:        726
L2C RFO MSHR MERGED:          0
L2C PREFETCH MSHR MERGED:       6065
L2C WRITEBACK MSHR MERGED:          0
L2C TOTAL ACCESSES:   14913365 HITS:   11159656 MISSES:    3753709
L2C LOAD ACCESSES:    7418723 HITS:    5098930 MISSES:    2319793
L2C RFO ACCESSES:     878694 HITS:     410043 MISSES:     468651
L2C PREFETCH ACCESSES:    4576688 HITS:    3628684 MISSES:     948004
L2C WRITEBACK ACCESSES:    2039260 HITS:    2021999 MISSES:      17261
L2C RQ ACCESS:    8297420
L2C RQ TO_CACHE:    8297119
L2C RQ MERGED:          0
L2C RQ FORWARD:          0
L2C WQ ACCESS:    2039260
L2C WQ TO_CACHE:    2039260
L2C WQ MERGED:          0
L2C WQ FORWARD:        443
LLC TOTAL     ACCESS:    4609806  HIT:    3245965  MISS:    1363841
LLC LOAD      ACCESS:    2319054  HIT:    1426277  MISS:     892777
LLC RFO       ACCESS:     468642  HIT:     419298  MISS:      49344
LLC PREFETCH  ACCESS:     941820  HIT:     598266  MISS:     343554
LLC WRITEBACK ACCESS:     880290  HIT:     802124  MISS:      78166
LLC PREFETCH  REQUESTED:          0  ISSUED:          0  USEFUL:      11563  USELESS:     330753
LLC TOTAL MSHR MERGED:        100
LLC LOAD MSHR MERGED:         36
LLC RFO MSHR MERGED:          0
LLC PREFETCH MSHR MERGED:         64
LLC WRITEBACK MSHR MERGED:          0
LLC TOTAL ACCESSES:    4609942 HITS:    3246001 MISSES:    1363941
LLC LOAD ACCESSES:    2319067 HITS:    1426290 MISSES:     892777
LLC RFO ACCESSES:     468651 HITS:     419307 MISSES:      49344
LLC PREFETCH ACCESSES:     941934 HITS:     598280 MISSES:     343654
LLC WRITEBACK ACCESSES:     880290 HITS:     802124 MISSES:      78166
LLC 0 RQ ACCESS:    2787718
LLC 0 RQ TO_CACHE:    2787696
LLC 0 RQ MERGED:          0
LLC 0 RQ FORWARD:          0
LLC WQ ACCESS:     880290
LLC WQ TO_CACHE:     880290
LLC WQ MERGED:          0
LLC WQ FORWARD:         36
Major fault: 0 Minor fault: 12862
CPU 0 L1D next line prefetcher final stats
CPU 0 L2C PC-based stride prefetcher final stats
All Misses: 1615277
All Hits: 3811535
SD Algo Stats - Switches: 0 SRR-Repls: 1034157 BRR-Repls: 0

DRAM Statistics
 CHANNEL 0
 RQ ROW_BUFFER_HIT:     382515  ROW_BUFFER_MISS:     900714
 DBUS_CONGESTED:     472866
 WQ ROW_BUFFER_HIT:       8041  ROW_BUFFER_MISS:     165018  FULL:          0

 AVG_CONGESTED_CYCLE: 13
LOADS RETIRED: 136549171
INSTR RETIRED: 500000000
