
*** ChampSim Multicore Out-of-Order Simulator ***

Warmup Instructions: 100000000
Simulation Instructions: 500000000
Number of CPUs: 1
LLC sets: 2048
LLC ways: 16
Clean RRIP Policies: 1102010111020101 Dirty RRIP Policies: 1122210111222101 PSEL Width: 10 Track Set: 4294967295 PSEL Mask: 1 Demote Mask: 23210400232104DS Algo: 0Window size: 0
Off-chip DRAM Size: 4096 MB Channels: 1 Width: 64-bit Data Rate: 1600 MT/s

CPU 0 runs /mnt/beegfs/iconst01/spec2017/Gcc.trace.gz
NOT SORTED
TRACE STRING: /mnt/beegfs/iconst01/spec2017/Gcc.trace.gz
SORTED
TRACE STRING: /mnt/beegfs/iconst01/spec2017/Gcc.trace.gz
INITIAL
TRACE STRING: /mnt/beegfs/iconst01/spec2017/Gcc.trace.gz

champsim_seed used: 269

CPU 0 L1D next line prefetcher
CPU 0 L2C IP-based stride prefetcher
Initialize DRRIP state
Assign rand_sets[0]: 454  LLC: 2048
rand_sets[0]: 454
Assign rand_sets[1]: 1662  LLC: 2048
rand_sets[1]: 1662
Assign rand_sets[2]: 1921  LLC: 2048
rand_sets[2]: 1921
Assign rand_sets[3]: 1131  LLC: 2048
rand_sets[3]: 1131
Assign rand_sets[4]: 331  LLC: 2048
rand_sets[4]: 331
Assign rand_sets[5]: 1531  LLC: 2048
rand_sets[5]: 1531
Assign rand_sets[6]: 482  LLC: 2048
rand_sets[6]: 482
Assign rand_sets[7]: 1275  LLC: 2048
rand_sets[7]: 1275
Assign rand_sets[8]: 1876  LLC: 2048
rand_sets[8]: 1876
Assign rand_sets[9]: 2038  LLC: 2048
rand_sets[9]: 2038
Assign rand_sets[10]: 701  LLC: 2048
rand_sets[10]: 701
Assign rand_sets[11]: 479  LLC: 2048
rand_sets[11]: 479
Assign rand_sets[12]: 892  LLC: 2048
rand_sets[12]: 892
Assign rand_sets[13]: 1820  LLC: 2048
rand_sets[13]: 1820
Assign rand_sets[14]: 1505  LLC: 2048
rand_sets[14]: 1505
Assign rand_sets[15]: 1159  LLC: 2048
rand_sets[15]: 1159
Assign rand_sets[16]: 513  LLC: 2048
rand_sets[16]: 513
Assign rand_sets[17]: 703  LLC: 2048
rand_sets[17]: 703
Assign rand_sets[18]: 561  LLC: 2048
rand_sets[18]: 561
Assign rand_sets[19]: 990  LLC: 2048
rand_sets[19]: 990
Assign rand_sets[20]: 342  LLC: 2048
rand_sets[20]: 342
Assign rand_sets[21]: 882  LLC: 2048
rand_sets[21]: 882
Assign rand_sets[22]: 15  LLC: 2048
rand_sets[22]: 15
Assign rand_sets[23]: 71  LLC: 2048
rand_sets[23]: 71
Assign rand_sets[24]: 1127  LLC: 2048
rand_sets[24]: 1127
Assign rand_sets[25]: 1382  LLC: 2048
rand_sets[25]: 1382
Assign rand_sets[26]: 647  LLC: 2048
rand_sets[26]: 647
Assign rand_sets[27]: 857  LLC: 2048
rand_sets[27]: 857
Assign rand_sets[28]: 1450  LLC: 2048
rand_sets[28]: 1450
Assign rand_sets[29]: 1160  LLC: 2048
rand_sets[29]: 1160
Assign rand_sets[30]: 1852  LLC: 2048
rand_sets[30]: 1852
Assign rand_sets[31]: 1881  LLC: 2048
rand_sets[31]: 1881
Assign rand_sets[32]: 1770  LLC: 2048
rand_sets[32]: 1770
Assign rand_sets[33]: 1622  LLC: 2048
rand_sets[33]: 1622
Assign rand_sets[34]: 275  LLC: 2048
rand_sets[34]: 275
Assign rand_sets[35]: 635  LLC: 2048
rand_sets[35]: 635
Assign rand_sets[36]: 466  LLC: 2048
rand_sets[36]: 466
Assign rand_sets[37]: 1413  LLC: 2048
rand_sets[37]: 1413
Assign rand_sets[38]: 417  LLC: 2048
rand_sets[38]: 417
Assign rand_sets[39]: 472  LLC: 2048
rand_sets[39]: 472
Assign rand_sets[40]: 1340  LLC: 2048
rand_sets[40]: 1340
Assign rand_sets[41]: 852  LLC: 2048
rand_sets[41]: 852
Assign rand_sets[42]: 1365  LLC: 2048
rand_sets[42]: 1365
Assign rand_sets[43]: 47  LLC: 2048
rand_sets[43]: 47
Assign rand_sets[44]: 823  LLC: 2048
rand_sets[44]: 823
Assign rand_sets[45]: 686  LLC: 2048
rand_sets[45]: 686
Assign rand_sets[46]: 1637  LLC: 2048
rand_sets[46]: 1637
Assign rand_sets[47]: 1115  LLC: 2048
rand_sets[47]: 1115
Assign rand_sets[48]: 986  LLC: 2048
rand_sets[48]: 986
Assign rand_sets[49]: 258  LLC: 2048
rand_sets[49]: 258
Assign rand_sets[50]: 633  LLC: 2048
rand_sets[50]: 633
Assign rand_sets[51]: 920  LLC: 2048
rand_sets[51]: 920
Assign rand_sets[52]: 204  LLC: 2048
rand_sets[52]: 204
Assign rand_sets[53]: 227  LLC: 2048
rand_sets[53]: 227
Assign rand_sets[54]: 1818  LLC: 2048
rand_sets[54]: 1818
Assign rand_sets[55]: 886  LLC: 2048
rand_sets[55]: 886
Assign rand_sets[56]: 1422  LLC: 2048
rand_sets[56]: 1422
Assign rand_sets[57]: 607  LLC: 2048
rand_sets[57]: 607
Assign rand_sets[58]: 217  LLC: 2048
rand_sets[58]: 217
Assign rand_sets[59]: 1945  LLC: 2048
rand_sets[59]: 1945
Assign rand_sets[60]: 143  LLC: 2048
rand_sets[60]: 143
Assign rand_sets[61]: 1311  LLC: 2048
rand_sets[61]: 1311
Assign rand_sets[62]: 319  LLC: 2048
rand_sets[62]: 319
Assign rand_sets[63]: 1846  LLC: 2048
rand_sets[63]: 1846
 CLEAN-RRIP-POLICY-1: 1-1-0-2-0-1-0-1- CLEAN-RRIP-POLICY-2: 1-1-0-2-0-1-0-1-
 DIRTY-RRIP-POLICY-1: 1-1-2-2-2-1-0-1- DIRTY-RRIP-POLICY-2: 1-1-2-2-2-1-0-1-
 PSEL width: 10
Heartbeat CPU 0 instructions: 10000001 cycles: 7315910 heartbeat IPC: 1.36688 cumulative IPC: 1.36688 (Simulation time: 0 hr 0 min 20 sec) 
Heartbeat CPU 0 instructions: 20000000 cycles: 14307453 heartbeat IPC: 1.4303 cumulative IPC: 1.39787 (Simulation time: 0 hr 0 min 40 sec) 
Heartbeat CPU 0 instructions: 30000001 cycles: 21020454 heartbeat IPC: 1.48965 cumulative IPC: 1.42718 (Simulation time: 0 hr 1 min 2 sec) 
Heartbeat CPU 0 instructions: 40000000 cycles: 27481271 heartbeat IPC: 1.54779 cumulative IPC: 1.45554 (Simulation time: 0 hr 1 min 24 sec) 
Heartbeat CPU 0 instructions: 50000001 cycles: 33583056 heartbeat IPC: 1.63886 cumulative IPC: 1.48885 (Simulation time: 0 hr 1 min 45 sec) 
Heartbeat CPU 0 instructions: 60000000 cycles: 40064273 heartbeat IPC: 1.54292 cumulative IPC: 1.49759 (Simulation time: 0 hr 2 min 7 sec) 
Heartbeat CPU 0 instructions: 70000000 cycles: 47102949 heartbeat IPC: 1.42072 cumulative IPC: 1.48611 (Simulation time: 0 hr 2 min 27 sec) 
Heartbeat CPU 0 instructions: 80000000 cycles: 54192742 heartbeat IPC: 1.41048 cumulative IPC: 1.47621 (Simulation time: 0 hr 2 min 47 sec) 
Heartbeat CPU 0 instructions: 90000003 cycles: 61197188 heartbeat IPC: 1.42767 cumulative IPC: 1.47066 (Simulation time: 0 hr 3 min 7 sec) 
Heartbeat CPU 0 instructions: 100000000 cycles: 68364448 heartbeat IPC: 1.39523 cumulative IPC: 1.46275 (Simulation time: 0 hr 3 min 27 sec) 

Warmup complete CPU 0 instructions: 100000004 cycles: 68364449 (Simulation time: 0 hr 3 min 27 sec) 

Heartbeat CPU 0 instructions: 110000003 cycles: 96022784 heartbeat IPC: 0.361555 cumulative IPC: 0.361555 (Simulation time: 0 hr 4 min 7 sec) 
Heartbeat CPU 0 instructions: 120000000 cycles: 123488734 heartbeat IPC: 0.364087 cumulative IPC: 0.362816 (Simulation time: 0 hr 4 min 48 sec) 
Heartbeat CPU 0 instructions: 130000000 cycles: 148501432 heartbeat IPC: 0.399797 cumulative IPC: 0.374359 (Simulation time: 0 hr 5 min 28 sec) 
Heartbeat CPU 0 instructions: 140000000 cycles: 178011977 heartbeat IPC: 0.338862 cumulative IPC: 0.364805 (Simulation time: 0 hr 6 min 8 sec) 
Heartbeat CPU 0 instructions: 150000000 cycles: 207877989 heartbeat IPC: 0.334829 cumulative IPC: 0.358388 (Simulation time: 0 hr 6 min 49 sec) 
Heartbeat CPU 0 instructions: 160000000 cycles: 235300068 heartbeat IPC: 0.36467 cumulative IPC: 0.35942 (Simulation time: 0 hr 7 min 28 sec) 
Heartbeat CPU 0 instructions: 170000001 cycles: 263335902 heartbeat IPC: 0.356686 cumulative IPC: 0.359027 (Simulation time: 0 hr 8 min 9 sec) 
Heartbeat CPU 0 instructions: 180000000 cycles: 291787857 heartbeat IPC: 0.35147 cumulative IPC: 0.358065 (Simulation time: 0 hr 8 min 51 sec) 
Heartbeat CPU 0 instructions: 190000002 cycles: 319825915 heartbeat IPC: 0.356658 cumulative IPC: 0.357908 (Simulation time: 0 hr 9 min 31 sec) 
Heartbeat CPU 0 instructions: 200000000 cycles: 348170566 heartbeat IPC: 0.3528 cumulative IPC: 0.35739 (Simulation time: 0 hr 10 min 12 sec) 
Heartbeat CPU 0 instructions: 210000002 cycles: 376033562 heartbeat IPC: 0.358899 cumulative IPC: 0.357527 (Simulation time: 0 hr 10 min 52 sec) 
Heartbeat CPU 0 instructions: 220000000 cycles: 405173651 heartbeat IPC: 0.34317 cumulative IPC: 0.356285 (Simulation time: 0 hr 11 min 31 sec) 
Heartbeat CPU 0 instructions: 230000000 cycles: 432722424 heartbeat IPC: 0.362993 cumulative IPC: 0.356792 (Simulation time: 0 hr 12 min 10 sec) 
Heartbeat CPU 0 instructions: 240000000 cycles: 458671755 heartbeat IPC: 0.385366 cumulative IPC: 0.358692 (Simulation time: 0 hr 12 min 49 sec) 
Heartbeat CPU 0 instructions: 250000000 cycles: 488822355 heartbeat IPC: 0.331668 cumulative IPC: 0.356754 (Simulation time: 0 hr 13 min 31 sec) 
Heartbeat CPU 0 instructions: 260000000 cycles: 515965546 heartbeat IPC: 0.368417 cumulative IPC: 0.357461 (Simulation time: 0 hr 14 min 10 sec) 
Heartbeat CPU 0 instructions: 270000003 cycles: 544417486 heartbeat IPC: 0.35147 cumulative IPC: 0.357103 (Simulation time: 0 hr 14 min 52 sec) 
Heartbeat CPU 0 instructions: 280000000 cycles: 572610448 heartbeat IPC: 0.354698 cumulative IPC: 0.356969 (Simulation time: 0 hr 15 min 34 sec) 
Heartbeat CPU 0 instructions: 290000000 cycles: 601503612 heartbeat IPC: 0.346103 cumulative IPC: 0.35638 (Simulation time: 0 hr 16 min 16 sec) 
Heartbeat CPU 0 instructions: 300000000 cycles: 631451260 heartbeat IPC: 0.333916 cumulative IPC: 0.355185 (Simulation time: 0 hr 16 min 56 sec) 
Heartbeat CPU 0 instructions: 310000001 cycles: 660827650 heartbeat IPC: 0.340409 cumulative IPC: 0.354452 (Simulation time: 0 hr 17 min 36 sec) 
Heartbeat CPU 0 instructions: 320000000 cycles: 689045533 heartbeat IPC: 0.354385 cumulative IPC: 0.354449 (Simulation time: 0 hr 18 min 15 sec) 
Heartbeat CPU 0 instructions: 330000000 cycles: 717700924 heartbeat IPC: 0.348974 cumulative IPC: 0.354208 (Simulation time: 0 hr 18 min 55 sec) 
Heartbeat CPU 0 instructions: 340000000 cycles: 746970975 heartbeat IPC: 0.341646 cumulative IPC: 0.353666 (Simulation time: 0 hr 19 min 35 sec) 
Heartbeat CPU 0 instructions: 350000003 cycles: 774025557 heartbeat IPC: 0.369623 cumulative IPC: 0.354278 (Simulation time: 0 hr 20 min 14 sec) 
Heartbeat CPU 0 instructions: 360000000 cycles: 802122592 heartbeat IPC: 0.355909 cumulative IPC: 0.35434 (Simulation time: 0 hr 20 min 52 sec) 
Heartbeat CPU 0 instructions: 370000000 cycles: 830270070 heartbeat IPC: 0.355272 cumulative IPC: 0.354375 (Simulation time: 0 hr 21 min 31 sec) 
Heartbeat CPU 0 instructions: 380000000 cycles: 858749397 heartbeat IPC: 0.351132 cumulative IPC: 0.354258 (Simulation time: 0 hr 22 min 9 sec) 
Heartbeat CPU 0 instructions: 390000001 cycles: 886324613 heartbeat IPC: 0.362645 cumulative IPC: 0.35454 (Simulation time: 0 hr 22 min 47 sec) 
Heartbeat CPU 0 instructions: 400000000 cycles: 914945023 heartbeat IPC: 0.349401 cumulative IPC: 0.354367 (Simulation time: 0 hr 23 min 25 sec) 
Heartbeat CPU 0 instructions: 410000001 cycles: 942204307 heartbeat IPC: 0.366848 cumulative IPC: 0.354756 (Simulation time: 0 hr 24 min 3 sec) 
Heartbeat CPU 0 instructions: 420000000 cycles: 969480559 heartbeat IPC: 0.366619 cumulative IPC: 0.355115 (Simulation time: 0 hr 24 min 41 sec) 
Heartbeat CPU 0 instructions: 430000002 cycles: 997137903 heartbeat IPC: 0.361568 cumulative IPC: 0.355307 (Simulation time: 0 hr 25 min 19 sec) 
Heartbeat CPU 0 instructions: 440000000 cycles: 1026671977 heartbeat IPC: 0.338592 cumulative IPC: 0.354792 (Simulation time: 0 hr 25 min 58 sec) 
Heartbeat CPU 0 instructions: 450000002 cycles: 1055913011 heartbeat IPC: 0.341985 cumulative IPC: 0.354413 (Simulation time: 0 hr 26 min 36 sec) 
Heartbeat CPU 0 instructions: 460000000 cycles: 1083572726 heartbeat IPC: 0.361537 cumulative IPC: 0.354607 (Simulation time: 0 hr 27 min 15 sec) 
Heartbeat CPU 0 instructions: 470000000 cycles: 1111168779 heartbeat IPC: 0.362371 cumulative IPC: 0.354812 (Simulation time: 0 hr 27 min 53 sec) 
Heartbeat CPU 0 instructions: 480000000 cycles: 1139022741 heartbeat IPC: 0.359015 cumulative IPC: 0.354922 (Simulation time: 0 hr 28 min 31 sec) 
Heartbeat CPU 0 instructions: 490000000 cycles: 1166579602 heartbeat IPC: 0.362886 cumulative IPC: 0.355122 (Simulation time: 0 hr 29 min 9 sec) 
Heartbeat CPU 0 instructions: 500000000 cycles: 1194859059 heartbeat IPC: 0.353614 cumulative IPC: 0.355084 (Simulation time: 0 hr 29 min 48 sec) 
Heartbeat CPU 0 instructions: 510000000 cycles: 1230358735 heartbeat IPC: 0.281693 cumulative IPC: 0.352842 (Simulation time: 0 hr 30 min 32 sec) 
Heartbeat CPU 0 instructions: 520000000 cycles: 1258300288 heartbeat IPC: 0.35789 cumulative IPC: 0.35296 (Simulation time: 0 hr 31 min 12 sec) 
Heartbeat CPU 0 instructions: 530000001 cycles: 1287642052 heartbeat IPC: 0.340811 cumulative IPC: 0.352668 (Simulation time: 0 hr 31 min 52 sec) 
Heartbeat CPU 0 instructions: 540000000 cycles: 1315695770 heartbeat IPC: 0.356459 cumulative IPC: 0.352753 (Simulation time: 0 hr 32 min 32 sec) 
Heartbeat CPU 0 instructions: 550000001 cycles: 1344888173 heartbeat IPC: 0.342555 cumulative IPC: 0.35252 (Simulation time: 0 hr 33 min 13 sec) 
Heartbeat CPU 0 instructions: 560000000 cycles: 1370288378 heartbeat IPC: 0.393698 cumulative IPC: 0.353323 (Simulation time: 0 hr 33 min 53 sec) 
Heartbeat CPU 0 instructions: 570000000 cycles: 1399801233 heartbeat IPC: 0.338835 cumulative IPC: 0.353002 (Simulation time: 0 hr 34 min 33 sec) 
Heartbeat CPU 0 instructions: 580000000 cycles: 1427739670 heartbeat IPC: 0.35793 cumulative IPC: 0.353103 (Simulation time: 0 hr 35 min 14 sec) 
Heartbeat CPU 0 instructions: 590000001 cycles: 1452496602 heartbeat IPC: 0.403927 cumulative IPC: 0.354012 (Simulation time: 0 hr 35 min 51 sec) 
Heartbeat CPU 0 instructions: 600000000 cycles: 1478568224 heartbeat IPC: 0.383559 cumulative IPC: 0.354559 (Simulation time: 0 hr 36 min 28 sec) 
Finished CPU 0 instructions: 500000000 cycles: 1410203797 cumulative IPC: 0.354559 (Simulation time: 0 hr 36 min 28 sec) 

CPU 0 Branch Prediction Accuracy: 86.4311% MPKI: 26.2662
Number of Branches: 96788573 Number of Mispredictions: 13133102
Number of LOAD Instructions: 164682285
Number of LOAD Instructions (ROI): 164682285
Number of STORE Instructions: 78194750
Number of STORE Instructions (ROI): 78194750
Total Destination Memory Operands: 83268534
Total Destination Memory Operands (ROI): 83268534
Total Source Memory Operands: 164712438
Total Source Memory Operands (ROI): 164712438
Number of DEPENDED LOADS: 7061070
Number of DEPENDED LOADS (ROI): 7061070
Number of SQ_ADDED: 83268522
Number of SQ_ADDED (ROI): 83268522
Number of LQ_ADDED: 236514644
Number of LQ_ADDED (ROI): 236514644
Number of Instructions read from trace: 600000066

ChampSim completed all CPUs

Region of Interest Statistics

CPU 0 cumulative IPC: 0.354559 instructions: 500000000 cycles: 1410203797
ITLB TOTAL     ACCESS:  100510259  HIT:  100305813  MISS:     204446
ITLB LOAD      ACCESS:  100510259  HIT:  100305813  MISS:     204446
ITLB RFO       ACCESS:          0  HIT:          0  MISS:          0
ITLB PREFETCH  ACCESS:          0  HIT:          0  MISS:          0
ITLB WRITEBACK ACCESS:          0  HIT:          0  MISS:          0
ITLB PREFETCH  REQUESTED:          0  ISSUED:          0  USEFUL:          0  USELESS:          0
ITLB TOTAL MSHR MERGED:     172424
ITLB LOAD MSHR MERGED:     172424
ITLB RFO MSHR MERGED:          0
ITLB PREFETCH MSHR MERGED:          0
ITLB WRITEBACK MSHR MERGED:          0
ITLB TOTAL ACCESSES:  100682683 HITS:  100305813 MISSES:     376870
ITLB LOAD ACCESSES:  100682683 HITS:  100305813 MISSES:     376870
ITLB RFO ACCESSES:          0 HITS:          0 MISSES:          0
ITLB PREFETCH ACCESSES:          0 HITS:          0 MISSES:          0
ITLB WRITEBACK ACCESSES:          0 HITS:          0 MISSES:          0
ITLB RQ ACCESS:  500000057
ITLB RQ TO_CACHE:  100682683
ITLB RQ MERGED:  399317374
ITLB RQ FORWARD:          0
ITLB WQ ACCESS:          0
ITLB WQ TO_CACHE:          0
ITLB WQ MERGED:          0
ITLB WQ FORWARD:          0
DTLB TOTAL     ACCESS:  165335469  HIT:  164701125  MISS:     634344
DTLB LOAD      ACCESS:  106291459  HIT:  105721470  MISS:     569989
DTLB RFO       ACCESS:   59044010  HIT:   58979655  MISS:      64355
DTLB PREFETCH  ACCESS:          0  HIT:          0  MISS:          0
DTLB WRITEBACK ACCESS:          0  HIT:          0  MISS:          0
DTLB PREFETCH  REQUESTED:          0  ISSUED:          0  USEFUL:          0  USELESS:          0
DTLB TOTAL MSHR MERGED:      99987
DTLB LOAD MSHR MERGED:      59454
DTLB RFO MSHR MERGED:      40533
DTLB PREFETCH MSHR MERGED:          0
DTLB WRITEBACK MSHR MERGED:          0
DTLB TOTAL ACCESSES:  165435456 HITS:  164701125 MISSES:     734331
DTLB LOAD ACCESSES:  106350913 HITS:  105721470 MISSES:     629443
DTLB RFO ACCESSES:   59084543 HITS:   58979655 MISSES:     104888
DTLB PREFETCH ACCESSES:          0 HITS:          0 MISSES:          0
DTLB WRITEBACK ACCESSES:          0 HITS:          0 MISSES:          0
DTLB RQ ACCESS:  200309858
DTLB RQ TO_CACHE:  165435456
DTLB RQ MERGED:   34874402
DTLB RQ FORWARD:          0
DTLB WQ ACCESS:          0
DTLB WQ TO_CACHE:          0
DTLB WQ MERGED:          0
DTLB WQ FORWARD:          0
L1D TOTAL     ACCESS:  281851023  HIT:  273941643  MISS:    7909380
L1D LOAD      ACCESS:  110427165  HIT:  107152470  MISS:    3274695
L1D RFO       ACCESS:   67109543  HIT:   66218595  MISS:     890948
L1D PREFETCH  ACCESS:  104314315  HIT:  100570578  MISS:    3743737
L1D WRITEBACK ACCESS:          0  HIT:          0  MISS:          0
L1D PREFETCH  REQUESTED:  110815020  ISSUED:  109115712  USEFUL:    1664459  USELESS:    2079242
L1D TOTAL MSHR MERGED:    2849659
L1D LOAD MSHR MERGED:     482039
L1D RFO MSHR MERGED:    1876742
L1D PREFETCH MSHR MERGED:     490878
L1D WRITEBACK MSHR MERGED:          0
L1D TOTAL ACCESSES:  284728157 HITS:  273969118 MISSES:   10759039
L1D LOAD ACCESSES:  110816506 HITS:  107153956 MISSES:    3662550
L1D RFO ACCESSES:   68974128 HITS:   66218595 MISSES:    2755533
L1D PREFETCH ACCESSES:  104937523 HITS:  100596567 MISSES:    4340956
L1D WRITEBACK ACCESSES:          0 HITS:          0 MISSES:          0
L1D RQ ACCESS:  130757255
L1D RQ TO_CACHE:  110815023
L1D RQ MERGED:   19940746
L1D RQ FORWARD:          0
L1D WQ ACCESS:   69552603
L1D WQ TO_CACHE:   68974129
L1D WQ MERGED:     578474
L1D WQ FORWARD:      27475
L1I TOTAL     ACCESS:  126557874  HIT:  122319321  MISS:    4238553
L1I LOAD      ACCESS:  126557874  HIT:  122319321  MISS:    4238553
L1I RFO       ACCESS:          0  HIT:          0  MISS:          0
L1I PREFETCH  ACCESS:          0  HIT:          0  MISS:          0
L1I WRITEBACK ACCESS:          0  HIT:          0  MISS:          0
L1I PREFETCH  REQUESTED:          0  ISSUED:          0  USEFUL:          0  USELESS:          0
L1I TOTAL MSHR MERGED:    1834552
L1I LOAD MSHR MERGED:    1834552
L1I RFO MSHR MERGED:          0
L1I PREFETCH MSHR MERGED:          0
L1I WRITEBACK MSHR MERGED:          0
L1I TOTAL ACCESSES:  128392429 HITS:  122319321 MISSES:    6073108
L1I LOAD ACCESSES:  128392429 HITS:  122319321 MISSES:    6073108
L1I RFO ACCESSES:          0 HITS:          0 MISSES:          0
L1I PREFETCH ACCESSES:          0 HITS:          0 MISSES:          0
L1I WRITEBACK ACCESSES:          0 HITS:          0 MISSES:          0
L1I RQ ACCESS:  500000057
L1I RQ TO_CACHE:  128392429
L1I RQ MERGED:  371607628
L1I RQ FORWARD:          0
L1I WQ ACCESS:          0
L1I WQ TO_CACHE:          0
L1I WQ MERGED:          0
L1I WQ FORWARD:          0
L2C TOTAL     ACCESS:   14905361  HIT:   11158841  MISS:    3746520
L2C LOAD      ACCESS:    7418856  HIT:    5098826  MISS:    2320030
L2C RFO       ACCESS:     878692  HIT:     409900  MISS:     468792
L2C PREFETCH  ACCESS:    4568567  HIT:    3628129  MISS:     940438
L2C WRITEBACK ACCESS:    2039246  HIT:    2021986  MISS:      17260
L2C PREFETCH  REQUESTED:     842657  ISSUED:     842657  USEFUL:     203355  USELESS:     736789
L2C TOTAL MSHR MERGED:       6948
L2C LOAD MSHR MERGED:        803
L2C RFO MSHR MERGED:          0
L2C PREFETCH MSHR MERGED:       6145
L2C WRITEBACK MSHR MERGED:          0
L2C TOTAL ACCESSES:   14913163 HITS:   11159294 MISSES:    3753869
L2C LOAD ACCESSES:    7419064 HITS:    5099034 MISSES:    2320030
L2C RFO ACCESSES:     878791 HITS:     409999 MISSES:     468792
L2C PREFETCH ACCESSES:    4576062 HITS:    3628275 MISSES:     947787
L2C WRITEBACK ACCESSES:    2039246 HITS:    2021986 MISSES:      17260
L2C RQ ACCESS:    8297858
L2C RQ TO_CACHE:    8297551
L2C RQ MERGED:          0
L2C RQ FORWARD:          0
L2C WQ ACCESS:    2039246
L2C WQ TO_CACHE:    2039246
L2C WQ MERGED:          0
L2C WQ FORWARD:        453
LLC TOTAL     ACCESS:    4609831  HIT:    4001647  MISS:     608184
LLC LOAD      ACCESS:    2319215  HIT:    2068048  MISS:     251167
LLC RFO       ACCESS:     468782  HIT:     389823  MISS:      78959
LLC PREFETCH  ACCESS:     941534  HIT:     703115  MISS:     238419
LLC WRITEBACK ACCESS:     880300  HIT:     840661  MISS:      39639
LLC PREFETCH  REQUESTED:          0  ISSUED:          0  USEFUL:      27254  USELESS:     211843
LLC TOTAL MSHR MERGED:         86
LLC LOAD MSHR MERGED:         29
LLC RFO MSHR MERGED:          0
LLC PREFETCH MSHR MERGED:         57
LLC WRITEBACK MSHR MERGED:          0
LLC TOTAL ACCESSES:    4609951 HITS:    4001681 MISSES:     608270
LLC LOAD ACCESSES:    2319227 HITS:    2068060 MISSES:     251167
LLC RFO ACCESSES:     468792 HITS:     389833 MISSES:      78959
LLC PREFETCH ACCESSES:     941632 HITS:     703127 MISSES:     238505
LLC WRITEBACK ACCESSES:     880300 HITS:     840661 MISSES:      39639
LLC 0 RQ ACCESS:    2788019
LLC 0 RQ TO_CACHE:    2787997
LLC 0 RQ MERGED:          0
LLC 0 RQ FORWARD:          0
LLC WQ ACCESS:     880300
LLC WQ TO_CACHE:     880300
LLC WQ MERGED:          0
LLC WQ FORWARD:         34
Major fault: 0 Minor fault: 12862
CPU 0 L1D next line prefetcher final stats
CPU 0 L2C PC-based stride prefetcher final stats
All Misses: 717495
All Hits: 4709342
SD Algo Stats - Switches: 0 SRR-Repls: 294411 BRR-Repls: 0

DRAM Statistics
 CHANNEL 0
 RQ ROW_BUFFER_HIT:     114956  ROW_BUFFER_MISS:     451961
 DBUS_CONGESTED:     401632
 WQ ROW_BUFFER_HIT:      21885  ROW_BUFFER_MISS:     217330  FULL:          0

 AVG_CONGESTED_CYCLE: 13
LOADS RETIRED: 136549171
INSTR RETIRED: 500000000
