
*** ChampSim Multicore Out-of-Order Simulator ***

Warmup Instructions: 100000000
Simulation Instructions: 500000000
Number of CPUs: 1
LLC sets: 2048
LLC ways: 16
Clean RRIP Policies: 2213130222131302 Dirty RRIP Policies: 2203130222031302 PSEL Width: 10 Track Set: 4294967295 PSEL Mask: 1 Demote Mask: 4040100040401000DS Algo: 0Window size: 0
Off-chip DRAM Size: 4096 MB Channels: 1 Width: 64-bit Data Rate: 1600 MT/s

CPU 0 runs /mnt/beegfs/iconst01/spec2017/Cam4.trace.gz
NOT SORTED
TRACE STRING: /mnt/beegfs/iconst01/spec2017/Cam4.trace.gz
SORTED
TRACE STRING: /mnt/beegfs/iconst01/spec2017/Cam4.trace.gz
INITIAL
TRACE STRING: /mnt/beegfs/iconst01/spec2017/Cam4.trace.gz

champsim_seed used: 325

CPU 0 L1D next line prefetcher
CPU 0 L2C IP-based stride prefetcher
Initialize DRRIP state
Assign rand_sets[0]: 454  LLC: 2048
rand_sets[0]: 454
Assign rand_sets[1]: 1662  LLC: 2048
rand_sets[1]: 1662
Assign rand_sets[2]: 1921  LLC: 2048
rand_sets[2]: 1921
Assign rand_sets[3]: 1131  LLC: 2048
rand_sets[3]: 1131
Assign rand_sets[4]: 331  LLC: 2048
rand_sets[4]: 331
Assign rand_sets[5]: 1531  LLC: 2048
rand_sets[5]: 1531
Assign rand_sets[6]: 482  LLC: 2048
rand_sets[6]: 482
Assign rand_sets[7]: 1275  LLC: 2048
rand_sets[7]: 1275
Assign rand_sets[8]: 1876  LLC: 2048
rand_sets[8]: 1876
Assign rand_sets[9]: 2038  LLC: 2048
rand_sets[9]: 2038
Assign rand_sets[10]: 701  LLC: 2048
rand_sets[10]: 701
Assign rand_sets[11]: 479  LLC: 2048
rand_sets[11]: 479
Assign rand_sets[12]: 892  LLC: 2048
rand_sets[12]: 892
Assign rand_sets[13]: 1820  LLC: 2048
rand_sets[13]: 1820
Assign rand_sets[14]: 1505  LLC: 2048
rand_sets[14]: 1505
Assign rand_sets[15]: 1159  LLC: 2048
rand_sets[15]: 1159
Assign rand_sets[16]: 513  LLC: 2048
rand_sets[16]: 513
Assign rand_sets[17]: 703  LLC: 2048
rand_sets[17]: 703
Assign rand_sets[18]: 561  LLC: 2048
rand_sets[18]: 561
Assign rand_sets[19]: 990  LLC: 2048
rand_sets[19]: 990
Assign rand_sets[20]: 342  LLC: 2048
rand_sets[20]: 342
Assign rand_sets[21]: 882  LLC: 2048
rand_sets[21]: 882
Assign rand_sets[22]: 15  LLC: 2048
rand_sets[22]: 15
Assign rand_sets[23]: 71  LLC: 2048
rand_sets[23]: 71
Assign rand_sets[24]: 1127  LLC: 2048
rand_sets[24]: 1127
Assign rand_sets[25]: 1382  LLC: 2048
rand_sets[25]: 1382
Assign rand_sets[26]: 647  LLC: 2048
rand_sets[26]: 647
Assign rand_sets[27]: 857  LLC: 2048
rand_sets[27]: 857
Assign rand_sets[28]: 1450  LLC: 2048
rand_sets[28]: 1450
Assign rand_sets[29]: 1160  LLC: 2048
rand_sets[29]: 1160
Assign rand_sets[30]: 1852  LLC: 2048
rand_sets[30]: 1852
Assign rand_sets[31]: 1881  LLC: 2048
rand_sets[31]: 1881
Assign rand_sets[32]: 1770  LLC: 2048
rand_sets[32]: 1770
Assign rand_sets[33]: 1622  LLC: 2048
rand_sets[33]: 1622
Assign rand_sets[34]: 275  LLC: 2048
rand_sets[34]: 275
Assign rand_sets[35]: 635  LLC: 2048
rand_sets[35]: 635
Assign rand_sets[36]: 466  LLC: 2048
rand_sets[36]: 466
Assign rand_sets[37]: 1413  LLC: 2048
rand_sets[37]: 1413
Assign rand_sets[38]: 417  LLC: 2048
rand_sets[38]: 417
Assign rand_sets[39]: 472  LLC: 2048
rand_sets[39]: 472
Assign rand_sets[40]: 1340  LLC: 2048
rand_sets[40]: 1340
Assign rand_sets[41]: 852  LLC: 2048
rand_sets[41]: 852
Assign rand_sets[42]: 1365  LLC: 2048
rand_sets[42]: 1365
Assign rand_sets[43]: 47  LLC: 2048
rand_sets[43]: 47
Assign rand_sets[44]: 823  LLC: 2048
rand_sets[44]: 823
Assign rand_sets[45]: 686  LLC: 2048
rand_sets[45]: 686
Assign rand_sets[46]: 1637  LLC: 2048
rand_sets[46]: 1637
Assign rand_sets[47]: 1115  LLC: 2048
rand_sets[47]: 1115
Assign rand_sets[48]: 986  LLC: 2048
rand_sets[48]: 986
Assign rand_sets[49]: 258  LLC: 2048
rand_sets[49]: 258
Assign rand_sets[50]: 633  LLC: 2048
rand_sets[50]: 633
Assign rand_sets[51]: 920  LLC: 2048
rand_sets[51]: 920
Assign rand_sets[52]: 204  LLC: 2048
rand_sets[52]: 204
Assign rand_sets[53]: 227  LLC: 2048
rand_sets[53]: 227
Assign rand_sets[54]: 1818  LLC: 2048
rand_sets[54]: 1818
Assign rand_sets[55]: 886  LLC: 2048
rand_sets[55]: 886
Assign rand_sets[56]: 1422  LLC: 2048
rand_sets[56]: 1422
Assign rand_sets[57]: 607  LLC: 2048
rand_sets[57]: 607
Assign rand_sets[58]: 217  LLC: 2048
rand_sets[58]: 217
Assign rand_sets[59]: 1945  LLC: 2048
rand_sets[59]: 1945
Assign rand_sets[60]: 143  LLC: 2048
rand_sets[60]: 143
Assign rand_sets[61]: 1311  LLC: 2048
rand_sets[61]: 1311
Assign rand_sets[62]: 319  LLC: 2048
rand_sets[62]: 319
Assign rand_sets[63]: 1846  LLC: 2048
rand_sets[63]: 1846
 CLEAN-RRIP-POLICY-1: 2-2-1-3-1-3-0-2- CLEAN-RRIP-POLICY-2: 2-2-1-3-1-3-0-2-
 DIRTY-RRIP-POLICY-1: 2-2-0-3-1-3-0-2- DIRTY-RRIP-POLICY-2: 2-2-0-3-1-3-0-2-
 PSEL width: 10
Heartbeat CPU 0 instructions: 10000000 cycles: 4859184 heartbeat IPC: 2.05796 cumulative IPC: 2.05796 (Simulation time: 0 hr 0 min 17 sec) 
Heartbeat CPU 0 instructions: 20000000 cycles: 9790786 heartbeat IPC: 2.02774 cumulative IPC: 2.04274 (Simulation time: 0 hr 0 min 34 sec) 
Heartbeat CPU 0 instructions: 30000001 cycles: 14562963 heartbeat IPC: 2.09548 cumulative IPC: 2.06002 (Simulation time: 0 hr 0 min 49 sec) 
Heartbeat CPU 0 instructions: 40000000 cycles: 19399957 heartbeat IPC: 2.0674 cumulative IPC: 2.06186 (Simulation time: 0 hr 1 min 6 sec) 
Heartbeat CPU 0 instructions: 50000000 cycles: 24256470 heartbeat IPC: 2.05909 cumulative IPC: 2.06131 (Simulation time: 0 hr 1 min 23 sec) 
Heartbeat CPU 0 instructions: 60000000 cycles: 29181899 heartbeat IPC: 2.03028 cumulative IPC: 2.05607 (Simulation time: 0 hr 1 min 40 sec) 
Heartbeat CPU 0 instructions: 70000001 cycles: 33956954 heartbeat IPC: 2.09422 cumulative IPC: 2.06143 (Simulation time: 0 hr 1 min 55 sec) 
Heartbeat CPU 0 instructions: 80000000 cycles: 38793204 heartbeat IPC: 2.06772 cumulative IPC: 2.06222 (Simulation time: 0 hr 2 min 13 sec) 
Heartbeat CPU 0 instructions: 90000002 cycles: 43647253 heartbeat IPC: 2.06014 cumulative IPC: 2.06199 (Simulation time: 0 hr 2 min 30 sec) 
Heartbeat CPU 0 instructions: 100000000 cycles: 48566042 heartbeat IPC: 2.03302 cumulative IPC: 2.05905 (Simulation time: 0 hr 2 min 47 sec) 

Warmup complete CPU 0 instructions: 100000001 cycles: 48566043 (Simulation time: 0 hr 2 min 47 sec) 

Heartbeat CPU 0 instructions: 110000000 cycles: 61678728 heartbeat IPC: 0.76262 cumulative IPC: 0.76262 (Simulation time: 0 hr 3 min 11 sec) 
Heartbeat CPU 0 instructions: 120000000 cycles: 75429905 heartbeat IPC: 0.72721 cumulative IPC: 0.744495 (Simulation time: 0 hr 3 min 36 sec) 
Heartbeat CPU 0 instructions: 130000000 cycles: 89177286 heartbeat IPC: 0.727411 cumulative IPC: 0.738712 (Simulation time: 0 hr 4 min 2 sec) 
Heartbeat CPU 0 instructions: 140000000 cycles: 103436358 heartbeat IPC: 0.701308 cumulative IPC: 0.728992 (Simulation time: 0 hr 4 min 28 sec) 
Heartbeat CPU 0 instructions: 150000003 cycles: 116632088 heartbeat IPC: 0.757821 cumulative IPC: 0.734581 (Simulation time: 0 hr 4 min 52 sec) 
Heartbeat CPU 0 instructions: 160000000 cycles: 130377477 heartbeat IPC: 0.727516 cumulative IPC: 0.733394 (Simulation time: 0 hr 5 min 17 sec) 
Heartbeat CPU 0 instructions: 170000001 cycles: 144157389 heartbeat IPC: 0.725694 cumulative IPC: 0.732284 (Simulation time: 0 hr 5 min 43 sec) 
Heartbeat CPU 0 instructions: 180000000 cycles: 158397342 heartbeat IPC: 0.702249 cumulative IPC: 0.72839 (Simulation time: 0 hr 6 min 9 sec) 
Heartbeat CPU 0 instructions: 190000003 cycles: 171566919 heartbeat IPC: 0.759326 cumulative IPC: 0.731702 (Simulation time: 0 hr 6 min 33 sec) 
Heartbeat CPU 0 instructions: 200000000 cycles: 185305629 heartbeat IPC: 0.72787 cumulative IPC: 0.731317 (Simulation time: 0 hr 6 min 58 sec) 
Heartbeat CPU 0 instructions: 210000002 cycles: 199086995 heartbeat IPC: 0.725618 cumulative IPC: 0.730795 (Simulation time: 0 hr 7 min 24 sec) 
Heartbeat CPU 0 instructions: 220000000 cycles: 213329914 heartbeat IPC: 0.702103 cumulative IPC: 0.728315 (Simulation time: 0 hr 7 min 50 sec) 
Heartbeat CPU 0 instructions: 230000001 cycles: 226444358 heartbeat IPC: 0.762518 cumulative IPC: 0.730837 (Simulation time: 0 hr 8 min 14 sec) 
Heartbeat CPU 0 instructions: 240000000 cycles: 240174554 heartbeat IPC: 0.728322 cumulative IPC: 0.730656 (Simulation time: 0 hr 8 min 39 sec) 
Heartbeat CPU 0 instructions: 250000001 cycles: 253906300 heartbeat IPC: 0.72824 cumulative IPC: 0.730495 (Simulation time: 0 hr 9 min 5 sec) 
Heartbeat CPU 0 instructions: 260000000 cycles: 268043699 heartbeat IPC: 0.707344 cumulative IPC: 0.729004 (Simulation time: 0 hr 9 min 31 sec) 
Heartbeat CPU 0 instructions: 270000003 cycles: 281276046 heartbeat IPC: 0.755724 cumulative IPC: 0.730523 (Simulation time: 0 hr 9 min 54 sec) 
Heartbeat CPU 0 instructions: 280000000 cycles: 295022091 heartbeat IPC: 0.727482 cumulative IPC: 0.730353 (Simulation time: 0 hr 10 min 20 sec) 
Heartbeat CPU 0 instructions: 290000001 cycles: 308796736 heartbeat IPC: 0.725972 cumulative IPC: 0.730121 (Simulation time: 0 hr 10 min 46 sec) 
Heartbeat CPU 0 instructions: 300000000 cycles: 322881792 heartbeat IPC: 0.709972 cumulative IPC: 0.729087 (Simulation time: 0 hr 11 min 12 sec) 
Heartbeat CPU 0 instructions: 310000000 cycles: 336123536 heartbeat IPC: 0.755188 cumulative IPC: 0.730289 (Simulation time: 0 hr 11 min 35 sec) 
Heartbeat CPU 0 instructions: 320000000 cycles: 349911672 heartbeat IPC: 0.725261 cumulative IPC: 0.730059 (Simulation time: 0 hr 12 min 1 sec) 
Heartbeat CPU 0 instructions: 330000000 cycles: 363702074 heartbeat IPC: 0.725142 cumulative IPC: 0.729844 (Simulation time: 0 hr 12 min 26 sec) 
Heartbeat CPU 0 instructions: 340000000 cycles: 377759711 heartbeat IPC: 0.711357 cumulative IPC: 0.729054 (Simulation time: 0 hr 12 min 52 sec) 
Heartbeat CPU 0 instructions: 350000000 cycles: 391035316 heartbeat IPC: 0.753261 cumulative IPC: 0.729993 (Simulation time: 0 hr 13 min 15 sec) 
Heartbeat CPU 0 instructions: 360000000 cycles: 404857094 heartbeat IPC: 0.723496 cumulative IPC: 0.72974 (Simulation time: 0 hr 13 min 40 sec) 
Heartbeat CPU 0 instructions: 370000003 cycles: 418651004 heartbeat IPC: 0.724958 cumulative IPC: 0.729562 (Simulation time: 0 hr 14 min 5 sec) 
Heartbeat CPU 0 instructions: 380000000 cycles: 432676349 heartbeat IPC: 0.712995 cumulative IPC: 0.728957 (Simulation time: 0 hr 14 min 31 sec) 
Heartbeat CPU 0 instructions: 390000003 cycles: 445949699 heartbeat IPC: 0.75339 cumulative IPC: 0.729773 (Simulation time: 0 hr 14 min 53 sec) 
Heartbeat CPU 0 instructions: 400000000 cycles: 459758505 heartbeat IPC: 0.724175 cumulative IPC: 0.729585 (Simulation time: 0 hr 15 min 19 sec) 
Heartbeat CPU 0 instructions: 410000000 cycles: 473522876 heartbeat IPC: 0.726513 cumulative IPC: 0.729486 (Simulation time: 0 hr 15 min 44 sec) 
Heartbeat CPU 0 instructions: 420000000 cycles: 487533540 heartbeat IPC: 0.713742 cumulative IPC: 0.728983 (Simulation time: 0 hr 16 min 9 sec) 
Heartbeat CPU 0 instructions: 430000003 cycles: 500838762 heartbeat IPC: 0.751585 cumulative IPC: 0.729648 (Simulation time: 0 hr 16 min 32 sec) 
Heartbeat CPU 0 instructions: 440000000 cycles: 514648234 heartbeat IPC: 0.72414 cumulative IPC: 0.729485 (Simulation time: 0 hr 16 min 57 sec) 
Heartbeat CPU 0 instructions: 450000000 cycles: 528426620 heartbeat IPC: 0.725774 cumulative IPC: 0.729379 (Simulation time: 0 hr 17 min 22 sec) 
Heartbeat CPU 0 instructions: 460000000 cycles: 542420815 heartbeat IPC: 0.714582 cumulative IPC: 0.728959 (Simulation time: 0 hr 17 min 47 sec) 
Heartbeat CPU 0 instructions: 470000001 cycles: 555698613 heartbeat IPC: 0.753137 cumulative IPC: 0.729592 (Simulation time: 0 hr 18 min 9 sec) 
Heartbeat CPU 0 instructions: 480000000 cycles: 569479832 heartbeat IPC: 0.725625 cumulative IPC: 0.729487 (Simulation time: 0 hr 18 min 34 sec) 
Heartbeat CPU 0 instructions: 490000002 cycles: 583232635 heartbeat IPC: 0.727125 cumulative IPC: 0.729427 (Simulation time: 0 hr 18 min 59 sec) 
Heartbeat CPU 0 instructions: 500000000 cycles: 597224084 heartbeat IPC: 0.714722 cumulative IPC: 0.729052 (Simulation time: 0 hr 19 min 24 sec) 
Heartbeat CPU 0 instructions: 510000002 cycles: 610591104 heartbeat IPC: 0.74811 cumulative IPC: 0.729505 (Simulation time: 0 hr 19 min 46 sec) 
Heartbeat CPU 0 instructions: 520000000 cycles: 624359553 heartbeat IPC: 0.726298 cumulative IPC: 0.729428 (Simulation time: 0 hr 20 min 11 sec) 
Heartbeat CPU 0 instructions: 530000003 cycles: 638095794 heartbeat IPC: 0.728001 cumulative IPC: 0.729395 (Simulation time: 0 hr 20 min 36 sec) 
Heartbeat CPU 0 instructions: 540000000 cycles: 652108181 heartbeat IPC: 0.713654 cumulative IPC: 0.729029 (Simulation time: 0 hr 21 min 1 sec) 
Heartbeat CPU 0 instructions: 550000003 cycles: 665448251 heartbeat IPC: 0.749621 cumulative IPC: 0.729475 (Simulation time: 0 hr 21 min 24 sec) 
Heartbeat CPU 0 instructions: 560000000 cycles: 679197412 heartbeat IPC: 0.727317 cumulative IPC: 0.729428 (Simulation time: 0 hr 21 min 48 sec) 
Heartbeat CPU 0 instructions: 570000001 cycles: 692959581 heartbeat IPC: 0.72663 cumulative IPC: 0.729368 (Simulation time: 0 hr 22 min 13 sec) 
Heartbeat CPU 0 instructions: 580000000 cycles: 706993272 heartbeat IPC: 0.712571 cumulative IPC: 0.72901 (Simulation time: 0 hr 22 min 38 sec) 
Heartbeat CPU 0 instructions: 590000000 cycles: 720276513 heartbeat IPC: 0.752828 cumulative IPC: 0.729481 (Simulation time: 0 hr 23 min 1 sec) 
Heartbeat CPU 0 instructions: 600000000 cycles: 734028247 heartbeat IPC: 0.727181 cumulative IPC: 0.729435 (Simulation time: 0 hr 23 min 25 sec) 
Finished CPU 0 instructions: 500000001 cycles: 685462212 cumulative IPC: 0.729435 (Simulation time: 0 hr 23 min 25 sec) 

CPU 0 Branch Prediction Accuracy: 97.5275% MPKI: 2.1997
Number of Branches: 44482865 Number of Mispredictions: 1099852
Number of LOAD Instructions: 144955155
Number of LOAD Instructions (ROI): 144955155
Number of STORE Instructions: 55921098
Number of STORE Instructions (ROI): 55921098
Total Destination Memory Operands: 57111147
Total Destination Memory Operands (ROI): 57111147
Total Source Memory Operands: 144955155
Total Source Memory Operands (ROI): 144955155
Number of DEPENDED LOADS: 13454864
Number of DEPENDED LOADS (ROI): 13454864
Number of SQ_ADDED: 57111126
Number of SQ_ADDED (ROI): 57111126
Number of LQ_ADDED: 174263695
Number of LQ_ADDED (ROI): 174263695
Number of Instructions read from trace: 600000256

ChampSim completed all CPUs

Region of Interest Statistics

CPU 0 cumulative IPC: 0.729435 instructions: 500000001 cycles: 685462212
ITLB TOTAL     ACCESS:  136063799  HIT:  136061246  MISS:       2553
ITLB LOAD      ACCESS:  136063799  HIT:  136061246  MISS:       2553
ITLB RFO       ACCESS:          0  HIT:          0  MISS:          0
ITLB PREFETCH  ACCESS:          0  HIT:          0  MISS:          0
ITLB WRITEBACK ACCESS:          0  HIT:          0  MISS:          0
ITLB PREFETCH  REQUESTED:          0  ISSUED:          0  USEFUL:          0  USELESS:          0
ITLB TOTAL MSHR MERGED:       4370
ITLB LOAD MSHR MERGED:       4370
ITLB RFO MSHR MERGED:          0
ITLB PREFETCH MSHR MERGED:          0
ITLB WRITEBACK MSHR MERGED:          0
ITLB TOTAL ACCESSES:  136068169 HITS:  136061246 MISSES:       6923
ITLB LOAD ACCESSES:  136068169 HITS:  136061246 MISSES:       6923
ITLB RFO ACCESSES:          0 HITS:          0 MISSES:          0
ITLB PREFETCH ACCESSES:          0 HITS:          0 MISSES:          0
ITLB WRITEBACK ACCESSES:          0 HITS:          0 MISSES:          0
ITLB RQ ACCESS:  500000202
ITLB RQ TO_CACHE:  136068169
ITLB RQ MERGED:  363932033
ITLB RQ FORWARD:          0
ITLB WQ ACCESS:          0
ITLB WQ TO_CACHE:          0
ITLB WQ MERGED:          0
ITLB WQ FORWARD:          0
DTLB TOTAL     ACCESS:  111547014  HIT:  111410817  MISS:     136197
DTLB LOAD      ACCESS:   78949549  HIT:   78823920  MISS:     125629
DTLB RFO       ACCESS:   32597465  HIT:   32586897  MISS:      10568
DTLB PREFETCH  ACCESS:          0  HIT:          0  MISS:          0
DTLB WRITEBACK ACCESS:          0  HIT:          0  MISS:          0
DTLB PREFETCH  REQUESTED:          0  ISSUED:          0  USEFUL:          0  USELESS:          0
DTLB TOTAL MSHR MERGED:      63569
DTLB LOAD MSHR MERGED:      50968
DTLB RFO MSHR MERGED:      12601
DTLB PREFETCH MSHR MERGED:          0
DTLB WRITEBACK MSHR MERGED:          0
DTLB TOTAL ACCESSES:  111610583 HITS:  111410817 MISSES:     199766
DTLB LOAD ACCESSES:   79000517 HITS:   78823920 MISSES:     176597
DTLB RFO ACCESSES:   32610066 HITS:   32586897 MISSES:      23169
DTLB PREFETCH ACCESSES:          0 HITS:          0 MISSES:          0
DTLB WRITEBACK ACCESSES:          0 HITS:          0 MISSES:          0
DTLB RQ ACCESS:  157180570
DTLB RQ TO_CACHE:  111610583
DTLB RQ MERGED:   45569987
DTLB RQ FORWARD:          0
DTLB WQ ACCESS:          0
DTLB WQ TO_CACHE:          0
DTLB WQ MERGED:          0
DTLB WQ FORWARD:          0
L1D TOTAL     ACCESS:  198232797  HIT:  188391723  MISS:    9841074
L1D LOAD      ACCESS:   79949602  HIT:   75687202  MISS:    4262400
L1D RFO       ACCESS:   44530771  HIT:   43630318  MISS:     900453
L1D PREFETCH  ACCESS:   73752424  HIT:   69074203  MISS:    4678221
L1D WRITEBACK ACCESS:          0  HIT:          0  MISS:          0
L1D PREFETCH  REQUESTED:   80345394  ISSUED:   79889773  USEFUL:    1819949  USELESS:    2858181
L1D TOTAL MSHR MERGED:    2494860
L1D LOAD MSHR MERGED:     519656
L1D RFO MSHR MERGED:    1421860
L1D PREFETCH MSHR MERGED:     553344
L1D WRITEBACK MSHR MERGED:          0
L1D TOTAL ACCESSES:  200749016 HITS:  188413082 MISSES:   12335934
L1D LOAD ACCESSES:   80358099 HITS:   75699907 MISSES:    4658192
L1D RFO ACCESSES:   45949588 HITS:   43630318 MISSES:    2319270
L1D PREFETCH ACCESSES:   74441329 HITS:   69082857 MISSES:    5358472
L1D WRITEBACK ACCESSES:          0 HITS:          0 MISSES:          0
L1D RQ ACCESS:  109538600
L1D RQ TO_CACHE:   80345394
L1D RQ MERGED:   29180501
L1D RQ FORWARD:          0
L1D WQ ACCESS:   47641970
L1D WQ TO_CACHE:   45949588
L1D WQ MERGED:    1692382
L1D WQ FORWARD:      21359
L1I TOTAL     ACCESS:  161534542  HIT:  161270569  MISS:     263973
L1I LOAD      ACCESS:  161534542  HIT:  161270569  MISS:     263973
L1I RFO       ACCESS:          0  HIT:          0  MISS:          0
L1I PREFETCH  ACCESS:          0  HIT:          0  MISS:          0
L1I WRITEBACK ACCESS:          0  HIT:          0  MISS:          0
L1I PREFETCH  REQUESTED:          0  ISSUED:          0  USEFUL:          0  USELESS:          0
L1I TOTAL MSHR MERGED:     260864
L1I LOAD MSHR MERGED:     260864
L1I RFO MSHR MERGED:          0
L1I PREFETCH MSHR MERGED:          0
L1I WRITEBACK MSHR MERGED:          0
L1I TOTAL ACCESSES:  161795406 HITS:  161270569 MISSES:     524837
L1I LOAD ACCESSES:  161795406 HITS:  161270569 MISSES:     524837
L1I RFO ACCESSES:          0 HITS:          0 MISSES:          0
L1I PREFETCH ACCESSES:          0 HITS:          0 MISSES:          0
L1I WRITEBACK ACCESSES:          0 HITS:          0 MISSES:          0
L1I RQ ACCESS:  500000202
L1I RQ TO_CACHE:  161795406
L1I RQ MERGED:  338204796
L1I RQ FORWARD:          0
L1I WQ ACCESS:          0
L1I WQ TO_CACHE:          0
L1I WQ MERGED:          0
L1I WQ FORWARD:          0
L2C TOTAL     ACCESS:   11771719  HIT:   10382402  MISS:    1389317
L2C LOAD      ACCESS:    4402444  HIT:    3905848  MISS:     496596
L2C RFO       ACCESS:     897344  HIT:     536290  MISS:     361054
L2C PREFETCH  ACCESS:    5284387  HIT:    4755666  MISS:     528721
L2C WRITEBACK ACCESS:    1187544  HIT:    1184598  MISS:       2946
L2C PREFETCH  REQUESTED:     504572  ISSUED:     504572  USEFUL:     114984  USELESS:     413930
L2C TOTAL MSHR MERGED:       2004
L2C LOAD MSHR MERGED:        399
L2C RFO MSHR MERGED:          0
L2C PREFETCH MSHR MERGED:       1605
L2C WRITEBACK MSHR MERGED:          0
L2C TOTAL ACCESSES:   11776493 HITS:   10382623 MISSES:    1393870
L2C LOAD ACCESSES:    4402509 HITS:    3905913 MISSES:     496596
L2C RFO ACCESSES:     897410 HITS:     536356 MISSES:     361054
L2C PREFETCH ACCESSES:    5289030 HITS:    4755756 MISSES:     533274
L2C WRITEBACK ACCESSES:    1187544 HITS:    1184598 MISSES:       2946
L2C RQ ACCESS:    5299919
L2C RQ TO_CACHE:    5299788
L2C RQ MERGED:          0
L2C RQ FORWARD:          0
L2C WQ ACCESS:    1187544
L2C WQ TO_CACHE:    1187544
L2C WQ MERGED:          0
L2C WQ FORWARD:        221
LLC TOTAL     ACCESS:    1849578  HIT:    1127491  MISS:     722087
LLC LOAD      ACCESS:     496195  HIT:     238511  MISS:     257684
LLC RFO       ACCESS:     361052  HIT:     226073  MISS:     134979
LLC PREFETCH  ACCESS:     531585  HIT:     317619  MISS:     213966
LLC WRITEBACK ACCESS:     460746  HIT:     345288  MISS:     115458
LLC PREFETCH  REQUESTED:          0  ISSUED:          0  USEFUL:       2866  USELESS:     211138
LLC TOTAL MSHR MERGED:         58
LLC LOAD MSHR MERGED:         23
LLC RFO MSHR MERGED:          0
LLC PREFETCH MSHR MERGED:         35
LLC WRITEBACK MSHR MERGED:          0
LLC TOTAL ACCESSES:    1849658 HITS:    1127513 MISSES:     722145
LLC LOAD ACCESSES:     496197 HITS:     238513 MISSES:     257684
LLC RFO ACCESSES:     361054 HITS:     226075 MISSES:     134979
LLC PREFETCH ACCESSES:     531661 HITS:     317637 MISSES:     214024
LLC WRITEBACK ACCESSES:     460746 HITS:     345288 MISSES:     115458
LLC 0 RQ ACCESS:     857251
LLC 0 RQ TO_CACHE:     857247
LLC 0 RQ MERGED:          0
LLC 0 RQ FORWARD:          0
LLC WQ ACCESS:     460746
LLC WQ TO_CACHE:     460746
LLC WQ MERGED:          0
LLC WQ FORWARD:         22
Major fault: 0 Minor fault: 3073
CPU 0 L1D next line prefetcher final stats
CPU 0 L2C PC-based stride prefetcher final stats
All Misses: 876899
All Hits: 1299371
SD Algo Stats - Switches: 0 SRR-Repls: 296128 BRR-Repls: 0

DRAM Statistics
 CHANNEL 0
 RQ ROW_BUFFER_HIT:     412320  ROW_BUFFER_MISS:     194087
 DBUS_CONGESTED:     456454
 WQ ROW_BUFFER_HIT:      17955  ROW_BUFFER_MISS:     124736  FULL:          0

 AVG_CONGESTED_CYCLE: 13
LOADS RETIRED: 120673965
INSTR RETIRED: 500000000
