
*** ChampSim Multicore Out-of-Order Simulator ***

Warmup Instructions: 100000000
Simulation Instructions: 500000000
Number of CPUs: 1
LLC sets: 2048
LLC ways: 16
Clean RRIP Policies: 2213130222131302 Dirty RRIP Policies: 2203130222031302 PSEL Width: 10 Track Set: 4294967295 PSEL Mask: 1 Demote Mask: 4040100040401000DS Algo: 0Window size: 0
Off-chip DRAM Size: 4096 MB Channels: 1 Width: 64-bit Data Rate: 1600 MT/s

CPU 0 runs /mnt/beegfs/iconst01/spec2017/Fotonik3d.trace.gz
NOT SORTED
TRACE STRING: /mnt/beegfs/iconst01/spec2017/Fotonik3d.trace.gz
SORTED
TRACE STRING: /mnt/beegfs/iconst01/spec2017/Fotonik3d.trace.gz
INITIAL
TRACE STRING: /mnt/beegfs/iconst01/spec2017/Fotonik3d.trace.gz

champsim_seed used: 881

CPU 0 L1D next line prefetcher
CPU 0 L2C IP-based stride prefetcher
Initialize DRRIP state
Assign rand_sets[0]: 454  LLC: 2048
rand_sets[0]: 454
Assign rand_sets[1]: 1662  LLC: 2048
rand_sets[1]: 1662
Assign rand_sets[2]: 1921  LLC: 2048
rand_sets[2]: 1921
Assign rand_sets[3]: 1131  LLC: 2048
rand_sets[3]: 1131
Assign rand_sets[4]: 331  LLC: 2048
rand_sets[4]: 331
Assign rand_sets[5]: 1531  LLC: 2048
rand_sets[5]: 1531
Assign rand_sets[6]: 482  LLC: 2048
rand_sets[6]: 482
Assign rand_sets[7]: 1275  LLC: 2048
rand_sets[7]: 1275
Assign rand_sets[8]: 1876  LLC: 2048
rand_sets[8]: 1876
Assign rand_sets[9]: 2038  LLC: 2048
rand_sets[9]: 2038
Assign rand_sets[10]: 701  LLC: 2048
rand_sets[10]: 701
Assign rand_sets[11]: 479  LLC: 2048
rand_sets[11]: 479
Assign rand_sets[12]: 892  LLC: 2048
rand_sets[12]: 892
Assign rand_sets[13]: 1820  LLC: 2048
rand_sets[13]: 1820
Assign rand_sets[14]: 1505  LLC: 2048
rand_sets[14]: 1505
Assign rand_sets[15]: 1159  LLC: 2048
rand_sets[15]: 1159
Assign rand_sets[16]: 513  LLC: 2048
rand_sets[16]: 513
Assign rand_sets[17]: 703  LLC: 2048
rand_sets[17]: 703
Assign rand_sets[18]: 561  LLC: 2048
rand_sets[18]: 561
Assign rand_sets[19]: 990  LLC: 2048
rand_sets[19]: 990
Assign rand_sets[20]: 342  LLC: 2048
rand_sets[20]: 342
Assign rand_sets[21]: 882  LLC: 2048
rand_sets[21]: 882
Assign rand_sets[22]: 15  LLC: 2048
rand_sets[22]: 15
Assign rand_sets[23]: 71  LLC: 2048
rand_sets[23]: 71
Assign rand_sets[24]: 1127  LLC: 2048
rand_sets[24]: 1127
Assign rand_sets[25]: 1382  LLC: 2048
rand_sets[25]: 1382
Assign rand_sets[26]: 647  LLC: 2048
rand_sets[26]: 647
Assign rand_sets[27]: 857  LLC: 2048
rand_sets[27]: 857
Assign rand_sets[28]: 1450  LLC: 2048
rand_sets[28]: 1450
Assign rand_sets[29]: 1160  LLC: 2048
rand_sets[29]: 1160
Assign rand_sets[30]: 1852  LLC: 2048
rand_sets[30]: 1852
Assign rand_sets[31]: 1881  LLC: 2048
rand_sets[31]: 1881
Assign rand_sets[32]: 1770  LLC: 2048
rand_sets[32]: 1770
Assign rand_sets[33]: 1622  LLC: 2048
rand_sets[33]: 1622
Assign rand_sets[34]: 275  LLC: 2048
rand_sets[34]: 275
Assign rand_sets[35]: 635  LLC: 2048
rand_sets[35]: 635
Assign rand_sets[36]: 466  LLC: 2048
rand_sets[36]: 466
Assign rand_sets[37]: 1413  LLC: 2048
rand_sets[37]: 1413
Assign rand_sets[38]: 417  LLC: 2048
rand_sets[38]: 417
Assign rand_sets[39]: 472  LLC: 2048
rand_sets[39]: 472
Assign rand_sets[40]: 1340  LLC: 2048
rand_sets[40]: 1340
Assign rand_sets[41]: 852  LLC: 2048
rand_sets[41]: 852
Assign rand_sets[42]: 1365  LLC: 2048
rand_sets[42]: 1365
Assign rand_sets[43]: 47  LLC: 2048
rand_sets[43]: 47
Assign rand_sets[44]: 823  LLC: 2048
rand_sets[44]: 823
Assign rand_sets[45]: 686  LLC: 2048
rand_sets[45]: 686
Assign rand_sets[46]: 1637  LLC: 2048
rand_sets[46]: 1637
Assign rand_sets[47]: 1115  LLC: 2048
rand_sets[47]: 1115
Assign rand_sets[48]: 986  LLC: 2048
rand_sets[48]: 986
Assign rand_sets[49]: 258  LLC: 2048
rand_sets[49]: 258
Assign rand_sets[50]: 633  LLC: 2048
rand_sets[50]: 633
Assign rand_sets[51]: 920  LLC: 2048
rand_sets[51]: 920
Assign rand_sets[52]: 204  LLC: 2048
rand_sets[52]: 204
Assign rand_sets[53]: 227  LLC: 2048
rand_sets[53]: 227
Assign rand_sets[54]: 1818  LLC: 2048
rand_sets[54]: 1818
Assign rand_sets[55]: 886  LLC: 2048
rand_sets[55]: 886
Assign rand_sets[56]: 1422  LLC: 2048
rand_sets[56]: 1422
Assign rand_sets[57]: 607  LLC: 2048
rand_sets[57]: 607
Assign rand_sets[58]: 217  LLC: 2048
rand_sets[58]: 217
Assign rand_sets[59]: 1945  LLC: 2048
rand_sets[59]: 1945
Assign rand_sets[60]: 143  LLC: 2048
rand_sets[60]: 143
Assign rand_sets[61]: 1311  LLC: 2048
rand_sets[61]: 1311
Assign rand_sets[62]: 319  LLC: 2048
rand_sets[62]: 319
Assign rand_sets[63]: 1846  LLC: 2048
rand_sets[63]: 1846
 CLEAN-RRIP-POLICY-1: 2-2-1-3-1-3-0-2- CLEAN-RRIP-POLICY-2: 2-2-1-3-1-3-0-2-
 DIRTY-RRIP-POLICY-1: 2-2-0-3-1-3-0-2- DIRTY-RRIP-POLICY-2: 2-2-0-3-1-3-0-2-
 PSEL width: 10
Heartbeat CPU 0 instructions: 10000002 cycles: 7306734 heartbeat IPC: 1.3686 cumulative IPC: 1.3686 (Simulation time: 0 hr 0 min 24 sec) 
Heartbeat CPU 0 instructions: 20000000 cycles: 14613589 heartbeat IPC: 1.36858 cumulative IPC: 1.36859 (Simulation time: 0 hr 0 min 49 sec) 
Heartbeat CPU 0 instructions: 30000001 cycles: 21920306 heartbeat IPC: 1.3686 cumulative IPC: 1.36859 (Simulation time: 0 hr 1 min 13 sec) 
Heartbeat CPU 0 instructions: 40000000 cycles: 29226903 heartbeat IPC: 1.36863 cumulative IPC: 1.3686 (Simulation time: 0 hr 1 min 38 sec) 
Heartbeat CPU 0 instructions: 50000001 cycles: 36533494 heartbeat IPC: 1.36863 cumulative IPC: 1.36861 (Simulation time: 0 hr 2 min 3 sec) 
Heartbeat CPU 0 instructions: 60000000 cycles: 43840317 heartbeat IPC: 1.36858 cumulative IPC: 1.3686 (Simulation time: 0 hr 2 min 28 sec) 
Heartbeat CPU 0 instructions: 70000002 cycles: 51146939 heartbeat IPC: 1.36862 cumulative IPC: 1.36861 (Simulation time: 0 hr 2 min 53 sec) 
Heartbeat CPU 0 instructions: 80000000 cycles: 58453551 heartbeat IPC: 1.36862 cumulative IPC: 1.36861 (Simulation time: 0 hr 3 min 18 sec) 
Heartbeat CPU 0 instructions: 90000003 cycles: 65763961 heartbeat IPC: 1.36791 cumulative IPC: 1.36853 (Simulation time: 0 hr 3 min 43 sec) 
Heartbeat CPU 0 instructions: 100000000 cycles: 73074436 heartbeat IPC: 1.3679 cumulative IPC: 1.36847 (Simulation time: 0 hr 4 min 9 sec) 

Warmup complete CPU 0 instructions: 100000002 cycles: 73074448 (Simulation time: 0 hr 4 min 9 sec) 

Heartbeat CPU 0 instructions: 110000001 cycles: 85510505 heartbeat IPC: 0.804113 cumulative IPC: 0.804113 (Simulation time: 0 hr 4 min 38 sec) 
Heartbeat CPU 0 instructions: 120000000 cycles: 97875085 heartbeat IPC: 0.808762 cumulative IPC: 0.806431 (Simulation time: 0 hr 5 min 8 sec) 
Heartbeat CPU 0 instructions: 130000000 cycles: 110306871 heartbeat IPC: 0.80439 cumulative IPC: 0.805749 (Simulation time: 0 hr 5 min 38 sec) 
Heartbeat CPU 0 instructions: 140000000 cycles: 122705172 heartbeat IPC: 0.806562 cumulative IPC: 0.805952 (Simulation time: 0 hr 6 min 8 sec) 
Heartbeat CPU 0 instructions: 150000000 cycles: 135064840 heartbeat IPC: 0.809083 cumulative IPC: 0.806577 (Simulation time: 0 hr 6 min 38 sec) 
Heartbeat CPU 0 instructions: 160000000 cycles: 147446001 heartbeat IPC: 0.807679 cumulative IPC: 0.80676 (Simulation time: 0 hr 7 min 8 sec) 
Heartbeat CPU 0 instructions: 170000001 cycles: 159858212 heartbeat IPC: 0.805658 cumulative IPC: 0.806602 (Simulation time: 0 hr 7 min 38 sec) 
Heartbeat CPU 0 instructions: 180000000 cycles: 172257608 heartbeat IPC: 0.806491 cumulative IPC: 0.806589 (Simulation time: 0 hr 8 min 8 sec) 
Heartbeat CPU 0 instructions: 190000000 cycles: 184677656 heartbeat IPC: 0.80515 cumulative IPC: 0.806428 (Simulation time: 0 hr 8 min 38 sec) 
Heartbeat CPU 0 instructions: 200000000 cycles: 197051423 heartbeat IPC: 0.808161 cumulative IPC: 0.806601 (Simulation time: 0 hr 9 min 8 sec) 
Heartbeat CPU 0 instructions: 210000002 cycles: 209472515 heartbeat IPC: 0.805082 cumulative IPC: 0.806463 (Simulation time: 0 hr 9 min 39 sec) 
Heartbeat CPU 0 instructions: 220000000 cycles: 221902499 heartbeat IPC: 0.804506 cumulative IPC: 0.8063 (Simulation time: 0 hr 10 min 8 sec) 
Heartbeat CPU 0 instructions: 230000002 cycles: 234292913 heartbeat IPC: 0.807076 cumulative IPC: 0.806359 (Simulation time: 0 hr 10 min 38 sec) 
Heartbeat CPU 0 instructions: 240000000 cycles: 247406692 heartbeat IPC: 0.762557 cumulative IPC: 0.803064 (Simulation time: 0 hr 11 min 9 sec) 
Heartbeat CPU 0 instructions: 250000001 cycles: 264646971 heartbeat IPC: 0.580037 cumulative IPC: 0.782993 (Simulation time: 0 hr 11 min 41 sec) 
Heartbeat CPU 0 instructions: 260000000 cycles: 281766975 heartbeat IPC: 0.584112 cumulative IPC: 0.766678 (Simulation time: 0 hr 12 min 14 sec) 
Heartbeat CPU 0 instructions: 270000000 cycles: 298947461 heartbeat IPC: 0.582056 cumulative IPC: 0.752635 (Simulation time: 0 hr 12 min 46 sec) 
Heartbeat CPU 0 instructions: 280000000 cycles: 316123808 heartbeat IPC: 0.582196 cumulative IPC: 0.74059 (Simulation time: 0 hr 13 min 18 sec) 
Heartbeat CPU 0 instructions: 290000000 cycles: 344486914 heartbeat IPC: 0.352571 cumulative IPC: 0.700042 (Simulation time: 0 hr 13 min 58 sec) 
Heartbeat CPU 0 instructions: 300000000 cycles: 381395142 heartbeat IPC: 0.270942 cumulative IPC: 0.648675 (Simulation time: 0 hr 14 min 44 sec) 
Heartbeat CPU 0 instructions: 310000000 cycles: 397911063 heartbeat IPC: 0.605476 cumulative IPC: 0.646479 (Simulation time: 0 hr 15 min 15 sec) 
Heartbeat CPU 0 instructions: 320000000 cycles: 414388334 heartbeat IPC: 0.606897 cumulative IPC: 0.644568 (Simulation time: 0 hr 15 min 47 sec) 
Heartbeat CPU 0 instructions: 330000003 cycles: 430934704 heartbeat IPC: 0.604362 cumulative IPC: 0.642709 (Simulation time: 0 hr 16 min 18 sec) 
Heartbeat CPU 0 instructions: 340000000 cycles: 447429595 heartbeat IPC: 0.606248 cumulative IPC: 0.641102 (Simulation time: 0 hr 16 min 49 sec) 
Heartbeat CPU 0 instructions: 350000001 cycles: 462177831 heartbeat IPC: 0.678047 cumulative IPC: 0.642503 (Simulation time: 0 hr 17 min 18 sec) 
Heartbeat CPU 0 instructions: 360000000 cycles: 474047746 heartbeat IPC: 0.842466 cumulative IPC: 0.648422 (Simulation time: 0 hr 17 min 45 sec) 
Heartbeat CPU 0 instructions: 370000002 cycles: 485760220 heartbeat IPC: 0.853791 cumulative IPC: 0.654251 (Simulation time: 0 hr 18 min 12 sec) 
Heartbeat CPU 0 instructions: 380000000 cycles: 497658021 heartbeat IPC: 0.840491 cumulative IPC: 0.65947 (Simulation time: 0 hr 18 min 39 sec) 
Heartbeat CPU 0 instructions: 390000003 cycles: 511027963 heartbeat IPC: 0.747947 cumulative IPC: 0.662171 (Simulation time: 0 hr 19 min 7 sec) 
Heartbeat CPU 0 instructions: 400000000 cycles: 523308298 heartbeat IPC: 0.81431 cumulative IPC: 0.66632 (Simulation time: 0 hr 19 min 35 sec) 
Heartbeat CPU 0 instructions: 410000003 cycles: 535315522 heartbeat IPC: 0.832832 cumulative IPC: 0.670646 (Simulation time: 0 hr 20 min 3 sec) 
Heartbeat CPU 0 instructions: 420000000 cycles: 548163810 heartbeat IPC: 0.778314 cumulative IPC: 0.673557 (Simulation time: 0 hr 20 min 30 sec) 
Heartbeat CPU 0 instructions: 430000003 cycles: 566586834 heartbeat IPC: 0.542799 cumulative IPC: 0.668676 (Simulation time: 0 hr 20 min 55 sec) 
Heartbeat CPU 0 instructions: 440000000 cycles: 585063264 heartbeat IPC: 0.54123 cumulative IPC: 0.664077 (Simulation time: 0 hr 21 min 20 sec) 
Heartbeat CPU 0 instructions: 450000003 cycles: 603549744 heartbeat IPC: 0.540936 cumulative IPC: 0.659786 (Simulation time: 0 hr 21 min 45 sec) 
Heartbeat CPU 0 instructions: 460000000 cycles: 621999356 heartbeat IPC: 0.542017 cumulative IPC: 0.655827 (Simulation time: 0 hr 22 min 10 sec) 
Heartbeat CPU 0 instructions: 470000003 cycles: 640453906 heartbeat IPC: 0.541872 cumulative IPC: 0.652121 (Simulation time: 0 hr 22 min 35 sec) 
Heartbeat CPU 0 instructions: 480000000 cycles: 658913162 heartbeat IPC: 0.541734 cumulative IPC: 0.648643 (Simulation time: 0 hr 23 min 0 sec) 
Heartbeat CPU 0 instructions: 490000003 cycles: 677390815 heartbeat IPC: 0.541194 cumulative IPC: 0.645357 (Simulation time: 0 hr 23 min 25 sec) 
Heartbeat CPU 0 instructions: 500000000 cycles: 695818423 heartbeat IPC: 0.542664 cumulative IPC: 0.642319 (Simulation time: 0 hr 23 min 50 sec) 
Heartbeat CPU 0 instructions: 510000003 cycles: 714286863 heartbeat IPC: 0.541464 cumulative IPC: 0.639414 (Simulation time: 0 hr 24 min 15 sec) 
Heartbeat CPU 0 instructions: 520000000 cycles: 732726439 heartbeat IPC: 0.542312 cumulative IPC: 0.636699 (Simulation time: 0 hr 24 min 40 sec) 
Heartbeat CPU 0 instructions: 530000001 cycles: 751191719 heartbeat IPC: 0.541557 cumulative IPC: 0.634109 (Simulation time: 0 hr 25 min 5 sec) 
Heartbeat CPU 0 instructions: 540000000 cycles: 769593133 heartbeat IPC: 0.543436 cumulative IPC: 0.631713 (Simulation time: 0 hr 25 min 30 sec) 
Heartbeat CPU 0 instructions: 550000001 cycles: 787992358 heartbeat IPC: 0.543501 cumulative IPC: 0.629443 (Simulation time: 0 hr 25 min 55 sec) 
Heartbeat CPU 0 instructions: 560000000 cycles: 806394734 heartbeat IPC: 0.543408 cumulative IPC: 0.627284 (Simulation time: 0 hr 26 min 20 sec) 
Heartbeat CPU 0 instructions: 570000001 cycles: 824775023 heartbeat IPC: 0.544061 cumulative IPC: 0.625249 (Simulation time: 0 hr 26 min 45 sec) 
Heartbeat CPU 0 instructions: 580000000 cycles: 843117918 heartbeat IPC: 0.54517 cumulative IPC: 0.623341 (Simulation time: 0 hr 27 min 10 sec) 
Heartbeat CPU 0 instructions: 590000001 cycles: 861527112 heartbeat IPC: 0.543207 cumulative IPC: 0.62147 (Simulation time: 0 hr 27 min 35 sec) 
Heartbeat CPU 0 instructions: 600000000 cycles: 879937618 heartbeat IPC: 0.543168 cumulative IPC: 0.619684 (Simulation time: 0 hr 28 min 0 sec) 
Finished CPU 0 instructions: 500000002 cycles: 806863184 cumulative IPC: 0.619684 (Simulation time: 0 hr 28 min 0 sec) 

CPU 0 Branch Prediction Accuracy: 99.5931% MPKI: 0.08288
Number of Branches: 10184133 Number of Mispredictions: 41440
Number of LOAD Instructions: 261155957
Number of LOAD Instructions (ROI): 261155957
Number of STORE Instructions: 57884062
Number of STORE Instructions (ROI): 57884062
Total Destination Memory Operands: 83293336
Total Destination Memory Operands (ROI): 83293336
Total Source Memory Operands: 261155957
Total Source Memory Operands (ROI): 261155957
Number of DEPENDED LOADS: 22255498
Number of DEPENDED LOADS (ROI): 22255498
Number of SQ_ADDED: 83293300
Number of SQ_ADDED (ROI): 83293300
Number of LQ_ADDED: 1765678886
Number of LQ_ADDED (ROI): 1765678886
Number of Instructions read from trace: 600000257

ChampSim completed all CPUs

Region of Interest Statistics

CPU 0 cumulative IPC: 0.619684 instructions: 500000002 cycles: 806863184
ITLB TOTAL     ACCESS:   94642817  HIT:   94642779  MISS:         38
ITLB LOAD      ACCESS:   94642817  HIT:   94642779  MISS:         38
ITLB RFO       ACCESS:          0  HIT:          0  MISS:          0
ITLB PREFETCH  ACCESS:          0  HIT:          0  MISS:          0
ITLB WRITEBACK ACCESS:          0  HIT:          0  MISS:          0
ITLB PREFETCH  REQUESTED:          0  ISSUED:          0  USEFUL:          0  USELESS:          0
ITLB TOTAL MSHR MERGED:         93
ITLB LOAD MSHR MERGED:         93
ITLB RFO MSHR MERGED:          0
ITLB PREFETCH MSHR MERGED:          0
ITLB WRITEBACK MSHR MERGED:          0
ITLB TOTAL ACCESSES:   94642910 HITS:   94642779 MISSES:        131
ITLB LOAD ACCESSES:   94642910 HITS:   94642779 MISSES:        131
ITLB RFO ACCESSES:          0 HITS:          0 MISSES:          0
ITLB PREFETCH ACCESSES:          0 HITS:          0 MISSES:          0
ITLB WRITEBACK ACCESSES:          0 HITS:          0 MISSES:          0
ITLB RQ ACCESS:  500000001
ITLB RQ TO_CACHE:   94642911
ITLB RQ MERGED:  405357090
ITLB RQ FORWARD:          0
ITLB WQ ACCESS:          0
ITLB WQ TO_CACHE:          0
ITLB WQ MERGED:          0
ITLB WQ FORWARD:          0
DTLB TOTAL     ACCESS:  149169891  HIT:  148572931  MISS:     596960
DTLB LOAD      ACCESS:  107296521  HIT:  106699572  MISS:     596949
DTLB RFO       ACCESS:   41873370  HIT:   41873359  MISS:         11
DTLB PREFETCH  ACCESS:          0  HIT:          0  MISS:          0
DTLB WRITEBACK ACCESS:          0  HIT:          0  MISS:          0
DTLB PREFETCH  REQUESTED:          0  ISSUED:          0  USEFUL:          0  USELESS:          0
DTLB TOTAL MSHR MERGED:     134253
DTLB LOAD MSHR MERGED:     134253
DTLB RFO MSHR MERGED:          0
DTLB PREFETCH MSHR MERGED:          0
DTLB WRITEBACK MSHR MERGED:          0
DTLB TOTAL ACCESSES:  149304144 HITS:  148572931 MISSES:     731213
DTLB LOAD ACCESSES:  107430774 HITS:  106699572 MISSES:     731202
DTLB RFO ACCESSES:   41873370 HITS:   41873359 MISSES:         11
DTLB PREFETCH ACCESSES:          0 HITS:          0 MISSES:          0
DTLB WRITEBACK ACCESSES:          0 HITS:          0 MISSES:          0
DTLB RQ ACCESS:  259760396
DTLB RQ TO_CACHE:  149304144
DTLB RQ MERGED:  110456252
DTLB RQ FORWARD:          0
DTLB WQ ACCESS:          0
DTLB WQ TO_CACHE:          0
DTLB WQ MERGED:          0
DTLB WQ FORWARD:          0
L1D TOTAL     ACCESS:  261027985  HIT:  245630956  MISS:   15397029
L1D LOAD      ACCESS:  118068782  HIT:  112566802  MISS:    5501980
L1D RFO       ACCESS:   68946704  HIT:   68932300  MISS:      14404
L1D PREFETCH  ACCESS:   74012499  HIT:   64131854  MISS:    9880645
L1D WRITEBACK ACCESS:          0  HIT:          0  MISS:          0
L1D PREFETCH  REQUESTED:  120655886  ISSUED:  119079464  USEFUL:    8010610  USELESS:    1870057
L1D TOTAL MSHR MERGED:   16520515
L1D LOAD MSHR MERGED:    4998914
L1D RFO MSHR MERGED:      21874
L1D PREFETCH MSHR MERGED:   11499727
L1D WRITEBACK MSHR MERGED:          0
L1D TOTAL ACCESSES:  277658801 HITS:  245741257 MISSES:   31917544
L1D LOAD ACCESSES:  120663403 HITS:  112574319 MISSES:    8089084
L1D RFO ACCESSES:   68968577 HITS:   68932300 MISSES:      36277
L1D PREFETCH ACCESSES:   88026821 HITS:   64234638 MISSES:   23792183
L1D WRITEBACK ACCESSES:          0 HITS:          0 MISSES:          0
L1D RQ ACCESS:  190686080
L1D RQ TO_CACHE:  120655886
L1D RQ MERGED:   70022677
L1D RQ FORWARD:          0
L1D WQ ACCESS:   69074336
L1D WQ TO_CACHE:   68968579
L1D WQ MERGED:     105757
L1D WQ FORWARD:     110301
L1I TOTAL     ACCESS:  121558928  HIT:  121557855  MISS:       1073
L1I LOAD      ACCESS:  121558928  HIT:  121557855  MISS:       1073
L1I RFO       ACCESS:          0  HIT:          0  MISS:          0
L1I PREFETCH  ACCESS:          0  HIT:          0  MISS:          0
L1I WRITEBACK ACCESS:          0  HIT:          0  MISS:          0
L1I PREFETCH  REQUESTED:          0  ISSUED:          0  USEFUL:          0  USELESS:          0
L1I TOTAL MSHR MERGED:       1067
L1I LOAD MSHR MERGED:       1067
L1I RFO MSHR MERGED:          0
L1I PREFETCH MSHR MERGED:          0
L1I WRITEBACK MSHR MERGED:          0
L1I TOTAL ACCESSES:  121559995 HITS:  121557855 MISSES:       2140
L1I LOAD ACCESSES:  121559995 HITS:  121557855 MISSES:       2140
L1I RFO ACCESSES:          0 HITS:          0 MISSES:          0
L1I PREFETCH ACCESSES:          0 HITS:          0 MISSES:          0
L1I WRITEBACK ACCESSES:          0 HITS:          0 MISSES:          0
L1I RQ ACCESS:  500000000
L1I RQ TO_CACHE:  121559995
L1I RQ MERGED:  378440005
L1I RQ FORWARD:          0
L1I WQ ACCESS:          0
L1I WQ TO_CACHE:          0
L1I WQ MERGED:          0
L1I WQ FORWARD:          0
L2C TOTAL     ACCESS:   22470795  HIT:    9152798  MISS:   13317997
L2C LOAD      ACCESS:    3091206  HIT:     417285  MISS:    2673921
L2C RFO       ACCESS:      14403  HIT:      13990  MISS:        413
L2C PREFETCH  ACCESS:   12735257  HIT:    2093403  MISS:   10641854
L2C WRITEBACK ACCESS:    6629929  HIT:    6628120  MISS:       1809
L2C PREFETCH  REQUESTED:     695478  ISSUED:     695478  USEFUL:     186654  USELESS:   10455990
L2C TOTAL MSHR MERGED:      71414
L2C LOAD MSHR MERGED:      22431
L2C RFO MSHR MERGED:          0
L2C PREFETCH MSHR MERGED:      48983
L2C WRITEBACK MSHR MERGED:          0
L2C TOTAL ACCESSES:   22683475 HITS:    9152846 MISSES:   13530629
L2C LOAD ACCESSES:    3091243 HITS:     417322 MISSES:    2673921
L2C RFO ACCESSES:      14403 HITS:      13990 MISSES:        413
L2C PREFETCH ACCESSES:   12947900 HITS:    2093414 MISSES:   10854486
L2C WRITEBACK ACCESSES:    6629929 HITS:    6628120 MISSES:       1809
L2C RQ ACCESS:    3105646
L2C RQ TO_CACHE:    3105609
L2C RQ MERGED:          0
L2C RQ FORWARD:          0
L2C WQ ACCESS:    6629929
L2C WQ TO_CACHE:    6629929
L2C WQ MERGED:          0
L2C WQ FORWARD:         48
LLC TOTAL     ACCESS:   20025709  HIT:    1986746  MISS:   18038963
LLC LOAD      ACCESS:    2651488  HIT:     432518  MISS:    2218970
LLC RFO       ACCESS:        413  HIT:         19  MISS:        394
LLC PREFETCH  ACCESS:   10782565  HIT:     118343  MISS:   10664222
LLC WRITEBACK ACCESS:    6591243  HIT:    1435866  MISS:    5155377
LLC PREFETCH  REQUESTED:          0  ISSUED:          0  USEFUL:      45965  USELESS:   10619402
LLC TOTAL MSHR MERGED:      21555
LLC LOAD MSHR MERGED:       9876
LLC RFO MSHR MERGED:          0
LLC PREFETCH MSHR MERGED:      11679
LLC WRITEBACK MSHR MERGED:          0
LLC TOTAL ACCESSES:   20047266 HITS:    1986748 MISSES:   18060518
LLC LOAD ACCESSES:    2651490 HITS:     432520 MISSES:    2218970
LLC RFO ACCESSES:        413 HITS:         19 MISSES:        394
LLC PREFETCH ACCESSES:   10804120 HITS:     118343 MISSES:   10685777
LLC WRITEBACK ACCESSES:    6591243 HITS:    1435866 MISSES:    5155377
LLC 0 RQ ACCESS:    2651903
LLC 0 RQ TO_CACHE:    2651901
LLC 0 RQ MERGED:          0
LLC 0 RQ FORWARD:          0
LLC WQ ACCESS:    6591243
LLC WQ TO_CACHE:    6591243
LLC WQ MERGED:          0
LLC WQ FORWARD:          2
Major fault: 0 Minor fault: 183991
CPU 0 L1D next line prefetcher final stats
CPU 0 L2C PC-based stride prefetcher final stats
All Misses: 20895820
All Hits: 2060935
SD Algo Stats - Switches: 0 SRR-Repls: 2270124 BRR-Repls: 0

DRAM Statistics
 CHANNEL 0
 RQ ROW_BUFFER_HIT:    7162299  ROW_BUFFER_MISS:    5721287
 DBUS_CONGESTED:   11505285
 WQ ROW_BUFFER_HIT:    1420771  ROW_BUFFER_MISS:    5163938  FULL:          0

 AVG_CONGESTED_CYCLE: 13
LOADS RETIRED: 204440772
INSTR RETIRED: 500000000
