
*** ChampSim Multicore Out-of-Order Simulator ***

Warmup Instructions: 100000000
Simulation Instructions: 500000000
Number of CPUs: 1
LLC sets: 2048
LLC ways: 16
Clean RRIP Policies: 2213130222131302 Dirty RRIP Policies: 2203130222031302 PSEL Width: 10 Track Set: 4294967295 PSEL Mask: 1 Demote Mask: 4040100040401000DS Algo: 0Window size: 0
Off-chip DRAM Size: 4096 MB Channels: 1 Width: 64-bit Data Rate: 1600 MT/s

CPU 0 runs /mnt/beegfs/iconst01/spec2017/x264.trace.gz
NOT SORTED
TRACE STRING: /mnt/beegfs/iconst01/spec2017/x264.trace.gz
SORTED
TRACE STRING: /mnt/beegfs/iconst01/spec2017/x264.trace.gz
INITIAL
TRACE STRING: /mnt/beegfs/iconst01/spec2017/x264.trace.gz

champsim_seed used: 276

CPU 0 L1D next line prefetcher
CPU 0 L2C IP-based stride prefetcher
Initialize DRRIP state
Assign rand_sets[0]: 454  LLC: 2048
rand_sets[0]: 454
Assign rand_sets[1]: 1662  LLC: 2048
rand_sets[1]: 1662
Assign rand_sets[2]: 1921  LLC: 2048
rand_sets[2]: 1921
Assign rand_sets[3]: 1131  LLC: 2048
rand_sets[3]: 1131
Assign rand_sets[4]: 331  LLC: 2048
rand_sets[4]: 331
Assign rand_sets[5]: 1531  LLC: 2048
rand_sets[5]: 1531
Assign rand_sets[6]: 482  LLC: 2048
rand_sets[6]: 482
Assign rand_sets[7]: 1275  LLC: 2048
rand_sets[7]: 1275
Assign rand_sets[8]: 1876  LLC: 2048
rand_sets[8]: 1876
Assign rand_sets[9]: 2038  LLC: 2048
rand_sets[9]: 2038
Assign rand_sets[10]: 701  LLC: 2048
rand_sets[10]: 701
Assign rand_sets[11]: 479  LLC: 2048
rand_sets[11]: 479
Assign rand_sets[12]: 892  LLC: 2048
rand_sets[12]: 892
Assign rand_sets[13]: 1820  LLC: 2048
rand_sets[13]: 1820
Assign rand_sets[14]: 1505  LLC: 2048
rand_sets[14]: 1505
Assign rand_sets[15]: 1159  LLC: 2048
rand_sets[15]: 1159
Assign rand_sets[16]: 513  LLC: 2048
rand_sets[16]: 513
Assign rand_sets[17]: 703  LLC: 2048
rand_sets[17]: 703
Assign rand_sets[18]: 561  LLC: 2048
rand_sets[18]: 561
Assign rand_sets[19]: 990  LLC: 2048
rand_sets[19]: 990
Assign rand_sets[20]: 342  LLC: 2048
rand_sets[20]: 342
Assign rand_sets[21]: 882  LLC: 2048
rand_sets[21]: 882
Assign rand_sets[22]: 15  LLC: 2048
rand_sets[22]: 15
Assign rand_sets[23]: 71  LLC: 2048
rand_sets[23]: 71
Assign rand_sets[24]: 1127  LLC: 2048
rand_sets[24]: 1127
Assign rand_sets[25]: 1382  LLC: 2048
rand_sets[25]: 1382
Assign rand_sets[26]: 647  LLC: 2048
rand_sets[26]: 647
Assign rand_sets[27]: 857  LLC: 2048
rand_sets[27]: 857
Assign rand_sets[28]: 1450  LLC: 2048
rand_sets[28]: 1450
Assign rand_sets[29]: 1160  LLC: 2048
rand_sets[29]: 1160
Assign rand_sets[30]: 1852  LLC: 2048
rand_sets[30]: 1852
Assign rand_sets[31]: 1881  LLC: 2048
rand_sets[31]: 1881
Assign rand_sets[32]: 1770  LLC: 2048
rand_sets[32]: 1770
Assign rand_sets[33]: 1622  LLC: 2048
rand_sets[33]: 1622
Assign rand_sets[34]: 275  LLC: 2048
rand_sets[34]: 275
Assign rand_sets[35]: 635  LLC: 2048
rand_sets[35]: 635
Assign rand_sets[36]: 466  LLC: 2048
rand_sets[36]: 466
Assign rand_sets[37]: 1413  LLC: 2048
rand_sets[37]: 1413
Assign rand_sets[38]: 417  LLC: 2048
rand_sets[38]: 417
Assign rand_sets[39]: 472  LLC: 2048
rand_sets[39]: 472
Assign rand_sets[40]: 1340  LLC: 2048
rand_sets[40]: 1340
Assign rand_sets[41]: 852  LLC: 2048
rand_sets[41]: 852
Assign rand_sets[42]: 1365  LLC: 2048
rand_sets[42]: 1365
Assign rand_sets[43]: 47  LLC: 2048
rand_sets[43]: 47
Assign rand_sets[44]: 823  LLC: 2048
rand_sets[44]: 823
Assign rand_sets[45]: 686  LLC: 2048
rand_sets[45]: 686
Assign rand_sets[46]: 1637  LLC: 2048
rand_sets[46]: 1637
Assign rand_sets[47]: 1115  LLC: 2048
rand_sets[47]: 1115
Assign rand_sets[48]: 986  LLC: 2048
rand_sets[48]: 986
Assign rand_sets[49]: 258  LLC: 2048
rand_sets[49]: 258
Assign rand_sets[50]: 633  LLC: 2048
rand_sets[50]: 633
Assign rand_sets[51]: 920  LLC: 2048
rand_sets[51]: 920
Assign rand_sets[52]: 204  LLC: 2048
rand_sets[52]: 204
Assign rand_sets[53]: 227  LLC: 2048
rand_sets[53]: 227
Assign rand_sets[54]: 1818  LLC: 2048
rand_sets[54]: 1818
Assign rand_sets[55]: 886  LLC: 2048
rand_sets[55]: 886
Assign rand_sets[56]: 1422  LLC: 2048
rand_sets[56]: 1422
Assign rand_sets[57]: 607  LLC: 2048
rand_sets[57]: 607
Assign rand_sets[58]: 217  LLC: 2048
rand_sets[58]: 217
Assign rand_sets[59]: 1945  LLC: 2048
rand_sets[59]: 1945
Assign rand_sets[60]: 143  LLC: 2048
rand_sets[60]: 143
Assign rand_sets[61]: 1311  LLC: 2048
rand_sets[61]: 1311
Assign rand_sets[62]: 319  LLC: 2048
rand_sets[62]: 319
Assign rand_sets[63]: 1846  LLC: 2048
rand_sets[63]: 1846
 CLEAN-RRIP-POLICY-1: 2-2-1-3-1-3-0-2- CLEAN-RRIP-POLICY-2: 2-2-1-3-1-3-0-2-
 DIRTY-RRIP-POLICY-1: 2-2-0-3-1-3-0-2- DIRTY-RRIP-POLICY-2: 2-2-0-3-1-3-0-2-
 PSEL width: 10
Heartbeat CPU 0 instructions: 10000000 cycles: 4124759 heartbeat IPC: 2.42438 cumulative IPC: 2.42438 (Simulation time: 0 hr 0 min 14 sec) 
Heartbeat CPU 0 instructions: 20000000 cycles: 8233863 heartbeat IPC: 2.43362 cumulative IPC: 2.42899 (Simulation time: 0 hr 0 min 28 sec) 
Heartbeat CPU 0 instructions: 30000003 cycles: 12464696 heartbeat IPC: 2.3636 cumulative IPC: 2.4068 (Simulation time: 0 hr 0 min 41 sec) 
Heartbeat CPU 0 instructions: 40000000 cycles: 16636669 heartbeat IPC: 2.39695 cumulative IPC: 2.40433 (Simulation time: 0 hr 0 min 55 sec) 
Heartbeat CPU 0 instructions: 50000000 cycles: 20699152 heartbeat IPC: 2.46155 cumulative IPC: 2.41556 (Simulation time: 0 hr 1 min 9 sec) 
Heartbeat CPU 0 instructions: 60000000 cycles: 25022638 heartbeat IPC: 2.31295 cumulative IPC: 2.39783 (Simulation time: 0 hr 1 min 22 sec) 
Heartbeat CPU 0 instructions: 70000000 cycles: 29370934 heartbeat IPC: 2.29975 cumulative IPC: 2.38331 (Simulation time: 0 hr 1 min 35 sec) 
Heartbeat CPU 0 instructions: 80000000 cycles: 33721080 heartbeat IPC: 2.29877 cumulative IPC: 2.3724 (Simulation time: 0 hr 1 min 49 sec) 
Heartbeat CPU 0 instructions: 90000002 cycles: 38032061 heartbeat IPC: 2.31966 cumulative IPC: 2.36642 (Simulation time: 0 hr 2 min 2 sec) 
Heartbeat CPU 0 instructions: 100000000 cycles: 42328988 heartbeat IPC: 2.32724 cumulative IPC: 2.36245 (Simulation time: 0 hr 2 min 16 sec) 

Warmup complete CPU 0 instructions: 100000001 cycles: 42328989 (Simulation time: 0 hr 2 min 16 sec) 

Heartbeat CPU 0 instructions: 110000001 cycles: 49381351 heartbeat IPC: 1.41796 cumulative IPC: 1.41796 (Simulation time: 0 hr 2 min 33 sec) 
Heartbeat CPU 0 instructions: 120000000 cycles: 58879606 heartbeat IPC: 1.05282 cumulative IPC: 1.20841 (Simulation time: 0 hr 2 min 52 sec) 
Heartbeat CPU 0 instructions: 130000000 cycles: 63691689 heartbeat IPC: 2.0781 cumulative IPC: 1.40432 (Simulation time: 0 hr 3 min 9 sec) 
Heartbeat CPU 0 instructions: 140000000 cycles: 68607984 heartbeat IPC: 2.03405 cumulative IPC: 1.52213 (Simulation time: 0 hr 3 min 26 sec) 
Heartbeat CPU 0 instructions: 150000002 cycles: 75438072 heartbeat IPC: 1.46411 cumulative IPC: 1.51016 (Simulation time: 0 hr 3 min 44 sec) 
Heartbeat CPU 0 instructions: 160000000 cycles: 83271142 heartbeat IPC: 1.27664 cumulative IPC: 1.46548 (Simulation time: 0 hr 4 min 2 sec) 
Heartbeat CPU 0 instructions: 170000000 cycles: 90669714 heartbeat IPC: 1.35161 cumulative IPC: 1.44805 (Simulation time: 0 hr 4 min 20 sec) 
Heartbeat CPU 0 instructions: 180000000 cycles: 97974535 heartbeat IPC: 1.36896 cumulative IPC: 1.43767 (Simulation time: 0 hr 4 min 37 sec) 
Heartbeat CPU 0 instructions: 190000002 cycles: 105142550 heartbeat IPC: 1.39509 cumulative IPC: 1.43281 (Simulation time: 0 hr 4 min 55 sec) 
Heartbeat CPU 0 instructions: 200000000 cycles: 112375012 heartbeat IPC: 1.38265 cumulative IPC: 1.42763 (Simulation time: 0 hr 5 min 12 sec) 
Heartbeat CPU 0 instructions: 210000000 cycles: 119248331 heartbeat IPC: 1.4549 cumulative IPC: 1.43007 (Simulation time: 0 hr 5 min 29 sec) 
Heartbeat CPU 0 instructions: 220000000 cycles: 126025566 heartbeat IPC: 1.47553 cumulative IPC: 1.43375 (Simulation time: 0 hr 5 min 45 sec) 
Heartbeat CPU 0 instructions: 230000003 cycles: 132755127 heartbeat IPC: 1.48598 cumulative IPC: 1.43764 (Simulation time: 0 hr 6 min 2 sec) 
Heartbeat CPU 0 instructions: 240000000 cycles: 139503408 heartbeat IPC: 1.48186 cumulative IPC: 1.44071 (Simulation time: 0 hr 6 min 19 sec) 
Heartbeat CPU 0 instructions: 250000001 cycles: 146230375 heartbeat IPC: 1.48655 cumulative IPC: 1.44368 (Simulation time: 0 hr 6 min 36 sec) 
Heartbeat CPU 0 instructions: 260000000 cycles: 152933500 heartbeat IPC: 1.49184 cumulative IPC: 1.4466 (Simulation time: 0 hr 6 min 53 sec) 
Heartbeat CPU 0 instructions: 270000001 cycles: 159907505 heartbeat IPC: 1.4339 cumulative IPC: 1.44584 (Simulation time: 0 hr 7 min 10 sec) 
Heartbeat CPU 0 instructions: 280000000 cycles: 167437288 heartbeat IPC: 1.32806 cumulative IPC: 1.43875 (Simulation time: 0 hr 7 min 27 sec) 
Heartbeat CPU 0 instructions: 290000000 cycles: 175356228 heartbeat IPC: 1.2628 cumulative IPC: 1.42828 (Simulation time: 0 hr 7 min 45 sec) 
Heartbeat CPU 0 instructions: 300000000 cycles: 183526947 heartbeat IPC: 1.22388 cumulative IPC: 1.41645 (Simulation time: 0 hr 8 min 3 sec) 
Heartbeat CPU 0 instructions: 310000002 cycles: 191833712 heartbeat IPC: 1.20384 cumulative IPC: 1.40464 (Simulation time: 0 hr 8 min 22 sec) 
Heartbeat CPU 0 instructions: 320000000 cycles: 201826778 heartbeat IPC: 1.00069 cumulative IPC: 1.37933 (Simulation time: 0 hr 8 min 42 sec) 
Heartbeat CPU 0 instructions: 330000002 cycles: 206460558 heartbeat IPC: 2.15807 cumulative IPC: 1.40131 (Simulation time: 0 hr 8 min 58 sec) 
Heartbeat CPU 0 instructions: 340000000 cycles: 211693298 heartbeat IPC: 1.91104 cumulative IPC: 1.41706 (Simulation time: 0 hr 9 min 15 sec) 
Heartbeat CPU 0 instructions: 350000000 cycles: 218911104 heartbeat IPC: 1.38546 cumulative IPC: 1.41577 (Simulation time: 0 hr 9 min 32 sec) 
Heartbeat CPU 0 instructions: 360000000 cycles: 226571997 heartbeat IPC: 1.30533 cumulative IPC: 1.41118 (Simulation time: 0 hr 9 min 49 sec) 
Heartbeat CPU 0 instructions: 370000000 cycles: 233973246 heartbeat IPC: 1.35112 cumulative IPC: 1.40886 (Simulation time: 0 hr 10 min 6 sec) 
Heartbeat CPU 0 instructions: 380000000 cycles: 241242303 heartbeat IPC: 1.37569 cumulative IPC: 1.40765 (Simulation time: 0 hr 10 min 23 sec) 
Heartbeat CPU 0 instructions: 390000000 cycles: 249357329 heartbeat IPC: 1.23228 cumulative IPC: 1.40077 (Simulation time: 0 hr 10 min 41 sec) 
Heartbeat CPU 0 instructions: 400000000 cycles: 257563497 heartbeat IPC: 1.2186 cumulative IPC: 1.39383 (Simulation time: 0 hr 10 min 58 sec) 
Heartbeat CPU 0 instructions: 410000001 cycles: 265381794 heartbeat IPC: 1.27905 cumulative IPC: 1.38981 (Simulation time: 0 hr 11 min 15 sec) 
Heartbeat CPU 0 instructions: 420000000 cycles: 273432126 heartbeat IPC: 1.24218 cumulative IPC: 1.38466 (Simulation time: 0 hr 11 min 33 sec) 
Heartbeat CPU 0 instructions: 430000001 cycles: 281695489 heartbeat IPC: 1.21016 cumulative IPC: 1.37864 (Simulation time: 0 hr 11 min 51 sec) 
Heartbeat CPU 0 instructions: 440000000 cycles: 289739946 heartbeat IPC: 1.24309 cumulative IPC: 1.37423 (Simulation time: 0 hr 12 min 8 sec) 
Heartbeat CPU 0 instructions: 450000001 cycles: 297610257 heartbeat IPC: 1.2706 cumulative IPC: 1.37104 (Simulation time: 0 hr 12 min 26 sec) 
Heartbeat CPU 0 instructions: 460000000 cycles: 307551902 heartbeat IPC: 1.00587 cumulative IPC: 1.35735 (Simulation time: 0 hr 12 min 45 sec) 
Heartbeat CPU 0 instructions: 470000002 cycles: 312176897 heartbeat IPC: 2.16216 cumulative IPC: 1.37114 (Simulation time: 0 hr 13 min 1 sec) 
Heartbeat CPU 0 instructions: 480000000 cycles: 317424305 heartbeat IPC: 1.9057 cumulative IPC: 1.38134 (Simulation time: 0 hr 13 min 18 sec) 
Heartbeat CPU 0 instructions: 490000001 cycles: 324741746 heartbeat IPC: 1.3666 cumulative IPC: 1.38096 (Simulation time: 0 hr 13 min 36 sec) 
Heartbeat CPU 0 instructions: 500000000 cycles: 333474313 heartbeat IPC: 1.14514 cumulative IPC: 1.37388 (Simulation time: 0 hr 13 min 56 sec) 
Heartbeat CPU 0 instructions: 510000002 cycles: 342205953 heartbeat IPC: 1.14526 cumulative IPC: 1.36723 (Simulation time: 0 hr 14 min 16 sec) 
Heartbeat CPU 0 instructions: 520000000 cycles: 350934369 heartbeat IPC: 1.14568 cumulative IPC: 1.36096 (Simulation time: 0 hr 14 min 36 sec) 
Heartbeat CPU 0 instructions: 530000000 cycles: 359642176 heartbeat IPC: 1.14839 cumulative IPC: 1.35513 (Simulation time: 0 hr 14 min 55 sec) 
Heartbeat CPU 0 instructions: 540000000 cycles: 367899035 heartbeat IPC: 1.21111 cumulative IPC: 1.35148 (Simulation time: 0 hr 15 min 14 sec) 
Heartbeat CPU 0 instructions: 550000000 cycles: 374938508 heartbeat IPC: 1.42056 cumulative IPC: 1.35294 (Simulation time: 0 hr 15 min 32 sec) 
Heartbeat CPU 0 instructions: 560000000 cycles: 381552532 heartbeat IPC: 1.51194 cumulative IPC: 1.35604 (Simulation time: 0 hr 15 min 49 sec) 
Heartbeat CPU 0 instructions: 570000002 cycles: 388146372 heartbeat IPC: 1.51657 cumulative IPC: 1.3591 (Simulation time: 0 hr 16 min 7 sec) 
Heartbeat CPU 0 instructions: 580000000 cycles: 394795392 heartbeat IPC: 1.50398 cumulative IPC: 1.36183 (Simulation time: 0 hr 16 min 24 sec) 
Heartbeat CPU 0 instructions: 590000002 cycles: 401481733 heartbeat IPC: 1.49559 cumulative IPC: 1.36432 (Simulation time: 0 hr 16 min 41 sec) 
Heartbeat CPU 0 instructions: 600000000 cycles: 408287519 heartbeat IPC: 1.46934 cumulative IPC: 1.36628 (Simulation time: 0 hr 16 min 58 sec) 
Finished CPU 0 instructions: 500000000 cycles: 365958538 cumulative IPC: 1.36628 (Simulation time: 0 hr 16 min 58 sec) 

CPU 0 Branch Prediction Accuracy: 93.4682% MPKI: 2.44079
Number of Branches: 18683822 Number of Mispredictions: 1220394
Number of LOAD Instructions: 142551610
Number of LOAD Instructions (ROI): 142551610
Number of STORE Instructions: 44807454
Number of STORE Instructions (ROI): 44807454
Total Destination Memory Operands: 48357071
Total Destination Memory Operands (ROI): 48357071
Total Source Memory Operands: 142551610
Total Source Memory Operands (ROI): 142551610
Number of DEPENDED LOADS: 7395197
Number of DEPENDED LOADS (ROI): 7395197
Number of SQ_ADDED: 48357051
Number of SQ_ADDED (ROI): 48357051
Number of LQ_ADDED: 157229065
Number of LQ_ADDED (ROI): 157229065
Number of Instructions read from trace: 600000256

ChampSim completed all CPUs

Region of Interest Statistics

CPU 0 cumulative IPC: 1.36628 instructions: 500000000 cycles: 365958538
ITLB TOTAL     ACCESS:   88177081  HIT:   88177012  MISS:         69
ITLB LOAD      ACCESS:   88177081  HIT:   88177012  MISS:         69
ITLB RFO       ACCESS:          0  HIT:          0  MISS:          0
ITLB PREFETCH  ACCESS:          0  HIT:          0  MISS:          0
ITLB WRITEBACK ACCESS:          0  HIT:          0  MISS:          0
ITLB PREFETCH  REQUESTED:          0  ISSUED:          0  USEFUL:          0  USELESS:          0
ITLB TOTAL MSHR MERGED:         85
ITLB LOAD MSHR MERGED:         85
ITLB RFO MSHR MERGED:          0
ITLB PREFETCH MSHR MERGED:          0
ITLB WRITEBACK MSHR MERGED:          0
ITLB TOTAL ACCESSES:   88177166 HITS:   88177012 MISSES:        154
ITLB LOAD ACCESSES:   88177166 HITS:   88177012 MISSES:        154
ITLB RFO ACCESSES:          0 HITS:          0 MISSES:          0
ITLB PREFETCH ACCESSES:          0 HITS:          0 MISSES:          0
ITLB WRITEBACK ACCESSES:          0 HITS:          0 MISSES:          0
ITLB RQ ACCESS:  500000000
ITLB RQ TO_CACHE:   88177166
ITLB RQ MERGED:  411822834
ITLB RQ FORWARD:          0
ITLB WQ ACCESS:          0
ITLB WQ TO_CACHE:          0
ITLB WQ MERGED:          0
ITLB WQ FORWARD:          0
DTLB TOTAL     ACCESS:   88203070  HIT:   88075654  MISS:     127416
DTLB LOAD      ACCESS:   59485274  HIT:   59392807  MISS:      92467
DTLB RFO       ACCESS:   28717796  HIT:   28682847  MISS:      34949
DTLB PREFETCH  ACCESS:          0  HIT:          0  MISS:          0
DTLB WRITEBACK ACCESS:          0  HIT:          0  MISS:          0
DTLB PREFETCH  REQUESTED:          0  ISSUED:          0  USEFUL:          0  USELESS:          0
DTLB TOTAL MSHR MERGED:     141183
DTLB LOAD MSHR MERGED:     107688
DTLB RFO MSHR MERGED:      33495
DTLB PREFETCH MSHR MERGED:          0
DTLB WRITEBACK MSHR MERGED:          0
DTLB TOTAL ACCESSES:   88344253 HITS:   88075654 MISSES:     268599
DTLB LOAD ACCESSES:   59592962 HITS:   59392807 MISSES:     200155
DTLB RFO ACCESSES:   28751291 HITS:   28682847 MISSES:      68444
DTLB PREFETCH ACCESSES:          0 HITS:          0 MISSES:          0
DTLB WRITEBACK ACCESSES:          0 HITS:          0 MISSES:          0
DTLB RQ ACCESS:  154558696
DTLB RQ TO_CACHE:   88344253
DTLB RQ MERGED:   66214443
DTLB RQ FORWARD:          0
DTLB WQ ACCESS:          0
DTLB WQ TO_CACHE:          0
DTLB WQ MERGED:          0
DTLB WQ FORWARD:          0
L1D TOTAL     ACCESS:  128099745  HIT:  124874220  MISS:    3225525
L1D LOAD      ACCESS:   53172204  HIT:   51976867  MISS:    1195337
L1D RFO       ACCESS:   37385998  HIT:   36771780  MISS:     614218
L1D PREFETCH  ACCESS:   37541543  HIT:   36125573  MISS:    1415970
L1D WRITEBACK ACCESS:          0  HIT:          0  MISS:          0
L1D PREFETCH  REQUESTED:   53657118  ISSUED:   52457022  USEFUL:     352056  USELESS:    1063879
L1D TOTAL MSHR MERGED:    2804079
L1D LOAD MSHR MERGED:     523720
L1D RFO MSHR MERGED:    1568621
L1D PREFETCH MSHR MERGED:     711738
L1D WRITEBACK MSHR MERGED:          0
L1D TOTAL ACCESSES:  130938680 HITS:  124909076 MISSES:    6029604
L1D LOAD ACCESSES:   53659968 HITS:   51979717 MISSES:    1680251
L1D RFO ACCESSES:   38952851 HITS:   36771780 MISSES:    2181071
L1D PREFETCH ACCESSES:   38325861 HITS:   36157579 MISSES:    2168282
L1D WRITEBACK ACCESSES:          0 HITS:          0 MISSES:          0
L1D RQ ACCESS:  113713804
L1D RQ TO_CACHE:   53657118
L1D RQ MERGED:   60053836
L1D RQ FORWARD:          0
L1D WQ ACCESS:   40844891
L1D WQ TO_CACHE:   38952851
L1D WQ MERGED:    1892040
L1D WQ FORWARD:      34856
L1I TOTAL     ACCESS:  108368963  HIT:  107809829  MISS:     559134
L1I LOAD      ACCESS:  108368963  HIT:  107809829  MISS:     559134
L1I RFO       ACCESS:          0  HIT:          0  MISS:          0
L1I PREFETCH  ACCESS:          0  HIT:          0  MISS:          0
L1I WRITEBACK ACCESS:          0  HIT:          0  MISS:          0
L1I PREFETCH  REQUESTED:          0  ISSUED:          0  USEFUL:          0  USELESS:          0
L1I TOTAL MSHR MERGED:     525617
L1I LOAD MSHR MERGED:     525617
L1I RFO MSHR MERGED:          0
L1I PREFETCH MSHR MERGED:          0
L1I WRITEBACK MSHR MERGED:          0
L1I TOTAL ACCESSES:  108894580 HITS:  107809829 MISSES:    1084751
L1I LOAD ACCESSES:  108894580 HITS:  107809829 MISSES:    1084751
L1I RFO ACCESSES:          0 HITS:          0 MISSES:          0
L1I PREFETCH ACCESSES:          0 HITS:          0 MISSES:          0
L1I WRITEBACK ACCESSES:          0 HITS:          0 MISSES:          0
L1I RQ ACCESS:  500000002
L1I RQ TO_CACHE:  108894580
L1I RQ MERGED:  391105422
L1I RQ FORWARD:          0
L1I WQ ACCESS:          0
L1I WQ TO_CACHE:          0
L1I WQ MERGED:          0
L1I WQ FORWARD:          0
L2C TOTAL     ACCESS:    4691878  HIT:    3865843  MISS:     826035
L2C LOAD      ACCESS:    1715556  HIT:    1562678  MISS:     152878
L2C RFO       ACCESS:     611024  HIT:     421174  MISS:     189850
L2C PREFETCH  ACCESS:    1662400  HIT:    1181280  MISS:     481120
L2C WRITEBACK ACCESS:     702898  HIT:     700711  MISS:       2187
L2C PREFETCH  REQUESTED:     256228  ISSUED:     256228  USEFUL:     173096  USELESS:     308690
L2C TOTAL MSHR MERGED:      13440
L2C LOAD MSHR MERGED:       4105
L2C RFO MSHR MERGED:          0
L2C PREFETCH MSHR MERGED:       9335
L2C WRITEBACK MSHR MERGED:          0
L2C TOTAL ACCESSES:    4711954 HITS:    3867443 MISSES:     844511
L2C LOAD ACCESSES:    1715665 HITS:    1562787 MISSES:     152878
L2C RFO ACCESSES:     612450 HITS:     422600 MISSES:     189850
L2C PREFETCH ACCESSES:    1680941 HITS:    1181345 MISSES:     499596
L2C WRITEBACK ACCESSES:     702898 HITS:     700711 MISSES:       2187
L2C RQ ACCESS:    2328115
L2C RQ TO_CACHE:    2326580
L2C RQ MERGED:          0
L2C RQ FORWARD:          0
L2C WQ ACCESS:     702898
L2C WQ TO_CACHE:     702898
L2C WQ MERGED:          0
L2C WQ FORWARD:       1600
LLC TOTAL     ACCESS:    1047481  HIT:     288085  MISS:     759396
LLC LOAD      ACCESS:     148769  HIT:      89641  MISS:      59128
LLC RFO       ACCESS:     189843  HIT:       6118  MISS:     183725
LLC PREFETCH  ACCESS:     487989  HIT:     153726  MISS:     334263
LLC WRITEBACK ACCESS:     220880  HIT:      38600  MISS:     182280
LLC PREFETCH  REQUESTED:          0  ISSUED:          0  USEFUL:       2221  USELESS:     332546
LLC TOTAL MSHR MERGED:       1558
LLC LOAD MSHR MERGED:        510
LLC RFO MSHR MERGED:          0
LLC PREFETCH MSHR MERGED:       1048
LLC WRITEBACK MSHR MERGED:          0
LLC TOTAL ACCESSES:    1049050 HITS:     288096 MISSES:     760954
LLC LOAD ACCESSES:     148773 HITS:      89645 MISSES:      59128
LLC RFO ACCESSES:     189850 HITS:       6125 MISSES:     183725
LLC PREFETCH ACCESSES:     489547 HITS:     153726 MISSES:     335821
LLC WRITEBACK ACCESSES:     220880 HITS:      38600 MISSES:     182280
LLC 0 RQ ACCESS:     338623
LLC 0 RQ TO_CACHE:     338612
LLC 0 RQ MERGED:          0
LLC 0 RQ FORWARD:          0
LLC WQ ACCESS:     220880
LLC WQ TO_CACHE:     220880
LLC WQ MERGED:          0
LLC WQ FORWARD:         11
Major fault: 0 Minor fault: 6811
CPU 0 L1D next line prefetcher final stats
CPU 0 L2C PC-based stride prefetcher final stats
All Misses: 898595
All Hits: 355869
SD Algo Stats - Switches: 0 SRR-Repls: 66516 BRR-Repls: 0

DRAM Statistics
 CHANNEL 0
 RQ ROW_BUFFER_HIT:     289219  ROW_BUFFER_MISS:     287836
 DBUS_CONGESTED:     399371
 WQ ROW_BUFFER_HIT:      24483  ROW_BUFFER_MISS:     191173  FULL:          0

 AVG_CONGESTED_CYCLE: 13
LOADS RETIRED: 119922929
INSTR RETIRED: 500000000
