
*** ChampSim Multicore Out-of-Order Simulator ***

Warmup Instructions: 100000000
Simulation Instructions: 500000000
Number of CPUs: 1
LLC sets: 2048
LLC ways: 16
Clean RRIP Policies: 2213230222132302 Dirty RRIP Policies: 2203131222031312 PSEL Width: 10 Track Set: 4294967295 PSEL Mask: 1 Demote Mask: 3040100030401000DS Algo: 0Window size: 0
Off-chip DRAM Size: 4096 MB Channels: 1 Width: 64-bit Data Rate: 1600 MT/s

CPU 0 runs /mnt/beegfs/iconst01/spec2017/Cam4.trace.gz
NOT SORTED
TRACE STRING: /mnt/beegfs/iconst01/spec2017/Cam4.trace.gz
SORTED
TRACE STRING: /mnt/beegfs/iconst01/spec2017/Cam4.trace.gz
INITIAL
TRACE STRING: /mnt/beegfs/iconst01/spec2017/Cam4.trace.gz

champsim_seed used: 325

CPU 0 L1D next line prefetcher
CPU 0 L2C IP-based stride prefetcher
Initialize DRRIP state
Assign rand_sets[0]: 454  LLC: 2048
rand_sets[0]: 454
Assign rand_sets[1]: 1662  LLC: 2048
rand_sets[1]: 1662
Assign rand_sets[2]: 1921  LLC: 2048
rand_sets[2]: 1921
Assign rand_sets[3]: 1131  LLC: 2048
rand_sets[3]: 1131
Assign rand_sets[4]: 331  LLC: 2048
rand_sets[4]: 331
Assign rand_sets[5]: 1531  LLC: 2048
rand_sets[5]: 1531
Assign rand_sets[6]: 482  LLC: 2048
rand_sets[6]: 482
Assign rand_sets[7]: 1275  LLC: 2048
rand_sets[7]: 1275
Assign rand_sets[8]: 1876  LLC: 2048
rand_sets[8]: 1876
Assign rand_sets[9]: 2038  LLC: 2048
rand_sets[9]: 2038
Assign rand_sets[10]: 701  LLC: 2048
rand_sets[10]: 701
Assign rand_sets[11]: 479  LLC: 2048
rand_sets[11]: 479
Assign rand_sets[12]: 892  LLC: 2048
rand_sets[12]: 892
Assign rand_sets[13]: 1820  LLC: 2048
rand_sets[13]: 1820
Assign rand_sets[14]: 1505  LLC: 2048
rand_sets[14]: 1505
Assign rand_sets[15]: 1159  LLC: 2048
rand_sets[15]: 1159
Assign rand_sets[16]: 513  LLC: 2048
rand_sets[16]: 513
Assign rand_sets[17]: 703  LLC: 2048
rand_sets[17]: 703
Assign rand_sets[18]: 561  LLC: 2048
rand_sets[18]: 561
Assign rand_sets[19]: 990  LLC: 2048
rand_sets[19]: 990
Assign rand_sets[20]: 342  LLC: 2048
rand_sets[20]: 342
Assign rand_sets[21]: 882  LLC: 2048
rand_sets[21]: 882
Assign rand_sets[22]: 15  LLC: 2048
rand_sets[22]: 15
Assign rand_sets[23]: 71  LLC: 2048
rand_sets[23]: 71
Assign rand_sets[24]: 1127  LLC: 2048
rand_sets[24]: 1127
Assign rand_sets[25]: 1382  LLC: 2048
rand_sets[25]: 1382
Assign rand_sets[26]: 647  LLC: 2048
rand_sets[26]: 647
Assign rand_sets[27]: 857  LLC: 2048
rand_sets[27]: 857
Assign rand_sets[28]: 1450  LLC: 2048
rand_sets[28]: 1450
Assign rand_sets[29]: 1160  LLC: 2048
rand_sets[29]: 1160
Assign rand_sets[30]: 1852  LLC: 2048
rand_sets[30]: 1852
Assign rand_sets[31]: 1881  LLC: 2048
rand_sets[31]: 1881
Assign rand_sets[32]: 1770  LLC: 2048
rand_sets[32]: 1770
Assign rand_sets[33]: 1622  LLC: 2048
rand_sets[33]: 1622
Assign rand_sets[34]: 275  LLC: 2048
rand_sets[34]: 275
Assign rand_sets[35]: 635  LLC: 2048
rand_sets[35]: 635
Assign rand_sets[36]: 466  LLC: 2048
rand_sets[36]: 466
Assign rand_sets[37]: 1413  LLC: 2048
rand_sets[37]: 1413
Assign rand_sets[38]: 417  LLC: 2048
rand_sets[38]: 417
Assign rand_sets[39]: 472  LLC: 2048
rand_sets[39]: 472
Assign rand_sets[40]: 1340  LLC: 2048
rand_sets[40]: 1340
Assign rand_sets[41]: 852  LLC: 2048
rand_sets[41]: 852
Assign rand_sets[42]: 1365  LLC: 2048
rand_sets[42]: 1365
Assign rand_sets[43]: 47  LLC: 2048
rand_sets[43]: 47
Assign rand_sets[44]: 823  LLC: 2048
rand_sets[44]: 823
Assign rand_sets[45]: 686  LLC: 2048
rand_sets[45]: 686
Assign rand_sets[46]: 1637  LLC: 2048
rand_sets[46]: 1637
Assign rand_sets[47]: 1115  LLC: 2048
rand_sets[47]: 1115
Assign rand_sets[48]: 986  LLC: 2048
rand_sets[48]: 986
Assign rand_sets[49]: 258  LLC: 2048
rand_sets[49]: 258
Assign rand_sets[50]: 633  LLC: 2048
rand_sets[50]: 633
Assign rand_sets[51]: 920  LLC: 2048
rand_sets[51]: 920
Assign rand_sets[52]: 204  LLC: 2048
rand_sets[52]: 204
Assign rand_sets[53]: 227  LLC: 2048
rand_sets[53]: 227
Assign rand_sets[54]: 1818  LLC: 2048
rand_sets[54]: 1818
Assign rand_sets[55]: 886  LLC: 2048
rand_sets[55]: 886
Assign rand_sets[56]: 1422  LLC: 2048
rand_sets[56]: 1422
Assign rand_sets[57]: 607  LLC: 2048
rand_sets[57]: 607
Assign rand_sets[58]: 217  LLC: 2048
rand_sets[58]: 217
Assign rand_sets[59]: 1945  LLC: 2048
rand_sets[59]: 1945
Assign rand_sets[60]: 143  LLC: 2048
rand_sets[60]: 143
Assign rand_sets[61]: 1311  LLC: 2048
rand_sets[61]: 1311
Assign rand_sets[62]: 319  LLC: 2048
rand_sets[62]: 319
Assign rand_sets[63]: 1846  LLC: 2048
rand_sets[63]: 1846
 CLEAN-RRIP-POLICY-1: 2-2-1-3-2-3-0-2- CLEAN-RRIP-POLICY-2: 2-2-1-3-2-3-0-2-
 DIRTY-RRIP-POLICY-1: 2-2-0-3-1-3-1-2- DIRTY-RRIP-POLICY-2: 2-2-0-3-1-3-1-2-
 PSEL width: 10
Heartbeat CPU 0 instructions: 10000000 cycles: 4859184 heartbeat IPC: 2.05796 cumulative IPC: 2.05796 (Simulation time: 0 hr 0 min 16 sec) 
Heartbeat CPU 0 instructions: 20000000 cycles: 9790786 heartbeat IPC: 2.02774 cumulative IPC: 2.04274 (Simulation time: 0 hr 0 min 33 sec) 
Heartbeat CPU 0 instructions: 30000001 cycles: 14562961 heartbeat IPC: 2.09548 cumulative IPC: 2.06002 (Simulation time: 0 hr 0 min 47 sec) 
Heartbeat CPU 0 instructions: 40000000 cycles: 19399954 heartbeat IPC: 2.0674 cumulative IPC: 2.06186 (Simulation time: 0 hr 1 min 3 sec) 
Heartbeat CPU 0 instructions: 50000000 cycles: 24256467 heartbeat IPC: 2.05909 cumulative IPC: 2.06131 (Simulation time: 0 hr 1 min 20 sec) 
Heartbeat CPU 0 instructions: 60000000 cycles: 29181900 heartbeat IPC: 2.03028 cumulative IPC: 2.05607 (Simulation time: 0 hr 1 min 36 sec) 
Heartbeat CPU 0 instructions: 70000001 cycles: 33956913 heartbeat IPC: 2.09424 cumulative IPC: 2.06144 (Simulation time: 0 hr 1 min 51 sec) 
Heartbeat CPU 0 instructions: 80000000 cycles: 38793175 heartbeat IPC: 2.06771 cumulative IPC: 2.06222 (Simulation time: 0 hr 2 min 7 sec) 
Heartbeat CPU 0 instructions: 90000002 cycles: 43647219 heartbeat IPC: 2.06014 cumulative IPC: 2.06199 (Simulation time: 0 hr 2 min 24 sec) 
Heartbeat CPU 0 instructions: 100000000 cycles: 48566023 heartbeat IPC: 2.03301 cumulative IPC: 2.05905 (Simulation time: 0 hr 2 min 40 sec) 

Warmup complete CPU 0 instructions: 100000001 cycles: 48566024 (Simulation time: 0 hr 2 min 40 sec) 

Heartbeat CPU 0 instructions: 110000000 cycles: 61696910 heartbeat IPC: 0.761563 cumulative IPC: 0.761563 (Simulation time: 0 hr 3 min 3 sec) 
Heartbeat CPU 0 instructions: 120000000 cycles: 75449105 heartbeat IPC: 0.727157 cumulative IPC: 0.743962 (Simulation time: 0 hr 3 min 27 sec) 
Heartbeat CPU 0 instructions: 130000000 cycles: 89195786 heartbeat IPC: 0.727448 cumulative IPC: 0.738375 (Simulation time: 0 hr 3 min 51 sec) 
Heartbeat CPU 0 instructions: 140000000 cycles: 103452238 heartbeat IPC: 0.701437 cumulative IPC: 0.72878 (Simulation time: 0 hr 4 min 16 sec) 
Heartbeat CPU 0 instructions: 150000003 cycles: 116665103 heartbeat IPC: 0.756838 cumulative IPC: 0.734224 (Simulation time: 0 hr 4 min 38 sec) 
Heartbeat CPU 0 instructions: 160000000 cycles: 130414100 heartbeat IPC: 0.727326 cumulative IPC: 0.733065 (Simulation time: 0 hr 5 min 2 sec) 
Heartbeat CPU 0 instructions: 170000001 cycles: 144198844 heartbeat IPC: 0.72544 cumulative IPC: 0.731966 (Simulation time: 0 hr 5 min 26 sec) 
Heartbeat CPU 0 instructions: 180000000 cycles: 158444854 heartbeat IPC: 0.701951 cumulative IPC: 0.728075 (Simulation time: 0 hr 5 min 51 sec) 
Heartbeat CPU 0 instructions: 190000003 cycles: 171632634 heartbeat IPC: 0.758278 cumulative IPC: 0.731311 (Simulation time: 0 hr 6 min 13 sec) 
Heartbeat CPU 0 instructions: 200000000 cycles: 185372724 heartbeat IPC: 0.727797 cumulative IPC: 0.730958 (Simulation time: 0 hr 6 min 37 sec) 
Heartbeat CPU 0 instructions: 210000002 cycles: 199152767 heartbeat IPC: 0.725687 cumulative IPC: 0.730476 (Simulation time: 0 hr 7 min 1 sec) 
Heartbeat CPU 0 instructions: 220000000 cycles: 213395315 heartbeat IPC: 0.702121 cumulative IPC: 0.728026 (Simulation time: 0 hr 7 min 25 sec) 
Heartbeat CPU 0 instructions: 230000001 cycles: 226521968 heartbeat IPC: 0.761809 cumulative IPC: 0.730518 (Simulation time: 0 hr 7 min 48 sec) 
Heartbeat CPU 0 instructions: 240000000 cycles: 240254689 heartbeat IPC: 0.728188 cumulative IPC: 0.730351 (Simulation time: 0 hr 8 min 12 sec) 
Heartbeat CPU 0 instructions: 250000001 cycles: 253985219 heartbeat IPC: 0.728304 cumulative IPC: 0.730214 (Simulation time: 0 hr 8 min 36 sec) 
Heartbeat CPU 0 instructions: 260000000 cycles: 268125736 heartbeat IPC: 0.707188 cumulative IPC: 0.728731 (Simulation time: 0 hr 9 min 0 sec) 
Heartbeat CPU 0 instructions: 270000003 cycles: 281371191 heartbeat IPC: 0.754976 cumulative IPC: 0.730224 (Simulation time: 0 hr 9 min 22 sec) 
Heartbeat CPU 0 instructions: 280000000 cycles: 295120256 heartbeat IPC: 0.727322 cumulative IPC: 0.730062 (Simulation time: 0 hr 9 min 47 sec) 
Heartbeat CPU 0 instructions: 290000001 cycles: 308894687 heartbeat IPC: 0.725983 cumulative IPC: 0.729847 (Simulation time: 0 hr 10 min 11 sec) 
Heartbeat CPU 0 instructions: 300000000 cycles: 322977053 heartbeat IPC: 0.710108 cumulative IPC: 0.728834 (Simulation time: 0 hr 10 min 35 sec) 
Heartbeat CPU 0 instructions: 310000000 cycles: 336233586 heartbeat IPC: 0.754345 cumulative IPC: 0.730009 (Simulation time: 0 hr 10 min 57 sec) 
Heartbeat CPU 0 instructions: 320000000 cycles: 350022355 heartbeat IPC: 0.725228 cumulative IPC: 0.729791 (Simulation time: 0 hr 11 min 22 sec) 
Heartbeat CPU 0 instructions: 330000000 cycles: 363812028 heartbeat IPC: 0.72518 cumulative IPC: 0.729589 (Simulation time: 0 hr 11 min 46 sec) 
Heartbeat CPU 0 instructions: 340000000 cycles: 377873789 heartbeat IPC: 0.711149 cumulative IPC: 0.728801 (Simulation time: 0 hr 12 min 10 sec) 
Heartbeat CPU 0 instructions: 350000000 cycles: 391164104 heartbeat IPC: 0.752428 cumulative IPC: 0.729718 (Simulation time: 0 hr 12 min 32 sec) 
Heartbeat CPU 0 instructions: 360000000 cycles: 404986740 heartbeat IPC: 0.723451 cumulative IPC: 0.729475 (Simulation time: 0 hr 12 min 56 sec) 
Heartbeat CPU 0 instructions: 370000003 cycles: 418780763 heartbeat IPC: 0.724952 cumulative IPC: 0.729306 (Simulation time: 0 hr 13 min 20 sec) 
Heartbeat CPU 0 instructions: 380000000 cycles: 432807889 heartbeat IPC: 0.712904 cumulative IPC: 0.728708 (Simulation time: 0 hr 13 min 45 sec) 
Heartbeat CPU 0 instructions: 390000003 cycles: 446107326 heartbeat IPC: 0.751912 cumulative IPC: 0.729484 (Simulation time: 0 hr 14 min 6 sec) 
Heartbeat CPU 0 instructions: 400000000 cycles: 459918623 heartbeat IPC: 0.724045 cumulative IPC: 0.729301 (Simulation time: 0 hr 14 min 31 sec) 
Heartbeat CPU 0 instructions: 410000000 cycles: 473681789 heartbeat IPC: 0.726577 cumulative IPC: 0.729213 (Simulation time: 0 hr 14 min 55 sec) 
Heartbeat CPU 0 instructions: 420000000 cycles: 487695379 heartbeat IPC: 0.713593 cumulative IPC: 0.728715 (Simulation time: 0 hr 15 min 19 sec) 
Heartbeat CPU 0 instructions: 430000003 cycles: 501012853 heartbeat IPC: 0.750893 cumulative IPC: 0.729367 (Simulation time: 0 hr 15 min 41 sec) 
Heartbeat CPU 0 instructions: 440000000 cycles: 514826676 heartbeat IPC: 0.723912 cumulative IPC: 0.729206 (Simulation time: 0 hr 16 min 5 sec) 
Heartbeat CPU 0 instructions: 450000000 cycles: 528609002 heartbeat IPC: 0.725567 cumulative IPC: 0.729101 (Simulation time: 0 hr 16 min 29 sec) 
Heartbeat CPU 0 instructions: 460000000 cycles: 542601670 heartbeat IPC: 0.71466 cumulative IPC: 0.728692 (Simulation time: 0 hr 16 min 53 sec) 
Heartbeat CPU 0 instructions: 470000001 cycles: 555910656 heartbeat IPC: 0.751372 cumulative IPC: 0.729287 (Simulation time: 0 hr 17 min 15 sec) 
Heartbeat CPU 0 instructions: 480000000 cycles: 569695529 heartbeat IPC: 0.725433 cumulative IPC: 0.729185 (Simulation time: 0 hr 17 min 39 sec) 
Heartbeat CPU 0 instructions: 490000002 cycles: 583453273 heartbeat IPC: 0.726864 cumulative IPC: 0.729126 (Simulation time: 0 hr 18 min 4 sec) 
Heartbeat CPU 0 instructions: 500000000 cycles: 597444854 heartbeat IPC: 0.714715 cumulative IPC: 0.728758 (Simulation time: 0 hr 18 min 28 sec) 
Heartbeat CPU 0 instructions: 510000002 cycles: 610816220 heartbeat IPC: 0.747867 cumulative IPC: 0.729213 (Simulation time: 0 hr 18 min 50 sec) 
Heartbeat CPU 0 instructions: 520000000 cycles: 624585655 heartbeat IPC: 0.726246 cumulative IPC: 0.729142 (Simulation time: 0 hr 19 min 14 sec) 
Heartbeat CPU 0 instructions: 530000003 cycles: 638321437 heartbeat IPC: 0.728026 cumulative IPC: 0.729116 (Simulation time: 0 hr 19 min 38 sec) 
Heartbeat CPU 0 instructions: 540000000 cycles: 652332100 heartbeat IPC: 0.713742 cumulative IPC: 0.728759 (Simulation time: 0 hr 20 min 2 sec) 
Heartbeat CPU 0 instructions: 550000003 cycles: 665689951 heartbeat IPC: 0.748624 cumulative IPC: 0.729189 (Simulation time: 0 hr 20 min 24 sec) 
Heartbeat CPU 0 instructions: 560000000 cycles: 679438895 heartbeat IPC: 0.727328 cumulative IPC: 0.729149 (Simulation time: 0 hr 20 min 48 sec) 
Heartbeat CPU 0 instructions: 570000001 cycles: 693204612 heartbeat IPC: 0.726442 cumulative IPC: 0.729091 (Simulation time: 0 hr 21 min 12 sec) 
Heartbeat CPU 0 instructions: 580000000 cycles: 707242545 heartbeat IPC: 0.712355 cumulative IPC: 0.728734 (Simulation time: 0 hr 21 min 37 sec) 
Heartbeat CPU 0 instructions: 590000000 cycles: 720543500 heartbeat IPC: 0.751826 cumulative IPC: 0.729191 (Simulation time: 0 hr 21 min 58 sec) 
Heartbeat CPU 0 instructions: 600000000 cycles: 734297803 heartbeat IPC: 0.727045 cumulative IPC: 0.729148 (Simulation time: 0 hr 22 min 22 sec) 
Finished CPU 0 instructions: 500000001 cycles: 685731787 cumulative IPC: 0.729148 (Simulation time: 0 hr 22 min 22 sec) 

CPU 0 Branch Prediction Accuracy: 97.5275% MPKI: 2.1997
Number of Branches: 44482865 Number of Mispredictions: 1099852
Number of LOAD Instructions: 144955155
Number of LOAD Instructions (ROI): 144955155
Number of STORE Instructions: 55921098
Number of STORE Instructions (ROI): 55921098
Total Destination Memory Operands: 57111147
Total Destination Memory Operands (ROI): 57111147
Total Source Memory Operands: 144955155
Total Source Memory Operands (ROI): 144955155
Number of DEPENDED LOADS: 13454853
Number of DEPENDED LOADS (ROI): 13454853
Number of SQ_ADDED: 57111126
Number of SQ_ADDED (ROI): 57111126
Number of LQ_ADDED: 174369212
Number of LQ_ADDED (ROI): 174369212
Number of Instructions read from trace: 600000256

ChampSim completed all CPUs

Region of Interest Statistics

CPU 0 cumulative IPC: 0.729148 instructions: 500000001 cycles: 685731787
ITLB TOTAL     ACCESS:  136063549  HIT:  136060996  MISS:       2553
ITLB LOAD      ACCESS:  136063549  HIT:  136060996  MISS:       2553
ITLB RFO       ACCESS:          0  HIT:          0  MISS:          0
ITLB PREFETCH  ACCESS:          0  HIT:          0  MISS:          0
ITLB WRITEBACK ACCESS:          0  HIT:          0  MISS:          0
ITLB PREFETCH  REQUESTED:          0  ISSUED:          0  USEFUL:          0  USELESS:          0
ITLB TOTAL MSHR MERGED:       4370
ITLB LOAD MSHR MERGED:       4370
ITLB RFO MSHR MERGED:          0
ITLB PREFETCH MSHR MERGED:          0
ITLB WRITEBACK MSHR MERGED:          0
ITLB TOTAL ACCESSES:  136067919 HITS:  136060996 MISSES:       6923
ITLB LOAD ACCESSES:  136067919 HITS:  136060996 MISSES:       6923
ITLB RFO ACCESSES:          0 HITS:          0 MISSES:          0
ITLB PREFETCH ACCESSES:          0 HITS:          0 MISSES:          0
ITLB WRITEBACK ACCESSES:          0 HITS:          0 MISSES:          0
ITLB RQ ACCESS:  500000202
ITLB RQ TO_CACHE:  136067919
ITLB RQ MERGED:  363932283
ITLB RQ FORWARD:          0
ITLB WQ ACCESS:          0
ITLB WQ TO_CACHE:          0
ITLB WQ MERGED:          0
ITLB WQ FORWARD:          0
DTLB TOTAL     ACCESS:  111547067  HIT:  111410875  MISS:     136192
DTLB LOAD      ACCESS:   78949687  HIT:   78824063  MISS:     125624
DTLB RFO       ACCESS:   32597380  HIT:   32586812  MISS:      10568
DTLB PREFETCH  ACCESS:          0  HIT:          0  MISS:          0
DTLB WRITEBACK ACCESS:          0  HIT:          0  MISS:          0
DTLB PREFETCH  REQUESTED:          0  ISSUED:          0  USEFUL:          0  USELESS:          0
DTLB TOTAL MSHR MERGED:      63512
DTLB LOAD MSHR MERGED:      50937
DTLB RFO MSHR MERGED:      12575
DTLB PREFETCH MSHR MERGED:          0
DTLB WRITEBACK MSHR MERGED:          0
DTLB TOTAL ACCESSES:  111610579 HITS:  111410875 MISSES:     199704
DTLB LOAD ACCESSES:   79000624 HITS:   78824063 MISSES:     176561
DTLB RFO ACCESSES:   32609955 HITS:   32586812 MISSES:      23143
DTLB PREFETCH ACCESSES:          0 HITS:          0 MISSES:          0
DTLB WRITEBACK ACCESSES:          0 HITS:          0 MISSES:          0
DTLB RQ ACCESS:  157180580
DTLB RQ TO_CACHE:  111610579
DTLB RQ MERGED:   45570001
DTLB RQ FORWARD:          0
DTLB WQ ACCESS:          0
DTLB WQ TO_CACHE:          0
DTLB WQ MERGED:          0
DTLB WQ FORWARD:          0
L1D TOTAL     ACCESS:  198230636  HIT:  188389587  MISS:    9841049
L1D LOAD      ACCESS:   79949422  HIT:   75686958  MISS:    4262464
L1D RFO       ACCESS:   44529102  HIT:   43628664  MISS:     900438
L1D PREFETCH  ACCESS:   73752112  HIT:   69073965  MISS:    4678147
L1D WRITEBACK ACCESS:          0  HIT:          0  MISS:          0
L1D PREFETCH  REQUESTED:   80345379  ISSUED:   79889772  USEFUL:    1819891  USELESS:    2858165
L1D TOTAL MSHR MERGED:    2497074
L1D LOAD MSHR MERGED:     519785
L1D RFO MSHR MERGED:    1423497
L1D PREFETCH MSHR MERGED:     553792
L1D WRITEBACK MSHR MERGED:          0
L1D TOTAL ACCESSES:  200749094 HITS:  188410971 MISSES:   12338123
L1D LOAD ACCESSES:   80358129 HITS:   75699708 MISSES:    4658421
L1D RFO ACCESSES:   45949530 HITS:   43628664 MISSES:    2320866
L1D PREFETCH ACCESSES:   74441435 HITS:   69082599 MISSES:    5358836
L1D WRITEBACK ACCESSES:          0 HITS:          0 MISSES:          0
L1D RQ ACCESS:  109538610
L1D RQ TO_CACHE:   80345379
L1D RQ MERGED:   29180481
L1D RQ FORWARD:          0
L1D WQ ACCESS:   47641970
L1D WQ TO_CACHE:   45949530
L1D WQ MERGED:    1692440
L1D WQ FORWARD:      21384
L1I TOTAL     ACCESS:  161534217  HIT:  161270242  MISS:     263975
L1I LOAD      ACCESS:  161534217  HIT:  161270242  MISS:     263975
L1I RFO       ACCESS:          0  HIT:          0  MISS:          0
L1I PREFETCH  ACCESS:          0  HIT:          0  MISS:          0
L1I WRITEBACK ACCESS:          0  HIT:          0  MISS:          0
L1I PREFETCH  REQUESTED:          0  ISSUED:          0  USEFUL:          0  USELESS:          0
L1I TOTAL MSHR MERGED:     260846
L1I LOAD MSHR MERGED:     260846
L1I RFO MSHR MERGED:          0
L1I PREFETCH MSHR MERGED:          0
L1I WRITEBACK MSHR MERGED:          0
L1I TOTAL ACCESSES:  161795063 HITS:  161270242 MISSES:     524821
L1I LOAD ACCESSES:  161795063 HITS:  161270242 MISSES:     524821
L1I RFO ACCESSES:          0 HITS:          0 MISSES:          0
L1I PREFETCH ACCESSES:          0 HITS:          0 MISSES:          0
L1I WRITEBACK ACCESSES:          0 HITS:          0 MISSES:          0
L1I RQ ACCESS:  500000202
L1I RQ TO_CACHE:  161795063
L1I RQ MERGED:  338205139
L1I RQ FORWARD:          0
L1I WQ ACCESS:          0
L1I WQ TO_CACHE:          0
L1I WQ MERGED:          0
L1I WQ FORWARD:          0
L2C TOTAL     ACCESS:   11771677  HIT:   10382364  MISS:    1389313
L2C LOAD      ACCESS:    4402546  HIT:    3905861  MISS:     496685
L2C RFO       ACCESS:     897305  HIT:     536259  MISS:     361046
L2C PREFETCH  ACCESS:    5284283  HIT:    4755646  MISS:     528637
L2C WRITEBACK ACCESS:    1187543  HIT:    1184598  MISS:       2945
L2C PREFETCH  REQUESTED:     504506  ISSUED:     504506  USEFUL:     114937  USELESS:     413892
L2C TOTAL MSHR MERGED:       2001
L2C LOAD MSHR MERGED:        407
L2C RFO MSHR MERGED:          0
L2C PREFETCH MSHR MERGED:       1594
L2C WRITEBACK MSHR MERGED:          0
L2C TOTAL ACCESSES:   11776400 HITS:   10382581 MISSES:    1393819
L2C LOAD ACCESSES:    4402611 HITS:    3905926 MISSES:     496685
L2C RFO ACCESSES:     897369 HITS:     536323 MISSES:     361046
L2C PREFETCH ACCESSES:    5288877 HITS:    4755734 MISSES:     533143
L2C WRITEBACK ACCESSES:    1187543 HITS:    1184598 MISSES:       2945
L2C RQ ACCESS:    5299980
L2C RQ TO_CACHE:    5299851
L2C RQ MERGED:          0
L2C RQ FORWARD:          0
L2C WQ ACCESS:    1187543
L2C WQ TO_CACHE:    1187543
L2C WQ MERGED:          0
L2C WQ FORWARD:        217
LLC TOTAL     ACCESS:    1849502  HIT:    1111043  MISS:     738459
LLC LOAD      ACCESS:     496276  HIT:     239382  MISS:     256894
LLC RFO       ACCESS:     361043  HIT:     217381  MISS:     143662
LLC PREFETCH  ACCESS:     531445  HIT:     317493  MISS:     213952
LLC WRITEBACK ACCESS:     460738  HIT:     336787  MISS:     123951
LLC PREFETCH  REQUESTED:          0  ISSUED:          0  USEFUL:       2822  USELESS:     211175
LLC TOTAL MSHR MERGED:         78
LLC LOAD MSHR MERGED:         37
LLC RFO MSHR MERGED:          0
LLC PREFETCH MSHR MERGED:         41
LLC WRITEBACK MSHR MERGED:          0
LLC TOTAL ACCESSES:    1849606 HITS:    1111069 MISSES:     738537
LLC LOAD ACCESSES:     496278 HITS:     239384 MISSES:     256894
LLC RFO ACCESSES:     361046 HITS:     217384 MISSES:     143662
LLC PREFETCH ACCESSES:     531544 HITS:     317514 MISSES:     214030
LLC WRITEBACK ACCESSES:     460738 HITS:     336787 MISSES:     123951
LLC 0 RQ ACCESS:     857324
LLC 0 RQ TO_CACHE:     857319
LLC 0 RQ MERGED:          0
LLC 0 RQ FORWARD:          0
LLC WQ ACCESS:     460738
LLC WQ TO_CACHE:     460738
LLC WQ MERGED:          0
LLC WQ FORWARD:         26
Major fault: 0 Minor fault: 3073
CPU 0 L1D next line prefetcher final stats
CPU 0 L2C PC-based stride prefetcher final stats
All Misses: 895199
All Hits: 1280995
SD Algo Stats - Switches: 0 SRR-Repls: 295296 BRR-Repls: 0

DRAM Statistics
 CHANNEL 0
 RQ ROW_BUFFER_HIT:     411975  ROW_BUFFER_MISS:     202278
 DBUS_CONGESTED:     463777
 WQ ROW_BUFFER_HIT:      18416  ROW_BUFFER_MISS:     133797  FULL:          0

 AVG_CONGESTED_CYCLE: 13
LOADS RETIRED: 120673965
INSTR RETIRED: 500000000
