
*** ChampSim Multicore Out-of-Order Simulator ***

Warmup Instructions: 100000000
Simulation Instructions: 500000000
Number of CPUs: 1
LLC sets: 2048
LLC ways: 16
Clean RRIP Policies: 2313210323132103 Dirty RRIP Policies: 2303110323031103 PSEL Width: 10 Track Set: 4294967295 PSEL Mask: 1 Demote Mask: 4330130143301301DS Algo: 0Window size: 0
Off-chip DRAM Size: 4096 MB Channels: 1 Width: 64-bit Data Rate: 1600 MT/s

CPU 0 runs /mnt/beegfs/iconst01/spec2017/Lbm.trace.gz
NOT SORTED
TRACE STRING: /mnt/beegfs/iconst01/spec2017/Lbm.trace.gz
SORTED
TRACE STRING: /mnt/beegfs/iconst01/spec2017/Lbm.trace.gz
INITIAL
TRACE STRING: /mnt/beegfs/iconst01/spec2017/Lbm.trace.gz

champsim_seed used: 283

CPU 0 L1D next line prefetcher
CPU 0 L2C IP-based stride prefetcher
Initialize DRRIP state
Assign rand_sets[0]: 454  LLC: 2048
rand_sets[0]: 454
Assign rand_sets[1]: 1662  LLC: 2048
rand_sets[1]: 1662
Assign rand_sets[2]: 1921  LLC: 2048
rand_sets[2]: 1921
Assign rand_sets[3]: 1131  LLC: 2048
rand_sets[3]: 1131
Assign rand_sets[4]: 331  LLC: 2048
rand_sets[4]: 331
Assign rand_sets[5]: 1531  LLC: 2048
rand_sets[5]: 1531
Assign rand_sets[6]: 482  LLC: 2048
rand_sets[6]: 482
Assign rand_sets[7]: 1275  LLC: 2048
rand_sets[7]: 1275
Assign rand_sets[8]: 1876  LLC: 2048
rand_sets[8]: 1876
Assign rand_sets[9]: 2038  LLC: 2048
rand_sets[9]: 2038
Assign rand_sets[10]: 701  LLC: 2048
rand_sets[10]: 701
Assign rand_sets[11]: 479  LLC: 2048
rand_sets[11]: 479
Assign rand_sets[12]: 892  LLC: 2048
rand_sets[12]: 892
Assign rand_sets[13]: 1820  LLC: 2048
rand_sets[13]: 1820
Assign rand_sets[14]: 1505  LLC: 2048
rand_sets[14]: 1505
Assign rand_sets[15]: 1159  LLC: 2048
rand_sets[15]: 1159
Assign rand_sets[16]: 513  LLC: 2048
rand_sets[16]: 513
Assign rand_sets[17]: 703  LLC: 2048
rand_sets[17]: 703
Assign rand_sets[18]: 561  LLC: 2048
rand_sets[18]: 561
Assign rand_sets[19]: 990  LLC: 2048
rand_sets[19]: 990
Assign rand_sets[20]: 342  LLC: 2048
rand_sets[20]: 342
Assign rand_sets[21]: 882  LLC: 2048
rand_sets[21]: 882
Assign rand_sets[22]: 15  LLC: 2048
rand_sets[22]: 15
Assign rand_sets[23]: 71  LLC: 2048
rand_sets[23]: 71
Assign rand_sets[24]: 1127  LLC: 2048
rand_sets[24]: 1127
Assign rand_sets[25]: 1382  LLC: 2048
rand_sets[25]: 1382
Assign rand_sets[26]: 647  LLC: 2048
rand_sets[26]: 647
Assign rand_sets[27]: 857  LLC: 2048
rand_sets[27]: 857
Assign rand_sets[28]: 1450  LLC: 2048
rand_sets[28]: 1450
Assign rand_sets[29]: 1160  LLC: 2048
rand_sets[29]: 1160
Assign rand_sets[30]: 1852  LLC: 2048
rand_sets[30]: 1852
Assign rand_sets[31]: 1881  LLC: 2048
rand_sets[31]: 1881
Assign rand_sets[32]: 1770  LLC: 2048
rand_sets[32]: 1770
Assign rand_sets[33]: 1622  LLC: 2048
rand_sets[33]: 1622
Assign rand_sets[34]: 275  LLC: 2048
rand_sets[34]: 275
Assign rand_sets[35]: 635  LLC: 2048
rand_sets[35]: 635
Assign rand_sets[36]: 466  LLC: 2048
rand_sets[36]: 466
Assign rand_sets[37]: 1413  LLC: 2048
rand_sets[37]: 1413
Assign rand_sets[38]: 417  LLC: 2048
rand_sets[38]: 417
Assign rand_sets[39]: 472  LLC: 2048
rand_sets[39]: 472
Assign rand_sets[40]: 1340  LLC: 2048
rand_sets[40]: 1340
Assign rand_sets[41]: 852  LLC: 2048
rand_sets[41]: 852
Assign rand_sets[42]: 1365  LLC: 2048
rand_sets[42]: 1365
Assign rand_sets[43]: 47  LLC: 2048
rand_sets[43]: 47
Assign rand_sets[44]: 823  LLC: 2048
rand_sets[44]: 823
Assign rand_sets[45]: 686  LLC: 2048
rand_sets[45]: 686
Assign rand_sets[46]: 1637  LLC: 2048
rand_sets[46]: 1637
Assign rand_sets[47]: 1115  LLC: 2048
rand_sets[47]: 1115
Assign rand_sets[48]: 986  LLC: 2048
rand_sets[48]: 986
Assign rand_sets[49]: 258  LLC: 2048
rand_sets[49]: 258
Assign rand_sets[50]: 633  LLC: 2048
rand_sets[50]: 633
Assign rand_sets[51]: 920  LLC: 2048
rand_sets[51]: 920
Assign rand_sets[52]: 204  LLC: 2048
rand_sets[52]: 204
Assign rand_sets[53]: 227  LLC: 2048
rand_sets[53]: 227
Assign rand_sets[54]: 1818  LLC: 2048
rand_sets[54]: 1818
Assign rand_sets[55]: 886  LLC: 2048
rand_sets[55]: 886
Assign rand_sets[56]: 1422  LLC: 2048
rand_sets[56]: 1422
Assign rand_sets[57]: 607  LLC: 2048
rand_sets[57]: 607
Assign rand_sets[58]: 217  LLC: 2048
rand_sets[58]: 217
Assign rand_sets[59]: 1945  LLC: 2048
rand_sets[59]: 1945
Assign rand_sets[60]: 143  LLC: 2048
rand_sets[60]: 143
Assign rand_sets[61]: 1311  LLC: 2048
rand_sets[61]: 1311
Assign rand_sets[62]: 319  LLC: 2048
rand_sets[62]: 319
Assign rand_sets[63]: 1846  LLC: 2048
rand_sets[63]: 1846
 CLEAN-RRIP-POLICY-1: 2-3-1-3-2-1-0-3- CLEAN-RRIP-POLICY-2: 2-3-1-3-2-1-0-3-
 DIRTY-RRIP-POLICY-1: 2-3-0-3-1-1-0-3- DIRTY-RRIP-POLICY-2: 2-3-0-3-1-1-0-3-
 PSEL width: 10
Heartbeat CPU 0 instructions: 10000000 cycles: 4321571 heartbeat IPC: 2.31397 cumulative IPC: 2.31397 (Simulation time: 0 hr 0 min 18 sec) 
Heartbeat CPU 0 instructions: 20000000 cycles: 8643644 heartbeat IPC: 2.3137 cumulative IPC: 2.31384 (Simulation time: 0 hr 0 min 36 sec) 
Heartbeat CPU 0 instructions: 30000000 cycles: 12965453 heartbeat IPC: 2.31385 cumulative IPC: 2.31384 (Simulation time: 0 hr 0 min 55 sec) 
Heartbeat CPU 0 instructions: 40000000 cycles: 17291206 heartbeat IPC: 2.31174 cumulative IPC: 2.31331 (Simulation time: 0 hr 1 min 13 sec) 
Heartbeat CPU 0 instructions: 50000000 cycles: 21613068 heartbeat IPC: 2.31382 cumulative IPC: 2.31342 (Simulation time: 0 hr 1 min 31 sec) 
Heartbeat CPU 0 instructions: 60000000 cycles: 25934948 heartbeat IPC: 2.31381 cumulative IPC: 2.31348 (Simulation time: 0 hr 1 min 50 sec) 
Heartbeat CPU 0 instructions: 70000000 cycles: 30256519 heartbeat IPC: 2.31397 cumulative IPC: 2.31355 (Simulation time: 0 hr 2 min 8 sec) 
Heartbeat CPU 0 instructions: 80000000 cycles: 34582711 heartbeat IPC: 2.3115 cumulative IPC: 2.31329 (Simulation time: 0 hr 2 min 27 sec) 
Heartbeat CPU 0 instructions: 90000003 cycles: 38904775 heartbeat IPC: 2.31371 cumulative IPC: 2.31334 (Simulation time: 0 hr 2 min 45 sec) 
Heartbeat CPU 0 instructions: 100000000 cycles: 43226214 heartbeat IPC: 2.31404 cumulative IPC: 2.31341 (Simulation time: 0 hr 3 min 4 sec) 

Warmup complete CPU 0 instructions: 100000001 cycles: 43226215 (Simulation time: 0 hr 3 min 4 sec) 

Heartbeat CPU 0 instructions: 110000000 cycles: 57852782 heartbeat IPC: 0.683687 cumulative IPC: 0.683687 (Simulation time: 0 hr 3 min 30 sec) 
Heartbeat CPU 0 instructions: 120000000 cycles: 72226218 heartbeat IPC: 0.695728 cumulative IPC: 0.689655 (Simulation time: 0 hr 3 min 57 sec) 
Heartbeat CPU 0 instructions: 130000000 cycles: 86311606 heartbeat IPC: 0.709956 cumulative IPC: 0.696292 (Simulation time: 0 hr 4 min 23 sec) 
Heartbeat CPU 0 instructions: 140000000 cycles: 100390316 heartbeat IPC: 0.710292 cumulative IPC: 0.69974 (Simulation time: 0 hr 4 min 49 sec) 
Heartbeat CPU 0 instructions: 150000003 cycles: 113680746 heartbeat IPC: 0.752421 cumulative IPC: 0.709678 (Simulation time: 0 hr 5 min 15 sec) 
Heartbeat CPU 0 instructions: 160000000 cycles: 127714787 heartbeat IPC: 0.712553 cumulative IPC: 0.710155 (Simulation time: 0 hr 5 min 41 sec) 
Heartbeat CPU 0 instructions: 170000002 cycles: 142345272 heartbeat IPC: 0.683504 cumulative IPC: 0.706221 (Simulation time: 0 hr 6 min 8 sec) 
Heartbeat CPU 0 instructions: 180000000 cycles: 156230135 heartbeat IPC: 0.720209 cumulative IPC: 0.70794 (Simulation time: 0 hr 6 min 34 sec) 
Heartbeat CPU 0 instructions: 190000003 cycles: 173081839 heartbeat IPC: 0.593412 cumulative IPC: 0.693077 (Simulation time: 0 hr 7 min 3 sec) 
Heartbeat CPU 0 instructions: 200000000 cycles: 193328292 heartbeat IPC: 0.493914 cumulative IPC: 0.666213 (Simulation time: 0 hr 7 min 35 sec) 
Heartbeat CPU 0 instructions: 210000001 cycles: 207550402 heartbeat IPC: 0.703131 cumulative IPC: 0.669408 (Simulation time: 0 hr 8 min 1 sec) 
Heartbeat CPU 0 instructions: 220000000 cycles: 221776078 heartbeat IPC: 0.702954 cumulative IPC: 0.672081 (Simulation time: 0 hr 8 min 28 sec) 
Heartbeat CPU 0 instructions: 230000001 cycles: 235872777 heartbeat IPC: 0.709386 cumulative IPC: 0.674811 (Simulation time: 0 hr 8 min 54 sec) 
Heartbeat CPU 0 instructions: 240000000 cycles: 249943043 heartbeat IPC: 0.710719 cumulative IPC: 0.677255 (Simulation time: 0 hr 9 min 20 sec) 
Heartbeat CPU 0 instructions: 250000000 cycles: 264655941 heartbeat IPC: 0.679676 cumulative IPC: 0.677416 (Simulation time: 0 hr 9 min 47 sec) 
Heartbeat CPU 0 instructions: 260000000 cycles: 279571364 heartbeat IPC: 0.670447 cumulative IPC: 0.676976 (Simulation time: 0 hr 10 min 14 sec) 
Heartbeat CPU 0 instructions: 270000002 cycles: 294659898 heartbeat IPC: 0.662755 cumulative IPC: 0.676123 (Simulation time: 0 hr 10 min 41 sec) 
Heartbeat CPU 0 instructions: 280000000 cycles: 309421578 heartbeat IPC: 0.67743 cumulative IPC: 0.676195 (Simulation time: 0 hr 11 min 8 sec) 
Heartbeat CPU 0 instructions: 290000003 cycles: 324933183 heartbeat IPC: 0.644679 cumulative IPC: 0.67446 (Simulation time: 0 hr 11 min 36 sec) 
Heartbeat CPU 0 instructions: 300000000 cycles: 340452999 heartbeat IPC: 0.644337 cumulative IPC: 0.672887 (Simulation time: 0 hr 12 min 3 sec) 
Heartbeat CPU 0 instructions: 310000000 cycles: 356443961 heartbeat IPC: 0.625353 cumulative IPC: 0.67046 (Simulation time: 0 hr 12 min 31 sec) 
Heartbeat CPU 0 instructions: 320000000 cycles: 371981030 heartbeat IPC: 0.643622 cumulative IPC: 0.669192 (Simulation time: 0 hr 12 min 58 sec) 
Heartbeat CPU 0 instructions: 330000002 cycles: 387218900 heartbeat IPC: 0.65626 cumulative IPC: 0.668619 (Simulation time: 0 hr 13 min 25 sec) 
Heartbeat CPU 0 instructions: 340000000 cycles: 403237422 heartbeat IPC: 0.624277 cumulative IPC: 0.666646 (Simulation time: 0 hr 13 min 52 sec) 
Heartbeat CPU 0 instructions: 350000001 cycles: 418041066 heartbeat IPC: 0.675509 cumulative IPC: 0.666996 (Simulation time: 0 hr 14 min 18 sec) 
Heartbeat CPU 0 instructions: 360000000 cycles: 433242539 heartbeat IPC: 0.657831 cumulative IPC: 0.666639 (Simulation time: 0 hr 14 min 45 sec) 
Heartbeat CPU 0 instructions: 370000000 cycles: 448093064 heartbeat IPC: 0.673377 cumulative IPC: 0.666886 (Simulation time: 0 hr 15 min 12 sec) 
Heartbeat CPU 0 instructions: 380000000 cycles: 462913863 heartbeat IPC: 0.674727 cumulative IPC: 0.667163 (Simulation time: 0 hr 15 min 38 sec) 
Heartbeat CPU 0 instructions: 390000000 cycles: 477091932 heartbeat IPC: 0.705315 cumulative IPC: 0.66841 (Simulation time: 0 hr 16 min 4 sec) 
Heartbeat CPU 0 instructions: 400000000 cycles: 491275660 heartbeat IPC: 0.705033 cumulative IPC: 0.669569 (Simulation time: 0 hr 16 min 30 sec) 
Heartbeat CPU 0 instructions: 410000000 cycles: 505356087 heartbeat IPC: 0.710206 cumulative IPC: 0.670807 (Simulation time: 0 hr 16 min 55 sec) 
Heartbeat CPU 0 instructions: 420000000 cycles: 519009510 heartbeat IPC: 0.732417 cumulative IPC: 0.672575 (Simulation time: 0 hr 17 min 20 sec) 
Heartbeat CPU 0 instructions: 430000002 cycles: 532742089 heartbeat IPC: 0.728195 cumulative IPC: 0.674135 (Simulation time: 0 hr 17 min 45 sec) 
Heartbeat CPU 0 instructions: 440000000 cycles: 546452589 heartbeat IPC: 0.729368 cumulative IPC: 0.67564 (Simulation time: 0 hr 18 min 11 sec) 
Heartbeat CPU 0 instructions: 450000000 cycles: 560283090 heartbeat IPC: 0.72304 cumulative IPC: 0.676908 (Simulation time: 0 hr 18 min 36 sec) 
Heartbeat CPU 0 instructions: 460000000 cycles: 575154900 heartbeat IPC: 0.672413 cumulative IPC: 0.676782 (Simulation time: 0 hr 19 min 2 sec) 
Heartbeat CPU 0 instructions: 470000000 cycles: 589483165 heartbeat IPC: 0.697921 cumulative IPC: 0.677337 (Simulation time: 0 hr 19 min 27 sec) 
Heartbeat CPU 0 instructions: 480000000 cycles: 603486190 heartbeat IPC: 0.714131 cumulative IPC: 0.678257 (Simulation time: 0 hr 19 min 53 sec) 
Heartbeat CPU 0 instructions: 490000001 cycles: 617834768 heartbeat IPC: 0.696933 cumulative IPC: 0.678723 (Simulation time: 0 hr 20 min 18 sec) 
Heartbeat CPU 0 instructions: 500000000 cycles: 632327484 heartbeat IPC: 0.690002 cumulative IPC: 0.679 (Simulation time: 0 hr 20 min 44 sec) 
Heartbeat CPU 0 instructions: 510000002 cycles: 646430214 heartbeat IPC: 0.709083 cumulative IPC: 0.679704 (Simulation time: 0 hr 21 min 9 sec) 
Heartbeat CPU 0 instructions: 520000000 cycles: 660833099 heartbeat IPC: 0.694305 cumulative IPC: 0.680044 (Simulation time: 0 hr 21 min 35 sec) 
Heartbeat CPU 0 instructions: 530000001 cycles: 674971137 heartbeat IPC: 0.707312 cumulative IPC: 0.680654 (Simulation time: 0 hr 22 min 1 sec) 
Heartbeat CPU 0 instructions: 540000000 cycles: 689703604 heartbeat IPC: 0.678773 cumulative IPC: 0.680612 (Simulation time: 0 hr 22 min 26 sec) 
Heartbeat CPU 0 instructions: 550000003 cycles: 703508767 heartbeat IPC: 0.724367 cumulative IPC: 0.681526 (Simulation time: 0 hr 22 min 52 sec) 
Heartbeat CPU 0 instructions: 560000000 cycles: 717928946 heartbeat IPC: 0.693472 cumulative IPC: 0.681782 (Simulation time: 0 hr 23 min 17 sec) 
Heartbeat CPU 0 instructions: 570000001 cycles: 732273682 heartbeat IPC: 0.69712 cumulative IPC: 0.682101 (Simulation time: 0 hr 23 min 43 sec) 
Heartbeat CPU 0 instructions: 580000000 cycles: 745683438 heartbeat IPC: 0.745726 cumulative IPC: 0.683316 (Simulation time: 0 hr 24 min 8 sec) 
Heartbeat CPU 0 instructions: 590000003 cycles: 758611402 heartbeat IPC: 0.773517 cumulative IPC: 0.684946 (Simulation time: 0 hr 24 min 32 sec) 
Heartbeat CPU 0 instructions: 600000000 cycles: 772778803 heartbeat IPC: 0.705846 cumulative IPC: 0.685352 (Simulation time: 0 hr 24 min 58 sec) 
Finished CPU 0 instructions: 500000000 cycles: 729552596 cumulative IPC: 0.685352 (Simulation time: 0 hr 24 min 58 sec) 

CPU 0 Branch Prediction Accuracy: 99.5915% MPKI: 0.037126
Number of Branches: 4544106 Number of Mispredictions: 18563
Number of LOAD Instructions: 149787067
Number of LOAD Instructions (ROI): 149787067
Number of STORE Instructions: 77239062
Number of STORE Instructions (ROI): 77239062
Total Destination Memory Operands: 77239062
Total Destination Memory Operands (ROI): 77239062
Total Source Memory Operands: 149787067
Total Source Memory Operands (ROI): 149787067
Number of DEPENDED LOADS: 19250522
Number of DEPENDED LOADS (ROI): 19250522
Number of SQ_ADDED: 77239036
Number of SQ_ADDED (ROI): 77239036
Number of LQ_ADDED: 149787020
Number of LQ_ADDED (ROI): 149787020
Number of Instructions read from trace: 600000256

ChampSim completed all CPUs

Region of Interest Statistics

CPU 0 cumulative IPC: 0.685352 instructions: 500000000 cycles: 729552596
ITLB TOTAL     ACCESS:   86475396  HIT:   86475395  MISS:          1
ITLB LOAD      ACCESS:   86475396  HIT:   86475395  MISS:          1
ITLB RFO       ACCESS:          0  HIT:          0  MISS:          0
ITLB PREFETCH  ACCESS:          0  HIT:          0  MISS:          0
ITLB WRITEBACK ACCESS:          0  HIT:          0  MISS:          0
ITLB PREFETCH  REQUESTED:          0  ISSUED:          0  USEFUL:          0  USELESS:          0
ITLB TOTAL MSHR MERGED:          1
ITLB LOAD MSHR MERGED:          1
ITLB RFO MSHR MERGED:          0
ITLB PREFETCH MSHR MERGED:          0
ITLB WRITEBACK MSHR MERGED:          0
ITLB TOTAL ACCESSES:   86475397 HITS:   86475395 MISSES:          2
ITLB LOAD ACCESSES:   86475397 HITS:   86475395 MISSES:          2
ITLB RFO ACCESSES:          0 HITS:          0 MISSES:          0
ITLB PREFETCH ACCESSES:          0 HITS:          0 MISSES:          0
ITLB WRITEBACK ACCESSES:          0 HITS:          0 MISSES:          0
ITLB RQ ACCESS:  500000002
ITLB RQ TO_CACHE:   86475397
ITLB RQ MERGED:  413524605
ITLB RQ FORWARD:          0
ITLB WQ ACCESS:          0
ITLB WQ TO_CACHE:          0
ITLB WQ MERGED:          0
ITLB WQ FORWARD:          0
DTLB TOTAL     ACCESS:   98106684  HIT:   97921423  MISS:     185261
DTLB LOAD      ACCESS:   55037649  HIT:   54991338  MISS:      46311
DTLB RFO       ACCESS:   43069035  HIT:   42930085  MISS:     138950
DTLB PREFETCH  ACCESS:          0  HIT:          0  MISS:          0
DTLB WRITEBACK ACCESS:          0  HIT:          0  MISS:          0
DTLB PREFETCH  REQUESTED:          0  ISSUED:          0  USEFUL:          0  USELESS:          0
DTLB TOTAL MSHR MERGED:      83534
DTLB LOAD MSHR MERGED:      83529
DTLB RFO MSHR MERGED:          5
DTLB PREFETCH MSHR MERGED:          0
DTLB WRITEBACK MSHR MERGED:          0
DTLB TOTAL ACCESSES:   98190218 HITS:   97921423 MISSES:     268795
DTLB LOAD ACCESSES:   55121178 HITS:   54991338 MISSES:     129840
DTLB RFO ACCESSES:   43069040 HITS:   42930085 MISSES:     138955
DTLB PREFETCH ACCESSES:          0 HITS:          0 MISSES:          0
DTLB WRITEBACK ACCESSES:          0 HITS:          0 MISSES:          0
DTLB RQ ACCESS:  173632005
DTLB RQ TO_CACHE:   98190218
DTLB RQ MERGED:   75441787
DTLB RQ FORWARD:          0
DTLB WQ ACCESS:          0
DTLB WQ TO_CACHE:          0
DTLB WQ MERGED:          0
DTLB WQ FORWARD:          0
L1D TOTAL     ACCESS:  164583341  HIT:  145010773  MISS:   19572568
L1D LOAD      ACCESS:   60557915  HIT:   58704904  MISS:    1853011
L1D RFO       ACCESS:   64513776  HIT:   47911644  MISS:   16602132
L1D PREFETCH  ACCESS:   39511650  HIT:   38394225  MISS:    1117425
L1D WRITEBACK ACCESS:          0  HIT:          0  MISS:          0
L1D PREFETCH  REQUESTED:   61758139  ISSUED:   61465598  USEFUL:    1115505  USELESS:       1921
L1D TOTAL MSHR MERGED:    3550959
L1D LOAD MSHR MERGED:    1273197
L1D RFO MSHR MERGED:      11635
L1D PREFETCH MSHR MERGED:    2266127
L1D WRITEBACK MSHR MERGED:          0
L1D TOTAL ACCESSES:  168698226 HITS:  145574698 MISSES:   23123528
L1D LOAD ACCESSES:   62014698 HITS:   58961463 MISSES:    3053235
L1D RFO ACCESSES:   64525378 HITS:   47911644 MISSES:   16613734
L1D PREFETCH ACCESSES:   42158150 HITS:   38701591 MISSES:    3456559
L1D WRITEBACK ACCESSES:          0 HITS:          0 MISSES:          0
L1D RQ ACCESS:  109090690
L1D RQ TO_CACHE:   61758139
L1D RQ MERGED:   47075992
L1D RQ FORWARD:          0
L1D WQ ACCESS:   64541313
L1D WQ TO_CACHE:   64525379
L1D WQ MERGED:      15934
L1D WQ FORWARD:     563925
L1I TOTAL     ACCESS:  107784045  HIT:  107784037  MISS:          8
L1I LOAD      ACCESS:  107784045  HIT:  107784037  MISS:          8
L1I RFO       ACCESS:          0  HIT:          0  MISS:          0
L1I PREFETCH  ACCESS:          0  HIT:          0  MISS:          0
L1I WRITEBACK ACCESS:          0  HIT:          0  MISS:          0
L1I PREFETCH  REQUESTED:          0  ISSUED:          0  USEFUL:          0  USELESS:          0
L1I TOTAL MSHR MERGED:          3
L1I LOAD MSHR MERGED:          3
L1I RFO MSHR MERGED:          0
L1I PREFETCH MSHR MERGED:          0
L1I WRITEBACK MSHR MERGED:          0
L1I TOTAL ACCESSES:  107784048 HITS:  107784037 MISSES:         11
L1I LOAD ACCESSES:  107784048 HITS:  107784037 MISSES:         11
L1I RFO ACCESSES:          0 HITS:          0 MISSES:          0
L1I PREFETCH ACCESSES:          0 HITS:          0 MISSES:          0
L1I WRITEBACK ACCESSES:          0 HITS:          0 MISSES:          0
L1I RQ ACCESS:  500000007
L1I RQ TO_CACHE:  107784048
L1I RQ MERGED:  392215959
L1I RQ FORWARD:          0
L1I WQ ACCESS:          0
L1I WQ TO_CACHE:          0
L1I WQ MERGED:          0
L1I WQ FORWARD:          0
L2C TOTAL     ACCESS:   36816385  HIT:   24858787  MISS:   11957598
L2C LOAD      ACCESS:    1780046  HIT:     258236  MISS:    1521810
L2C RFO       ACCESS:   16602096  HIT:    7610701  MISS:    8991395
L2C PREFETCH  ACCESS:    1832059  HIT:     388890  MISS:    1443169
L2C WRITEBACK ACCESS:   16602184  HIT:   16600960  MISS:       1224
L2C PREFETCH  REQUESTED:     814683  ISSUED:     814683  USEFUL:     255906  USELESS:    1187545
L2C TOTAL MSHR MERGED:       2693
L2C LOAD MSHR MERGED:        593
L2C RFO MSHR MERGED:          0
L2C PREFETCH MSHR MERGED:       2100
L2C WRITEBACK MSHR MERGED:          0
L2C TOTAL ACCESSES:   36989366 HITS:   24858790 MISSES:   12130576
L2C LOAD ACCESSES:    1780046 HITS:     258236 MISSES:    1521810
L2C RFO ACCESSES:   16602099 HITS:    7610704 MISSES:    8991395
L2C PREFETCH ACCESSES:    2005037 HITS:     388890 MISSES:    1616147
L2C WRITEBACK ACCESSES:   16602184 HITS:   16600960 MISSES:       1224
L2C RQ ACCESS:   18382145
L2C RQ TO_CACHE:   18382142
L2C RQ MERGED:          0
L2C RQ FORWARD:          0
L2C WQ ACCESS:   16602184
L2C WQ TO_CACHE:   16602184
L2C WQ MERGED:          0
L2C WQ FORWARD:          3
LLC TOTAL     ACCESS:   21115753  HIT:    8471260  MISS:   12644493
LLC LOAD      ACCESS:    1521217  HIT:      61561  MISS:    1459656
LLC RFO       ACCESS:    8991376  HIT:     894676  MISS:    8096700
LLC PREFETCH  ACCESS:    1610948  HIT:     105285  MISS:    1505663
LLC WRITEBACK ACCESS:    8992212  HIT:    7409738  MISS:    1582474
LLC PREFETCH  REQUESTED:          0  ISSUED:          0  USEFUL:      61552  USELESS:    1443877
LLC TOTAL MSHR MERGED:       2751
LLC LOAD MSHR MERGED:        236
LLC RFO MSHR MERGED:          0
LLC PREFETCH MSHR MERGED:       2515
LLC WRITEBACK MSHR MERGED:          0
LLC TOTAL ACCESSES:   21118524 HITS:    8471279 MISSES:   12647245
LLC LOAD ACCESSES:    1521217 HITS:      61561 MISSES:    1459656
LLC RFO ACCESSES:    8991395 HITS:     894695 MISSES:    8096700
LLC PREFETCH ACCESSES:    1613700 HITS:     105285 MISSES:    1508415
LLC WRITEBACK ACCESSES:    8992212 HITS:    7409738 MISSES:    1582474
LLC 0 RQ ACCESS:   10512612
LLC 0 RQ TO_CACHE:   10512593
LLC 0 RQ MERGED:          0
LLC 0 RQ FORWARD:          0
LLC WQ ACCESS:    8992212
LLC WQ TO_CACHE:    8992212
LLC WQ MERGED:          0
LLC WQ FORWARD:         19
Major fault: 0 Minor fault: 102360
CPU 0 L1D next line prefetcher final stats
CPU 0 L2C PC-based stride prefetcher final stats
All Misses: 15067083
All Hits: 10024181
SD Algo Stats - Switches: 0 SRR-Repls: 1638247 BRR-Repls: 0

DRAM Statistics
 CHANNEL 0
 RQ ROW_BUFFER_HIT:    3436626  ROW_BUFFER_MISS:    7624416
 DBUS_CONGESTED:   13137910
 WQ ROW_BUFFER_HIT:    1091407  ROW_BUFFER_MISS:    7018208  FULL:          0

 AVG_CONGESTED_CYCLE: 13
LOADS RETIRED: 124982196
INSTR RETIRED: 500000000
