
*** ChampSim Multicore Out-of-Order Simulator ***

Warmup Instructions: 100000000
Simulation Instructions: 500000000
Number of CPUs: 1
LLC sets: 2048
LLC ways: 16
Clean RRIP Policies: 2313210323132103 Dirty RRIP Policies: 2303110323031103 PSEL Width: 10 Track Set: 4294967295 PSEL Mask: 1 Demote Mask: 4330130143301301DS Algo: 0Window size: 0
Off-chip DRAM Size: 4096 MB Channels: 1 Width: 64-bit Data Rate: 1600 MT/s

CPU 0 runs /mnt/beegfs/iconst01/spec2017/Roms.trace.gz
NOT SORTED
TRACE STRING: /mnt/beegfs/iconst01/spec2017/Roms.trace.gz
SORTED
TRACE STRING: /mnt/beegfs/iconst01/spec2017/Roms.trace.gz
INITIAL
TRACE STRING: /mnt/beegfs/iconst01/spec2017/Roms.trace.gz

champsim_seed used: 417

CPU 0 L1D next line prefetcher
CPU 0 L2C IP-based stride prefetcher
Initialize DRRIP state
Assign rand_sets[0]: 454  LLC: 2048
rand_sets[0]: 454
Assign rand_sets[1]: 1662  LLC: 2048
rand_sets[1]: 1662
Assign rand_sets[2]: 1921  LLC: 2048
rand_sets[2]: 1921
Assign rand_sets[3]: 1131  LLC: 2048
rand_sets[3]: 1131
Assign rand_sets[4]: 331  LLC: 2048
rand_sets[4]: 331
Assign rand_sets[5]: 1531  LLC: 2048
rand_sets[5]: 1531
Assign rand_sets[6]: 482  LLC: 2048
rand_sets[6]: 482
Assign rand_sets[7]: 1275  LLC: 2048
rand_sets[7]: 1275
Assign rand_sets[8]: 1876  LLC: 2048
rand_sets[8]: 1876
Assign rand_sets[9]: 2038  LLC: 2048
rand_sets[9]: 2038
Assign rand_sets[10]: 701  LLC: 2048
rand_sets[10]: 701
Assign rand_sets[11]: 479  LLC: 2048
rand_sets[11]: 479
Assign rand_sets[12]: 892  LLC: 2048
rand_sets[12]: 892
Assign rand_sets[13]: 1820  LLC: 2048
rand_sets[13]: 1820
Assign rand_sets[14]: 1505  LLC: 2048
rand_sets[14]: 1505
Assign rand_sets[15]: 1159  LLC: 2048
rand_sets[15]: 1159
Assign rand_sets[16]: 513  LLC: 2048
rand_sets[16]: 513
Assign rand_sets[17]: 703  LLC: 2048
rand_sets[17]: 703
Assign rand_sets[18]: 561  LLC: 2048
rand_sets[18]: 561
Assign rand_sets[19]: 990  LLC: 2048
rand_sets[19]: 990
Assign rand_sets[20]: 342  LLC: 2048
rand_sets[20]: 342
Assign rand_sets[21]: 882  LLC: 2048
rand_sets[21]: 882
Assign rand_sets[22]: 15  LLC: 2048
rand_sets[22]: 15
Assign rand_sets[23]: 71  LLC: 2048
rand_sets[23]: 71
Assign rand_sets[24]: 1127  LLC: 2048
rand_sets[24]: 1127
Assign rand_sets[25]: 1382  LLC: 2048
rand_sets[25]: 1382
Assign rand_sets[26]: 647  LLC: 2048
rand_sets[26]: 647
Assign rand_sets[27]: 857  LLC: 2048
rand_sets[27]: 857
Assign rand_sets[28]: 1450  LLC: 2048
rand_sets[28]: 1450
Assign rand_sets[29]: 1160  LLC: 2048
rand_sets[29]: 1160
Assign rand_sets[30]: 1852  LLC: 2048
rand_sets[30]: 1852
Assign rand_sets[31]: 1881  LLC: 2048
rand_sets[31]: 1881
Assign rand_sets[32]: 1770  LLC: 2048
rand_sets[32]: 1770
Assign rand_sets[33]: 1622  LLC: 2048
rand_sets[33]: 1622
Assign rand_sets[34]: 275  LLC: 2048
rand_sets[34]: 275
Assign rand_sets[35]: 635  LLC: 2048
rand_sets[35]: 635
Assign rand_sets[36]: 466  LLC: 2048
rand_sets[36]: 466
Assign rand_sets[37]: 1413  LLC: 2048
rand_sets[37]: 1413
Assign rand_sets[38]: 417  LLC: 2048
rand_sets[38]: 417
Assign rand_sets[39]: 472  LLC: 2048
rand_sets[39]: 472
Assign rand_sets[40]: 1340  LLC: 2048
rand_sets[40]: 1340
Assign rand_sets[41]: 852  LLC: 2048
rand_sets[41]: 852
Assign rand_sets[42]: 1365  LLC: 2048
rand_sets[42]: 1365
Assign rand_sets[43]: 47  LLC: 2048
rand_sets[43]: 47
Assign rand_sets[44]: 823  LLC: 2048
rand_sets[44]: 823
Assign rand_sets[45]: 686  LLC: 2048
rand_sets[45]: 686
Assign rand_sets[46]: 1637  LLC: 2048
rand_sets[46]: 1637
Assign rand_sets[47]: 1115  LLC: 2048
rand_sets[47]: 1115
Assign rand_sets[48]: 986  LLC: 2048
rand_sets[48]: 986
Assign rand_sets[49]: 258  LLC: 2048
rand_sets[49]: 258
Assign rand_sets[50]: 633  LLC: 2048
rand_sets[50]: 633
Assign rand_sets[51]: 920  LLC: 2048
rand_sets[51]: 920
Assign rand_sets[52]: 204  LLC: 2048
rand_sets[52]: 204
Assign rand_sets[53]: 227  LLC: 2048
rand_sets[53]: 227
Assign rand_sets[54]: 1818  LLC: 2048
rand_sets[54]: 1818
Assign rand_sets[55]: 886  LLC: 2048
rand_sets[55]: 886
Assign rand_sets[56]: 1422  LLC: 2048
rand_sets[56]: 1422
Assign rand_sets[57]: 607  LLC: 2048
rand_sets[57]: 607
Assign rand_sets[58]: 217  LLC: 2048
rand_sets[58]: 217
Assign rand_sets[59]: 1945  LLC: 2048
rand_sets[59]: 1945
Assign rand_sets[60]: 143  LLC: 2048
rand_sets[60]: 143
Assign rand_sets[61]: 1311  LLC: 2048
rand_sets[61]: 1311
Assign rand_sets[62]: 319  LLC: 2048
rand_sets[62]: 319
Assign rand_sets[63]: 1846  LLC: 2048
rand_sets[63]: 1846
 CLEAN-RRIP-POLICY-1: 2-3-1-3-2-1-0-3- CLEAN-RRIP-POLICY-2: 2-3-1-3-2-1-0-3-
 DIRTY-RRIP-POLICY-1: 2-3-0-3-1-1-0-3- DIRTY-RRIP-POLICY-2: 2-3-0-3-1-1-0-3-
 PSEL width: 10
Heartbeat CPU 0 instructions: 10000000 cycles: 4688319 heartbeat IPC: 2.13296 cumulative IPC: 2.13296 (Simulation time: 0 hr 0 min 17 sec) 
Heartbeat CPU 0 instructions: 20000000 cycles: 9325892 heartbeat IPC: 2.1563 cumulative IPC: 2.14457 (Simulation time: 0 hr 0 min 35 sec) 
Heartbeat CPU 0 instructions: 30000003 cycles: 14020631 heartbeat IPC: 2.13004 cumulative IPC: 2.1397 (Simulation time: 0 hr 0 min 52 sec) 
Heartbeat CPU 0 instructions: 40000000 cycles: 18671419 heartbeat IPC: 2.15017 cumulative IPC: 2.14231 (Simulation time: 0 hr 1 min 9 sec) 
Heartbeat CPU 0 instructions: 50000003 cycles: 23325107 heartbeat IPC: 2.14883 cumulative IPC: 2.14361 (Simulation time: 0 hr 1 min 27 sec) 
Heartbeat CPU 0 instructions: 60000000 cycles: 27978022 heartbeat IPC: 2.14919 cumulative IPC: 2.14454 (Simulation time: 0 hr 1 min 44 sec) 
Heartbeat CPU 0 instructions: 70000002 cycles: 32369600 heartbeat IPC: 2.27709 cumulative IPC: 2.16252 (Simulation time: 0 hr 1 min 59 sec) 
Heartbeat CPU 0 instructions: 80000000 cycles: 36306618 heartbeat IPC: 2.53999 cumulative IPC: 2.20345 (Simulation time: 0 hr 2 min 11 sec) 
Heartbeat CPU 0 instructions: 90000000 cycles: 40252208 heartbeat IPC: 2.53448 cumulative IPC: 2.2359 (Simulation time: 0 hr 2 min 24 sec) 
Heartbeat CPU 0 instructions: 100000000 cycles: 44214871 heartbeat IPC: 2.52356 cumulative IPC: 2.26168 (Simulation time: 0 hr 2 min 36 sec) 

Warmup complete CPU 0 instructions: 100000002 cycles: 44214872 (Simulation time: 0 hr 2 min 36 sec) 

Heartbeat CPU 0 instructions: 110000000 cycles: 53202525 heartbeat IPC: 1.11264 cumulative IPC: 1.11264 (Simulation time: 0 hr 2 min 55 sec) 
Heartbeat CPU 0 instructions: 120000000 cycles: 62202132 heartbeat IPC: 1.11116 cumulative IPC: 1.1119 (Simulation time: 0 hr 3 min 15 sec) 
Heartbeat CPU 0 instructions: 130000002 cycles: 71192391 heartbeat IPC: 1.11232 cumulative IPC: 1.11204 (Simulation time: 0 hr 3 min 34 sec) 
Heartbeat CPU 0 instructions: 140000000 cycles: 80047223 heartbeat IPC: 1.12933 cumulative IPC: 1.11631 (Simulation time: 0 hr 3 min 54 sec) 
Heartbeat CPU 0 instructions: 150000003 cycles: 89085996 heartbeat IPC: 1.10635 cumulative IPC: 1.1143 (Simulation time: 0 hr 4 min 13 sec) 
Heartbeat CPU 0 instructions: 160000000 cycles: 99676237 heartbeat IPC: 0.944265 cumulative IPC: 1.08183 (Simulation time: 0 hr 4 min 35 sec) 
Heartbeat CPU 0 instructions: 170000000 cycles: 112240108 heartbeat IPC: 0.795933 cumulative IPC: 1.02903 (Simulation time: 0 hr 5 min 0 sec) 
Heartbeat CPU 0 instructions: 180000000 cycles: 124790585 heartbeat IPC: 0.796782 cumulative IPC: 0.992855 (Simulation time: 0 hr 5 min 24 sec) 
Heartbeat CPU 0 instructions: 190000000 cycles: 137595246 heartbeat IPC: 0.780966 cumulative IPC: 0.9638 (Simulation time: 0 hr 5 min 48 sec) 
Heartbeat CPU 0 instructions: 200000000 cycles: 151492380 heartbeat IPC: 0.719573 cumulative IPC: 0.932162 (Simulation time: 0 hr 6 min 13 sec) 
Heartbeat CPU 0 instructions: 210000001 cycles: 165552883 heartbeat IPC: 0.711212 cumulative IPC: 0.906558 (Simulation time: 0 hr 6 min 38 sec) 
Heartbeat CPU 0 instructions: 220000000 cycles: 179543099 heartbeat IPC: 0.714785 cumulative IPC: 0.886733 (Simulation time: 0 hr 7 min 2 sec) 
Heartbeat CPU 0 instructions: 230000000 cycles: 193488349 heartbeat IPC: 0.71709 cumulative IPC: 0.870885 (Simulation time: 0 hr 7 min 28 sec) 
Heartbeat CPU 0 instructions: 240000000 cycles: 207495147 heartbeat IPC: 0.713939 cumulative IPC: 0.857421 (Simulation time: 0 hr 7 min 54 sec) 
Heartbeat CPU 0 instructions: 250000003 cycles: 218821995 heartbeat IPC: 0.882858 cumulative IPC: 0.859071 (Simulation time: 0 hr 8 min 17 sec) 
Heartbeat CPU 0 instructions: 260000000 cycles: 226793591 heartbeat IPC: 1.25445 cumulative IPC: 0.876334 (Simulation time: 0 hr 8 min 37 sec) 
Heartbeat CPU 0 instructions: 270000003 cycles: 235347675 heartbeat IPC: 1.16903 cumulative IPC: 0.889434 (Simulation time: 0 hr 8 min 58 sec) 
Heartbeat CPU 0 instructions: 280000000 cycles: 244399496 heartbeat IPC: 1.10475 cumulative IPC: 0.89917 (Simulation time: 0 hr 9 min 20 sec) 
Heartbeat CPU 0 instructions: 290000000 cycles: 253300882 heartbeat IPC: 1.12342 cumulative IPC: 0.908717 (Simulation time: 0 hr 9 min 41 sec) 
Heartbeat CPU 0 instructions: 300000000 cycles: 262174216 heartbeat IPC: 1.12697 cumulative IPC: 0.917602 (Simulation time: 0 hr 10 min 2 sec) 
Heartbeat CPU 0 instructions: 310000000 cycles: 271118025 heartbeat IPC: 1.11809 cumulative IPC: 0.925505 (Simulation time: 0 hr 10 min 24 sec) 
Heartbeat CPU 0 instructions: 320000000 cycles: 280112828 heartbeat IPC: 1.11175 cumulative IPC: 0.932607 (Simulation time: 0 hr 10 min 47 sec) 
Heartbeat CPU 0 instructions: 330000002 cycles: 289033680 heartbeat IPC: 1.12097 cumulative IPC: 0.93947 (Simulation time: 0 hr 11 min 9 sec) 
Heartbeat CPU 0 instructions: 340000000 cycles: 299454600 heartbeat IPC: 0.959608 cumulative IPC: 0.940292 (Simulation time: 0 hr 11 min 33 sec) 
Heartbeat CPU 0 instructions: 350000001 cycles: 308415007 heartbeat IPC: 1.11602 cumulative IPC: 0.946252 (Simulation time: 0 hr 11 min 54 sec) 
Heartbeat CPU 0 instructions: 360000000 cycles: 317242540 heartbeat IPC: 1.13282 cumulative IPC: 0.952284 (Simulation time: 0 hr 12 min 16 sec) 
Heartbeat CPU 0 instructions: 370000001 cycles: 325953420 heartbeat IPC: 1.14799 cumulative IPC: 0.958335 (Simulation time: 0 hr 12 min 37 sec) 
Heartbeat CPU 0 instructions: 380000000 cycles: 334546130 heartbeat IPC: 1.16378 cumulative IPC: 0.964416 (Simulation time: 0 hr 12 min 58 sec) 
Heartbeat CPU 0 instructions: 390000001 cycles: 342898869 heartbeat IPC: 1.19721 cumulative IPC: 0.970926 (Simulation time: 0 hr 13 min 19 sec) 
Heartbeat CPU 0 instructions: 400000000 cycles: 351304109 heartbeat IPC: 1.18973 cumulative IPC: 0.976915 (Simulation time: 0 hr 13 min 39 sec) 
Heartbeat CPU 0 instructions: 410000003 cycles: 359597656 heartbeat IPC: 1.20576 cumulative IPC: 0.982933 (Simulation time: 0 hr 14 min 0 sec) 
Heartbeat CPU 0 instructions: 420000000 cycles: 367970605 heartbeat IPC: 1.19432 cumulative IPC: 0.9884 (Simulation time: 0 hr 14 min 21 sec) 
Heartbeat CPU 0 instructions: 430000001 cycles: 376257060 heartbeat IPC: 1.20679 cumulative IPC: 0.99385 (Simulation time: 0 hr 14 min 41 sec) 
Heartbeat CPU 0 instructions: 440000000 cycles: 384476606 heartbeat IPC: 1.21661 cumulative IPC: 0.999231 (Simulation time: 0 hr 15 min 2 sec) 
Heartbeat CPU 0 instructions: 450000001 cycles: 393997618 heartbeat IPC: 1.05031 cumulative IPC: 1.00062 (Simulation time: 0 hr 15 min 24 sec) 
Heartbeat CPU 0 instructions: 460000000 cycles: 402277613 heartbeat IPC: 1.20773 cumulative IPC: 1.00541 (Simulation time: 0 hr 15 min 45 sec) 
Heartbeat CPU 0 instructions: 470000003 cycles: 410419191 heartbeat IPC: 1.22826 cumulative IPC: 1.01036 (Simulation time: 0 hr 16 min 6 sec) 
Heartbeat CPU 0 instructions: 480000000 cycles: 418585766 heartbeat IPC: 1.2245 cumulative IPC: 1.01504 (Simulation time: 0 hr 16 min 26 sec) 
Heartbeat CPU 0 instructions: 490000000 cycles: 426716244 heartbeat IPC: 1.22994 cumulative IPC: 1.0196 (Simulation time: 0 hr 16 min 46 sec) 
Heartbeat CPU 0 instructions: 500000000 cycles: 434855323 heartbeat IPC: 1.22864 cumulative IPC: 1.02396 (Simulation time: 0 hr 17 min 6 sec) 
Heartbeat CPU 0 instructions: 510000001 cycles: 442959141 heartbeat IPC: 1.23399 cumulative IPC: 1.02823 (Simulation time: 0 hr 17 min 27 sec) 
Heartbeat CPU 0 instructions: 520000000 cycles: 451087917 heartbeat IPC: 1.2302 cumulative IPC: 1.03226 (Simulation time: 0 hr 17 min 47 sec) 
Heartbeat CPU 0 instructions: 530000001 cycles: 459222854 heartbeat IPC: 1.22927 cumulative IPC: 1.03612 (Simulation time: 0 hr 18 min 7 sec) 
Heartbeat CPU 0 instructions: 540000000 cycles: 467542951 heartbeat IPC: 1.20191 cumulative IPC: 1.03938 (Simulation time: 0 hr 18 min 27 sec) 
Heartbeat CPU 0 instructions: 550000001 cycles: 475904578 heartbeat IPC: 1.19594 cumulative IPC: 1.04242 (Simulation time: 0 hr 18 min 48 sec) 
Heartbeat CPU 0 instructions: 560000000 cycles: 484038718 heartbeat IPC: 1.22939 cumulative IPC: 1.04587 (Simulation time: 0 hr 19 min 8 sec) 
Heartbeat CPU 0 instructions: 570000001 cycles: 495341821 heartbeat IPC: 0.884713 cumulative IPC: 1.04184 (Simulation time: 0 hr 19 min 31 sec) 
Heartbeat CPU 0 instructions: 580000000 cycles: 506355192 heartbeat IPC: 0.907987 cumulative IPC: 1.03865 (Simulation time: 0 hr 19 min 52 sec) 
Heartbeat CPU 0 instructions: 590000001 cycles: 517613418 heartbeat IPC: 0.88824 cumulative IPC: 1.03507 (Simulation time: 0 hr 20 min 15 sec) 
Heartbeat CPU 0 instructions: 600000000 cycles: 528542591 heartbeat IPC: 0.914982 cumulative IPC: 1.03236 (Simulation time: 0 hr 20 min 37 sec) 
Finished CPU 0 instructions: 500000001 cycles: 484327732 cumulative IPC: 1.03236 (Simulation time: 0 hr 20 min 37 sec) 

CPU 0 Branch Prediction Accuracy: 99.7422% MPKI: 0.173296
Number of Branches: 33608403 Number of Mispredictions: 86648
Number of LOAD Instructions: 180215231
Number of LOAD Instructions (ROI): 180215231
Number of STORE Instructions: 36067263
Number of STORE Instructions (ROI): 36067263
Total Destination Memory Operands: 38428915
Total Destination Memory Operands (ROI): 38428915
Total Source Memory Operands: 180215231
Total Source Memory Operands (ROI): 180215231
Number of DEPENDED LOADS: 3041598
Number of DEPENDED LOADS (ROI): 3041598
Number of SQ_ADDED: 38428892
Number of SQ_ADDED (ROI): 38428892
Number of LQ_ADDED: 207862237
Number of LQ_ADDED (ROI): 207862237
Number of Instructions read from trace: 600000257

ChampSim completed all CPUs

Region of Interest Statistics

CPU 0 cumulative IPC: 1.03236 instructions: 500000001 cycles: 484327732
ITLB TOTAL     ACCESS:   91854209  HIT:   91854190  MISS:         19
ITLB LOAD      ACCESS:   91854209  HIT:   91854190  MISS:         19
ITLB RFO       ACCESS:          0  HIT:          0  MISS:          0
ITLB PREFETCH  ACCESS:          0  HIT:          0  MISS:          0
ITLB WRITEBACK ACCESS:          0  HIT:          0  MISS:          0
ITLB PREFETCH  REQUESTED:          0  ISSUED:          0  USEFUL:          0  USELESS:          0
ITLB TOTAL MSHR MERGED:         40
ITLB LOAD MSHR MERGED:         40
ITLB RFO MSHR MERGED:          0
ITLB PREFETCH MSHR MERGED:          0
ITLB WRITEBACK MSHR MERGED:          0
ITLB TOTAL ACCESSES:   91854249 HITS:   91854190 MISSES:         59
ITLB LOAD ACCESSES:   91854249 HITS:   91854190 MISSES:         59
ITLB RFO ACCESSES:          0 HITS:          0 MISSES:          0
ITLB PREFETCH ACCESSES:          0 HITS:          0 MISSES:          0
ITLB WRITEBACK ACCESSES:          0 HITS:          0 MISSES:          0
ITLB RQ ACCESS:  500000003
ITLB RQ TO_CACHE:   91854249
ITLB RQ MERGED:  408145754
ITLB RQ FORWARD:          0
ITLB WQ ACCESS:          0
ITLB WQ TO_CACHE:          0
ITLB WQ MERGED:          0
ITLB WQ FORWARD:          0
DTLB TOTAL     ACCESS:  142084167  HIT:  141717706  MISS:     366461
DTLB LOAD      ACCESS:  119428640  HIT:  119115055  MISS:     313585
DTLB RFO       ACCESS:   22655527  HIT:   22602651  MISS:      52876
DTLB PREFETCH  ACCESS:          0  HIT:          0  MISS:          0
DTLB WRITEBACK ACCESS:          0  HIT:          0  MISS:          0
DTLB PREFETCH  REQUESTED:          0  ISSUED:          0  USEFUL:          0  USELESS:          0
DTLB TOTAL MSHR MERGED:     283929
DTLB LOAD MSHR MERGED:     237526
DTLB RFO MSHR MERGED:      46403
DTLB PREFETCH MSHR MERGED:          0
DTLB WRITEBACK MSHR MERGED:          0
DTLB TOTAL ACCESSES:  142368096 HITS:  141717706 MISSES:     650390
DTLB LOAD ACCESSES:  119666166 HITS:  119115055 MISSES:     551111
DTLB RFO ACCESSES:   22701930 HITS:   22602651 MISSES:      99279
DTLB PREFETCH ACCESSES:          0 HITS:          0 MISSES:          0
DTLB WRITEBACK ACCESSES:          0 HITS:          0 MISSES:          0
DTLB RQ ACCESS:  184791378
DTLB RQ TO_CACHE:  142368096
DTLB RQ MERGED:   42423282
DTLB RQ FORWARD:          0
DTLB WQ ACCESS:          0
DTLB WQ TO_CACHE:          0
DTLB WQ MERGED:          0
DTLB WQ FORWARD:          0
L1D TOTAL     ACCESS:  189794379  HIT:  176341775  MISS:   13452604
L1D LOAD      ACCESS:  111939445  HIT:  108666625  MISS:    3272820
L1D RFO       ACCESS:   18820677  HIT:   16038898  MISS:    2781779
L1D PREFETCH  ACCESS:   59034257  HIT:   51636252  MISS:    7398005
L1D WRITEBACK ACCESS:          0  HIT:          0  MISS:          0
L1D PREFETCH  REQUESTED:  116527685  ISSUED:  115173550  USEFUL:    7188259  USELESS:     209748
L1D TOTAL MSHR MERGED:   31827010
L1D LOAD MSHR MERGED:    7302516
L1D RFO MSHR MERGED:    9432141
L1D PREFETCH MSHR MERGED:   15092353
L1D WRITEBACK MSHR MERGED:          0
L1D TOTAL ACCESSES:  221621785 HITS:  176342168 MISSES:   45279617
L1D LOAD ACCESSES:  116527726 HITS:  108666666 MISSES:    7861060
L1D RFO ACCESSES:   28252733 HITS:   16038898 MISSES:   12213835
L1D PREFETCH ACCESSES:   76841326 HITS:   51636604 MISSES:   25204722
L1D WRITEBACK ACCESSES:          0 HITS:          0 MISSES:          0
L1D RQ ACCESS:  156535312
L1D RQ TO_CACHE:  116527688
L1D RQ MERGED:   40007583
L1D RQ FORWARD:          0
L1D WQ ACCESS:   28256066
L1D WQ TO_CACHE:   28252733
L1D WQ MERGED:       3333
L1D WQ FORWARD:        393
L1I TOTAL     ACCESS:  115849929  HIT:  115848981  MISS:        948
L1I LOAD      ACCESS:  115849929  HIT:  115848981  MISS:        948
L1I RFO       ACCESS:          0  HIT:          0  MISS:          0
L1I PREFETCH  ACCESS:          0  HIT:          0  MISS:          0
L1I WRITEBACK ACCESS:          0  HIT:          0  MISS:          0
L1I PREFETCH  REQUESTED:          0  ISSUED:          0  USEFUL:          0  USELESS:          0
L1I TOTAL MSHR MERGED:       1584
L1I LOAD MSHR MERGED:       1584
L1I RFO MSHR MERGED:          0
L1I PREFETCH MSHR MERGED:          0
L1I WRITEBACK MSHR MERGED:          0
L1I TOTAL ACCESSES:  115851513 HITS:  115848981 MISSES:       2532
L1I LOAD ACCESSES:  115851513 HITS:  115848981 MISSES:       2532
L1I RFO ACCESSES:          0 HITS:          0 MISSES:          0
L1I PREFETCH ACCESSES:          0 HITS:          0 MISSES:          0
L1I WRITEBACK ACCESSES:          0 HITS:          0 MISSES:          0
L1I RQ ACCESS:  500000007
L1I RQ TO_CACHE:  115851513
L1I RQ MERGED:  384148494
L1I RQ FORWARD:          0
L1I WQ ACCESS:          0
L1I WQ TO_CACHE:          0
L1I WQ MERGED:          0
L1I WQ FORWARD:          0
L2C TOTAL     ACCESS:   16698732  HIT:    4854418  MISS:   11844314
L2C LOAD      ACCESS:     559471  HIT:      95500  MISS:     463971
L2C RFO       ACCESS:    2781694  HIT:     266936  MISS:    2514758
L2C PREFETCH  ACCESS:   10136913  HIT:    1273603  MISS:    8863310
L2C WRITEBACK ACCESS:    3220654  HIT:    3218379  MISS:       2275
L2C PREFETCH  REQUESTED:      26286  ISSUED:      26286  USEFUL:      93243  USELESS:    8768151
L2C TOTAL MSHR MERGED:        294
L2C LOAD MSHR MERGED:          1
L2C RFO MSHR MERGED:          0
L2C PREFETCH MSHR MERGED:        293
L2C WRITEBACK MSHR MERGED:          0
L2C TOTAL ACCESSES:   16699130 HITS:    4854460 MISSES:   11844670
L2C LOAD ACCESSES:     559492 HITS:      95521 MISSES:     463971
L2C RFO ACCESSES:    2781694 HITS:     266936 MISSES:    2514758
L2C PREFETCH ACCESSES:   10137290 HITS:    1273624 MISSES:    8863666
L2C WRITEBACK ACCESSES:    3220654 HITS:    3218379 MISSES:       2275
L2C RQ ACCESS:    3341186
L2C RQ TO_CACHE:    3341165
L2C RQ MERGED:          0
L2C RQ FORWARD:          0
L2C WQ ACCESS:    3220654
L2C WQ TO_CACHE:    3220654
L2C WQ MERGED:          0
L2C WQ FORWARD:         42
LLC TOTAL     ACCESS:   14742364  HIT:    7722964  MISS:    7019400
LLC LOAD      ACCESS:     463969  HIT:     115906  MISS:     348063
LLC RFO       ACCESS:    2514742  HIT:    1828546  MISS:     686196
LLC PREFETCH  ACCESS:    8863322  HIT:    3130257  MISS:    5733065
LLC WRITEBACK ACCESS:    2900331  HIT:    2648255  MISS:     252076
LLC PREFETCH  REQUESTED:          0  ISSUED:          0  USEFUL:       5145  USELESS:    5725772
LLC TOTAL MSHR MERGED:          2
LLC LOAD MSHR MERGED:          1
LLC RFO MSHR MERGED:          0
LLC PREFETCH MSHR MERGED:          1
LLC WRITEBACK MSHR MERGED:          0
LLC TOTAL ACCESSES:   14742431 HITS:    7723026 MISSES:    7019405
LLC LOAD ACCESSES:     463970 HITS:     115907 MISSES:     348063
LLC RFO ACCESSES:    2514758 HITS:    1828562 MISSES:     686196
LLC PREFETCH ACCESSES:    8863372 HITS:    3130302 MISSES:    5733070
LLC WRITEBACK ACCESSES:    2900331 HITS:    2648255 MISSES:     252076
LLC 0 RQ ACCESS:    2978728
LLC 0 RQ TO_CACHE:    2978711
LLC 0 RQ MERGED:          0
LLC 0 RQ FORWARD:          0
LLC WQ ACCESS:    2900331
LLC WQ TO_CACHE:    2900331
LLC WQ MERGED:          0
LLC WQ FORWARD:         62
Major fault: 0 Minor fault: 57518
CPU 0 L1D next line prefetcher final stats
CPU 0 L2C PC-based stride prefetcher final stats
All Misses: 7623865
All Hits: 8614680
SD Algo Stats - Switches: 0 SRR-Repls: 362718 BRR-Repls: 0

DRAM Statistics
 CHANNEL 0
 RQ ROW_BUFFER_HIT:    3796124  ROW_BUFFER_MISS:    2966488
 DBUS_CONGESTED:    3187760
 WQ ROW_BUFFER_HIT:     128922  ROW_BUFFER_MISS:     834316  FULL:          0

 AVG_CONGESTED_CYCLE: 12
LOADS RETIRED: 157818985
INSTR RETIRED: 500000000
