
*** ChampSim Multicore Out-of-Order Simulator ***

Warmup Instructions: 100000000
Simulation Instructions: 500000000
Number of CPUs: 1
LLC sets: 2048
LLC ways: 16
Clean RRIP Policies: 2213230222132302 Dirty RRIP Policies: 2203130222031302 PSEL Width: 10 Track Set: 4294967295 PSEL Mask: 1 Demote Mask: 3240100032401000DS Algo: 0Window size: 0
Off-chip DRAM Size: 4096 MB Channels: 1 Width: 64-bit Data Rate: 1600 MT/s

CPU 0 runs /mnt/beegfs/iconst01/spec2017/Xalancbmk.trace.gz
NOT SORTED
TRACE STRING: /mnt/beegfs/iconst01/spec2017/Xalancbmk.trace.gz
SORTED
TRACE STRING: /mnt/beegfs/iconst01/spec2017/Xalancbmk.trace.gz
INITIAL
TRACE STRING: /mnt/beegfs/iconst01/spec2017/Xalancbmk.trace.gz

champsim_seed used: 913

CPU 0 L1D next line prefetcher
CPU 0 L2C IP-based stride prefetcher
Initialize DRRIP state
Assign rand_sets[0]: 454  LLC: 2048
rand_sets[0]: 454
Assign rand_sets[1]: 1662  LLC: 2048
rand_sets[1]: 1662
Assign rand_sets[2]: 1921  LLC: 2048
rand_sets[2]: 1921
Assign rand_sets[3]: 1131  LLC: 2048
rand_sets[3]: 1131
Assign rand_sets[4]: 331  LLC: 2048
rand_sets[4]: 331
Assign rand_sets[5]: 1531  LLC: 2048
rand_sets[5]: 1531
Assign rand_sets[6]: 482  LLC: 2048
rand_sets[6]: 482
Assign rand_sets[7]: 1275  LLC: 2048
rand_sets[7]: 1275
Assign rand_sets[8]: 1876  LLC: 2048
rand_sets[8]: 1876
Assign rand_sets[9]: 2038  LLC: 2048
rand_sets[9]: 2038
Assign rand_sets[10]: 701  LLC: 2048
rand_sets[10]: 701
Assign rand_sets[11]: 479  LLC: 2048
rand_sets[11]: 479
Assign rand_sets[12]: 892  LLC: 2048
rand_sets[12]: 892
Assign rand_sets[13]: 1820  LLC: 2048
rand_sets[13]: 1820
Assign rand_sets[14]: 1505  LLC: 2048
rand_sets[14]: 1505
Assign rand_sets[15]: 1159  LLC: 2048
rand_sets[15]: 1159
Assign rand_sets[16]: 513  LLC: 2048
rand_sets[16]: 513
Assign rand_sets[17]: 703  LLC: 2048
rand_sets[17]: 703
Assign rand_sets[18]: 561  LLC: 2048
rand_sets[18]: 561
Assign rand_sets[19]: 990  LLC: 2048
rand_sets[19]: 990
Assign rand_sets[20]: 342  LLC: 2048
rand_sets[20]: 342
Assign rand_sets[21]: 882  LLC: 2048
rand_sets[21]: 882
Assign rand_sets[22]: 15  LLC: 2048
rand_sets[22]: 15
Assign rand_sets[23]: 71  LLC: 2048
rand_sets[23]: 71
Assign rand_sets[24]: 1127  LLC: 2048
rand_sets[24]: 1127
Assign rand_sets[25]: 1382  LLC: 2048
rand_sets[25]: 1382
Assign rand_sets[26]: 647  LLC: 2048
rand_sets[26]: 647
Assign rand_sets[27]: 857  LLC: 2048
rand_sets[27]: 857
Assign rand_sets[28]: 1450  LLC: 2048
rand_sets[28]: 1450
Assign rand_sets[29]: 1160  LLC: 2048
rand_sets[29]: 1160
Assign rand_sets[30]: 1852  LLC: 2048
rand_sets[30]: 1852
Assign rand_sets[31]: 1881  LLC: 2048
rand_sets[31]: 1881
Assign rand_sets[32]: 1770  LLC: 2048
rand_sets[32]: 1770
Assign rand_sets[33]: 1622  LLC: 2048
rand_sets[33]: 1622
Assign rand_sets[34]: 275  LLC: 2048
rand_sets[34]: 275
Assign rand_sets[35]: 635  LLC: 2048
rand_sets[35]: 635
Assign rand_sets[36]: 466  LLC: 2048
rand_sets[36]: 466
Assign rand_sets[37]: 1413  LLC: 2048
rand_sets[37]: 1413
Assign rand_sets[38]: 417  LLC: 2048
rand_sets[38]: 417
Assign rand_sets[39]: 472  LLC: 2048
rand_sets[39]: 472
Assign rand_sets[40]: 1340  LLC: 2048
rand_sets[40]: 1340
Assign rand_sets[41]: 852  LLC: 2048
rand_sets[41]: 852
Assign rand_sets[42]: 1365  LLC: 2048
rand_sets[42]: 1365
Assign rand_sets[43]: 47  LLC: 2048
rand_sets[43]: 47
Assign rand_sets[44]: 823  LLC: 2048
rand_sets[44]: 823
Assign rand_sets[45]: 686  LLC: 2048
rand_sets[45]: 686
Assign rand_sets[46]: 1637  LLC: 2048
rand_sets[46]: 1637
Assign rand_sets[47]: 1115  LLC: 2048
rand_sets[47]: 1115
Assign rand_sets[48]: 986  LLC: 2048
rand_sets[48]: 986
Assign rand_sets[49]: 258  LLC: 2048
rand_sets[49]: 258
Assign rand_sets[50]: 633  LLC: 2048
rand_sets[50]: 633
Assign rand_sets[51]: 920  LLC: 2048
rand_sets[51]: 920
Assign rand_sets[52]: 204  LLC: 2048
rand_sets[52]: 204
Assign rand_sets[53]: 227  LLC: 2048
rand_sets[53]: 227
Assign rand_sets[54]: 1818  LLC: 2048
rand_sets[54]: 1818
Assign rand_sets[55]: 886  LLC: 2048
rand_sets[55]: 886
Assign rand_sets[56]: 1422  LLC: 2048
rand_sets[56]: 1422
Assign rand_sets[57]: 607  LLC: 2048
rand_sets[57]: 607
Assign rand_sets[58]: 217  LLC: 2048
rand_sets[58]: 217
Assign rand_sets[59]: 1945  LLC: 2048
rand_sets[59]: 1945
Assign rand_sets[60]: 143  LLC: 2048
rand_sets[60]: 143
Assign rand_sets[61]: 1311  LLC: 2048
rand_sets[61]: 1311
Assign rand_sets[62]: 319  LLC: 2048
rand_sets[62]: 319
Assign rand_sets[63]: 1846  LLC: 2048
rand_sets[63]: 1846
 CLEAN-RRIP-POLICY-1: 2-2-1-3-2-3-0-2- CLEAN-RRIP-POLICY-2: 2-2-1-3-2-3-0-2-
 DIRTY-RRIP-POLICY-1: 2-2-0-3-1-3-0-2- DIRTY-RRIP-POLICY-2: 2-2-0-3-1-3-0-2-
 PSEL width: 10
Heartbeat CPU 0 instructions: 10000003 cycles: 4592587 heartbeat IPC: 2.17742 cumulative IPC: 2.17742 (Simulation time: 0 hr 0 min 15 sec) 
Heartbeat CPU 0 instructions: 20000000 cycles: 8984887 heartbeat IPC: 2.27671 cumulative IPC: 2.22596 (Simulation time: 0 hr 0 min 28 sec) 
Heartbeat CPU 0 instructions: 30000000 cycles: 13393876 heartbeat IPC: 2.26809 cumulative IPC: 2.23983 (Simulation time: 0 hr 0 min 42 sec) 
Heartbeat CPU 0 instructions: 40000000 cycles: 18022313 heartbeat IPC: 2.16056 cumulative IPC: 2.21947 (Simulation time: 0 hr 0 min 57 sec) 
Heartbeat CPU 0 instructions: 50000002 cycles: 22438510 heartbeat IPC: 2.26439 cumulative IPC: 2.22831 (Simulation time: 0 hr 1 min 11 sec) 
Heartbeat CPU 0 instructions: 60000000 cycles: 27093977 heartbeat IPC: 2.14801 cumulative IPC: 2.21451 (Simulation time: 0 hr 1 min 26 sec) 
Heartbeat CPU 0 instructions: 70000003 cycles: 31498857 heartbeat IPC: 2.27021 cumulative IPC: 2.2223 (Simulation time: 0 hr 1 min 40 sec) 
Heartbeat CPU 0 instructions: 80000000 cycles: 35919345 heartbeat IPC: 2.26219 cumulative IPC: 2.22721 (Simulation time: 0 hr 1 min 54 sec) 
Heartbeat CPU 0 instructions: 90000002 cycles: 40374508 heartbeat IPC: 2.24459 cumulative IPC: 2.22913 (Simulation time: 0 hr 2 min 8 sec) 
Heartbeat CPU 0 instructions: 100000000 cycles: 44845978 heartbeat IPC: 2.2364 cumulative IPC: 2.22985 (Simulation time: 0 hr 2 min 22 sec) 

Warmup complete CPU 0 instructions: 100000003 cycles: 44845979 (Simulation time: 0 hr 2 min 22 sec) 

Heartbeat CPU 0 instructions: 110000000 cycles: 71857672 heartbeat IPC: 0.37021 cumulative IPC: 0.37021 (Simulation time: 0 hr 2 min 52 sec) 
Heartbeat CPU 0 instructions: 120000000 cycles: 100411344 heartbeat IPC: 0.350218 cumulative IPC: 0.359936 (Simulation time: 0 hr 3 min 23 sec) 
Heartbeat CPU 0 instructions: 130000000 cycles: 123826220 heartbeat IPC: 0.427079 cumulative IPC: 0.379842 (Simulation time: 0 hr 3 min 51 sec) 
Heartbeat CPU 0 instructions: 140000000 cycles: 146458063 heartbeat IPC: 0.441855 cumulative IPC: 0.393654 (Simulation time: 0 hr 4 min 18 sec) 
Heartbeat CPU 0 instructions: 150000000 cycles: 170839138 heartbeat IPC: 0.410154 cumulative IPC: 0.396847 (Simulation time: 0 hr 4 min 46 sec) 
Heartbeat CPU 0 instructions: 160000000 cycles: 195799452 heartbeat IPC: 0.400636 cumulative IPC: 0.397473 (Simulation time: 0 hr 5 min 14 sec) 
Heartbeat CPU 0 instructions: 170000002 cycles: 217157641 heartbeat IPC: 0.468205 cumulative IPC: 0.406241 (Simulation time: 0 hr 5 min 41 sec) 
Heartbeat CPU 0 instructions: 180000000 cycles: 239590359 heartbeat IPC: 0.445777 cumulative IPC: 0.410795 (Simulation time: 0 hr 6 min 8 sec) 
Heartbeat CPU 0 instructions: 190000000 cycles: 258530864 heartbeat IPC: 0.527969 cumulative IPC: 0.421181 (Simulation time: 0 hr 6 min 32 sec) 
Heartbeat CPU 0 instructions: 200000000 cycles: 279474351 heartbeat IPC: 0.477475 cumulative IPC: 0.426206 (Simulation time: 0 hr 6 min 58 sec) 
Heartbeat CPU 0 instructions: 210000001 cycles: 305906492 heartbeat IPC: 0.378327 cumulative IPC: 0.421358 (Simulation time: 0 hr 7 min 27 sec) 
Heartbeat CPU 0 instructions: 220000000 cycles: 331698684 heartbeat IPC: 0.387714 cumulative IPC: 0.418333 (Simulation time: 0 hr 7 min 57 sec) 
Heartbeat CPU 0 instructions: 230000000 cycles: 354002812 heartbeat IPC: 0.448348 cumulative IPC: 0.420499 (Simulation time: 0 hr 8 min 23 sec) 
Heartbeat CPU 0 instructions: 240000000 cycles: 379836659 heartbeat IPC: 0.387089 cumulative IPC: 0.417922 (Simulation time: 0 hr 8 min 53 sec) 
Heartbeat CPU 0 instructions: 250000001 cycles: 404799683 heartbeat IPC: 0.400593 cumulative IPC: 0.41672 (Simulation time: 0 hr 9 min 21 sec) 
Heartbeat CPU 0 instructions: 260000000 cycles: 425703141 heartbeat IPC: 0.47839 cumulative IPC: 0.420105 (Simulation time: 0 hr 9 min 47 sec) 
Heartbeat CPU 0 instructions: 270000000 cycles: 447209655 heartbeat IPC: 0.464975 cumulative IPC: 0.422503 (Simulation time: 0 hr 10 min 13 sec) 
Heartbeat CPU 0 instructions: 280000000 cycles: 475135743 heartbeat IPC: 0.358088 cumulative IPC: 0.418323 (Simulation time: 0 hr 10 min 44 sec) 
Heartbeat CPU 0 instructions: 290000000 cycles: 496213898 heartbeat IPC: 0.474425 cumulative IPC: 0.420943 (Simulation time: 0 hr 11 min 10 sec) 
Heartbeat CPU 0 instructions: 300000000 cycles: 516630858 heartbeat IPC: 0.489789 cumulative IPC: 0.423922 (Simulation time: 0 hr 11 min 35 sec) 
Heartbeat CPU 0 instructions: 310000000 cycles: 535764054 heartbeat IPC: 0.522652 cumulative IPC: 0.42777 (Simulation time: 0 hr 12 min 0 sec) 
Heartbeat CPU 0 instructions: 320000000 cycles: 565303097 heartbeat IPC: 0.338535 cumulative IPC: 0.422705 (Simulation time: 0 hr 12 min 31 sec) 
Heartbeat CPU 0 instructions: 330000001 cycles: 584710193 heartbeat IPC: 0.515275 cumulative IPC: 0.426033 (Simulation time: 0 hr 12 min 56 sec) 
Heartbeat CPU 0 instructions: 340000000 cycles: 603959983 heartbeat IPC: 0.519486 cumulative IPC: 0.429251 (Simulation time: 0 hr 13 min 20 sec) 
Heartbeat CPU 0 instructions: 350000001 cycles: 629200433 heartbeat IPC: 0.396189 cumulative IPC: 0.427823 (Simulation time: 0 hr 13 min 49 sec) 
Heartbeat CPU 0 instructions: 360000000 cycles: 651512100 heartbeat IPC: 0.448196 cumulative IPC: 0.428572 (Simulation time: 0 hr 14 min 15 sec) 
Heartbeat CPU 0 instructions: 370000001 cycles: 676651920 heartbeat IPC: 0.397775 cumulative IPC: 0.427346 (Simulation time: 0 hr 14 min 44 sec) 
Heartbeat CPU 0 instructions: 380000000 cycles: 699830419 heartbeat IPC: 0.431434 cumulative IPC: 0.427491 (Simulation time: 0 hr 15 min 11 sec) 
Heartbeat CPU 0 instructions: 390000000 cycles: 718604749 heartbeat IPC: 0.532642 cumulative IPC: 0.430421 (Simulation time: 0 hr 15 min 35 sec) 
Heartbeat CPU 0 instructions: 400000000 cycles: 738399405 heartbeat IPC: 0.505187 cumulative IPC: 0.432555 (Simulation time: 0 hr 16 min 0 sec) 
Heartbeat CPU 0 instructions: 410000001 cycles: 764704518 heartbeat IPC: 0.380154 cumulative IPC: 0.43064 (Simulation time: 0 hr 16 min 29 sec) 
Heartbeat CPU 0 instructions: 420000000 cycles: 789372646 heartbeat IPC: 0.405381 cumulative IPC: 0.429803 (Simulation time: 0 hr 16 min 57 sec) 
Heartbeat CPU 0 instructions: 430000002 cycles: 810531078 heartbeat IPC: 0.472625 cumulative IPC: 0.430987 (Simulation time: 0 hr 17 min 23 sec) 
Heartbeat CPU 0 instructions: 440000000 cycles: 830677760 heartbeat IPC: 0.49636 cumulative IPC: 0.432663 (Simulation time: 0 hr 17 min 48 sec) 
Heartbeat CPU 0 instructions: 450000002 cycles: 857546495 heartbeat IPC: 0.37218 cumulative IPC: 0.430663 (Simulation time: 0 hr 18 min 18 sec) 
Heartbeat CPU 0 instructions: 460000000 cycles: 883631433 heartbeat IPC: 0.383363 cumulative IPC: 0.429192 (Simulation time: 0 hr 18 min 47 sec) 
Heartbeat CPU 0 instructions: 470000002 cycles: 909614040 heartbeat IPC: 0.384873 cumulative IPC: 0.42786 (Simulation time: 0 hr 19 min 16 sec) 
Heartbeat CPU 0 instructions: 480000000 cycles: 933892673 heartbeat IPC: 0.411885 cumulative IPC: 0.427424 (Simulation time: 0 hr 19 min 43 sec) 
Heartbeat CPU 0 instructions: 490000000 cycles: 954733728 heartbeat IPC: 0.479822 cumulative IPC: 0.428624 (Simulation time: 0 hr 20 min 9 sec) 
Heartbeat CPU 0 instructions: 500000000 cycles: 979598675 heartbeat IPC: 0.402173 cumulative IPC: 0.427921 (Simulation time: 0 hr 20 min 37 sec) 
Heartbeat CPU 0 instructions: 510000000 cycles: 1004651504 heartbeat IPC: 0.399157 cumulative IPC: 0.42717 (Simulation time: 0 hr 21 min 5 sec) 
Heartbeat CPU 0 instructions: 520000000 cycles: 1025645075 heartbeat IPC: 0.476336 cumulative IPC: 0.428222 (Simulation time: 0 hr 21 min 31 sec) 
Heartbeat CPU 0 instructions: 530000003 cycles: 1051374545 heartbeat IPC: 0.38866 cumulative IPC: 0.427211 (Simulation time: 0 hr 22 min 0 sec) 
Heartbeat CPU 0 instructions: 540000000 cycles: 1074347375 heartbeat IPC: 0.435297 cumulative IPC: 0.427391 (Simulation time: 0 hr 22 min 27 sec) 
Heartbeat CPU 0 instructions: 550000000 cycles: 1099934685 heartbeat IPC: 0.390819 cumulative IPC: 0.426504 (Simulation time: 0 hr 22 min 55 sec) 
Heartbeat CPU 0 instructions: 560000000 cycles: 1123018464 heartbeat IPC: 0.433205 cumulative IPC: 0.426648 (Simulation time: 0 hr 23 min 22 sec) 
Heartbeat CPU 0 instructions: 570000002 cycles: 1146476501 heartbeat IPC: 0.426293 cumulative IPC: 0.42664 (Simulation time: 0 hr 23 min 49 sec) 
Heartbeat CPU 0 instructions: 580000000 cycles: 1167378113 heartbeat IPC: 0.478432 cumulative IPC: 0.427605 (Simulation time: 0 hr 24 min 15 sec) 
Heartbeat CPU 0 instructions: 590000001 cycles: 1191327062 heartbeat IPC: 0.417555 cumulative IPC: 0.427395 (Simulation time: 0 hr 24 min 42 sec) 
Heartbeat CPU 0 instructions: 600000000 cycles: 1210455567 heartbeat IPC: 0.52278 cumulative IPC: 0.42896 (Simulation time: 0 hr 25 min 7 sec) 
Finished CPU 0 instructions: 500000000 cycles: 1165609609 cumulative IPC: 0.42896 (Simulation time: 0 hr 25 min 7 sec) 

CPU 0 Branch Prediction Accuracy: 99.5434% MPKI: 1.33026
Number of Branches: 145676990 Number of Mispredictions: 665128
Number of LOAD Instructions: 188863207
Number of LOAD Instructions (ROI): 188863207
Number of STORE Instructions: 7332002
Number of STORE Instructions (ROI): 7332002
Total Destination Memory Operands: 10029285
Total Destination Memory Operands (ROI): 10029285
Total Source Memory Operands: 188863207
Total Source Memory Operands (ROI): 188863207
Number of DEPENDED LOADS: 290425
Number of DEPENDED LOADS (ROI): 290425
Number of SQ_ADDED: 10029285
Number of SQ_ADDED (ROI): 10029285
Number of LQ_ADDED: 200538711
Number of LQ_ADDED (ROI): 200538711
Number of Instructions read from trace: 600000010

ChampSim completed all CPUs

Region of Interest Statistics

CPU 0 cumulative IPC: 0.42896 instructions: 500000000 cycles: 1165609609
ITLB TOTAL     ACCESS:  145825327  HIT:  145785800  MISS:      39527
ITLB LOAD      ACCESS:  145825327  HIT:  145785800  MISS:      39527
ITLB RFO       ACCESS:          0  HIT:          0  MISS:          0
ITLB PREFETCH  ACCESS:          0  HIT:          0  MISS:          0
ITLB WRITEBACK ACCESS:          0  HIT:          0  MISS:          0
ITLB PREFETCH  REQUESTED:          0  ISSUED:          0  USEFUL:          0  USELESS:          0
ITLB TOTAL MSHR MERGED:      57363
ITLB LOAD MSHR MERGED:      57363
ITLB RFO MSHR MERGED:          0
ITLB PREFETCH MSHR MERGED:          0
ITLB WRITEBACK MSHR MERGED:          0
ITLB TOTAL ACCESSES:  145882690 HITS:  145785800 MISSES:      96890
ITLB LOAD ACCESSES:  145882690 HITS:  145785800 MISSES:      96890
ITLB RFO ACCESSES:          0 HITS:          0 MISSES:          0
ITLB PREFETCH ACCESSES:          0 HITS:          0 MISSES:          0
ITLB WRITEBACK ACCESSES:          0 HITS:          0 MISSES:          0
ITLB RQ ACCESS:  499999754
ITLB RQ TO_CACHE:  145882690
ITLB RQ MERGED:  354117064
ITLB RQ FORWARD:          0
ITLB WQ ACCESS:          0
ITLB WQ TO_CACHE:          0
ITLB WQ MERGED:          0
ITLB WQ FORWARD:          0
DTLB TOTAL     ACCESS:  135200748  HIT:  134032388  MISS:    1168360
DTLB LOAD      ACCESS:  127159927  HIT:  126000676  MISS:    1159251
DTLB RFO       ACCESS:    8040821  HIT:    8031712  MISS:       9109
DTLB PREFETCH  ACCESS:          0  HIT:          0  MISS:          0
DTLB WRITEBACK ACCESS:          0  HIT:          0  MISS:          0
DTLB PREFETCH  REQUESTED:          0  ISSUED:          0  USEFUL:          0  USELESS:          0
DTLB TOTAL MSHR MERGED:     578904
DTLB LOAD MSHR MERGED:     574527
DTLB RFO MSHR MERGED:       4377
DTLB PREFETCH MSHR MERGED:          0
DTLB WRITEBACK MSHR MERGED:          0
DTLB TOTAL ACCESSES:  135779652 HITS:  134032388 MISSES:    1747264
DTLB LOAD ACCESSES:  127734454 HITS:  126000676 MISSES:    1733778
DTLB RFO ACCESSES:    8045198 HITS:    8031712 MISSES:      13486
DTLB PREFETCH ACCESSES:          0 HITS:          0 MISSES:          0
DTLB WRITEBACK ACCESSES:          0 HITS:          0 MISSES:          0
DTLB RQ ACCESS:  165763915
DTLB RQ TO_CACHE:  135779652
DTLB RQ MERGED:   29984263
DTLB RQ FORWARD:          0
DTLB WQ ACCESS:          0
DTLB WQ TO_CACHE:          0
DTLB WQ MERGED:          0
DTLB WQ FORWARD:          0
L1D TOTAL     ACCESS:  157090937  HIT:  139775240  MISS:   17315697
L1D LOAD      ACCESS:   90004020  HIT:   78868111  MISS:   11135909
L1D RFO       ACCESS:    8501419  HIT:    8414283  MISS:      87136
L1D PREFETCH  ACCESS:   58585498  HIT:   52492846  MISS:    6092652
L1D WRITEBACK ACCESS:          0  HIT:          0  MISS:          0
L1D PREFETCH  REQUESTED:   93721323  ISSUED:   92853646  USEFUL:    2011251  USELESS:    4081474
L1D TOTAL MSHR MERGED:   14975150
L1D LOAD MSHR MERGED:    7109662
L1D RFO MSHR MERGED:     122932
L1D PREFETCH MSHR MERGED:    7742556
L1D WRITEBACK MSHR MERGED:          0
L1D TOTAL ACCESSES:  172066236 HITS:  139775389 MISSES:   32290847
L1D LOAD ACCESSES:   93721325 HITS:   78868113 MISSES:   14853212
L1D RFO ACCESSES:    8622542 HITS:    8414283 MISSES:     208259
L1D PREFETCH ACCESSES:   69722369 HITS:   52492993 MISSES:   17229376
L1D WRITEBACK ACCESSES:          0 HITS:          0 MISSES:          0
L1D RQ ACCESS:  157124709
L1D RQ TO_CACHE:   93721323
L1D RQ MERGED:   63403384
L1D RQ FORWARD:          0
L1D WQ ACCESS:    8639208
L1D WQ TO_CACHE:    8622542
L1D WQ MERGED:      16666
L1D WQ FORWARD:        149
L1I TOTAL     ACCESS:  178806459  HIT:  178142801  MISS:     663658
L1I LOAD      ACCESS:  178806459  HIT:  178142801  MISS:     663658
L1I RFO       ACCESS:          0  HIT:          0  MISS:          0
L1I PREFETCH  ACCESS:          0  HIT:          0  MISS:          0
L1I WRITEBACK ACCESS:          0  HIT:          0  MISS:          0
L1I PREFETCH  REQUESTED:          0  ISSUED:          0  USEFUL:          0  USELESS:          0
L1I TOTAL MSHR MERGED:     596593
L1I LOAD MSHR MERGED:     596593
L1I RFO MSHR MERGED:          0
L1I PREFETCH MSHR MERGED:          0
L1I WRITEBACK MSHR MERGED:          0
L1I TOTAL ACCESSES:  179403052 HITS:  178142801 MISSES:    1260251
L1I LOAD ACCESSES:  179403052 HITS:  178142801 MISSES:    1260251
L1I RFO ACCESSES:          0 HITS:          0 MISSES:          0
L1I PREFETCH ACCESSES:          0 HITS:          0 MISSES:          0
L1I WRITEBACK ACCESSES:          0 HITS:          0 MISSES:          0
L1I RQ ACCESS:  499999757
L1I RQ TO_CACHE:  179403052
L1I RQ MERGED:  320596705
L1I RQ FORWARD:          0
L1I WQ ACCESS:          0
L1I WQ TO_CACHE:          0
L1I WQ MERGED:          0
L1I WQ FORWARD:          0
L2C TOTAL     ACCESS:   19277948  HIT:    2058180  MISS:   17219768
L2C LOAD      ACCESS:    8407101  HIT:     951493  MISS:    7455608
L2C RFO       ACCESS:      85304  HIT:      53742  MISS:      31562
L2C PREFETCH  ACCESS:   10500507  HIT:     770720  MISS:    9729787
L2C WRITEBACK ACCESS:     285036  HIT:     282225  MISS:       2811
L2C PREFETCH  REQUESTED:    1018061  ISSUED:    1018061  USEFUL:     275078  USELESS:    9453803
L2C TOTAL MSHR MERGED:        977
L2C LOAD MSHR MERGED:        207
L2C RFO MSHR MERGED:          1
L2C PREFETCH MSHR MERGED:        769
L2C WRITEBACK MSHR MERGED:          0
L2C TOTAL ACCESSES:   19281194 HITS:    2058376 MISSES:   17222818
L2C LOAD ACCESSES:    8407208 HITS:     951600 MISSES:    7455608
L2C RFO ACCESSES:      85327 HITS:      53765 MISSES:      31562
L2C PREFETCH ACCESSES:   10503623 HITS:     770786 MISSES:    9732837
L2C WRITEBACK ACCESSES:     285036 HITS:     282225 MISSES:       2811
L2C RQ ACCESS:    8492535
L2C RQ TO_CACHE:    8492405
L2C RQ MERGED:          0
L2C RQ FORWARD:          0
L2C WQ ACCESS:     285036
L2C WQ TO_CACHE:     285036
L2C WQ MERGED:          0
L2C WQ FORWARD:        196
LLC TOTAL     ACCESS:   17325085  HIT:    4950039  MISS:   12375046
LLC LOAD      ACCESS:    7455401  HIT:    3904959  MISS:    3550442
LLC RFO       ACCESS:      31561  HIT:      20304  MISS:      11257
LLC PREFETCH  ACCESS:    9732065  HIT:     934845  MISS:    8797220
LLC WRITEBACK ACCESS:     106058  HIT:      89931  MISS:      16127
LLC PREFETCH  REQUESTED:          0  ISSUED:          0  USEFUL:       2131  USELESS:    8794348
LLC TOTAL MSHR MERGED:          3
LLC LOAD MSHR MERGED:          0
LLC RFO MSHR MERGED:          0
LLC PREFETCH MSHR MERGED:          3
LLC WRITEBACK MSHR MERGED:          0
LLC TOTAL ACCESSES:   17325088 HITS:    4950039 MISSES:   12375049
LLC LOAD ACCESSES:    7455401 HITS:    3904959 MISSES:    3550442
LLC RFO ACCESSES:      31561 HITS:      20304 MISSES:      11257
LLC PREFETCH ACCESSES:    9732068 HITS:     934845 MISSES:    8797223
LLC WRITEBACK ACCESSES:     106058 HITS:      89931 MISSES:      16127
LLC 0 RQ ACCESS:    7486962
LLC 0 RQ TO_CACHE:    7486962
LLC 0 RQ MERGED:          0
LLC 0 RQ FORWARD:          0
LLC WQ ACCESS:     106058
LLC WQ TO_CACHE:     106058
LLC WQ MERGED:          0
LLC WQ FORWARD:          0
Major fault: 0 Minor fault: 6432
CPU 0 L1D next line prefetcher final stats
CPU 0 L2C PC-based stride prefetcher final stats
All Misses: 14606481
All Hits: 5938239
SD Algo Stats - Switches: 0 SRR-Repls: 3796281 BRR-Repls: 0

DRAM Statistics
 CHANNEL 0
 RQ ROW_BUFFER_HIT:    9352025  ROW_BUFFER_MISS:    3002733
 DBUS_CONGESTED:    5792327
 WQ ROW_BUFFER_HIT:       1057  ROW_BUFFER_MISS:      29960  FULL:          0

 AVG_CONGESTED_CYCLE: 12
LOADS RETIRED: 157382665
INSTR RETIRED: 500000000
