
*** ChampSim Multicore Out-of-Order Simulator ***

Warmup Instructions: 100000000
Simulation Instructions: 500000000
Number of CPUs: 1
LLC sets: 2048
LLC ways: 16
Clean RRIP Policies: 1220131312201313 Dirty RRIP Policies: 1210230312102303 PSEL Width: 10 Track Set: 4294967295 PSEL Mask: 1 Demote Mask: 3011122330111223DS Algo: 0Window size: 0
Off-chip DRAM Size: 4096 MB Channels: 1 Width: 64-bit Data Rate: 1600 MT/s

CPU 0 runs /mnt/beegfs/iconst01/spec2017/Lbm.trace.gz
NOT SORTED
TRACE STRING: /mnt/beegfs/iconst01/spec2017/Lbm.trace.gz
SORTED
TRACE STRING: /mnt/beegfs/iconst01/spec2017/Lbm.trace.gz
INITIAL
TRACE STRING: /mnt/beegfs/iconst01/spec2017/Lbm.trace.gz

champsim_seed used: 283

CPU 0 L1D next line prefetcher
CPU 0 L2C IP-based stride prefetcher
Initialize DRRIP state
Assign rand_sets[0]: 454  LLC: 2048
rand_sets[0]: 454
Assign rand_sets[1]: 1662  LLC: 2048
rand_sets[1]: 1662
Assign rand_sets[2]: 1921  LLC: 2048
rand_sets[2]: 1921
Assign rand_sets[3]: 1131  LLC: 2048
rand_sets[3]: 1131
Assign rand_sets[4]: 331  LLC: 2048
rand_sets[4]: 331
Assign rand_sets[5]: 1531  LLC: 2048
rand_sets[5]: 1531
Assign rand_sets[6]: 482  LLC: 2048
rand_sets[6]: 482
Assign rand_sets[7]: 1275  LLC: 2048
rand_sets[7]: 1275
Assign rand_sets[8]: 1876  LLC: 2048
rand_sets[8]: 1876
Assign rand_sets[9]: 2038  LLC: 2048
rand_sets[9]: 2038
Assign rand_sets[10]: 701  LLC: 2048
rand_sets[10]: 701
Assign rand_sets[11]: 479  LLC: 2048
rand_sets[11]: 479
Assign rand_sets[12]: 892  LLC: 2048
rand_sets[12]: 892
Assign rand_sets[13]: 1820  LLC: 2048
rand_sets[13]: 1820
Assign rand_sets[14]: 1505  LLC: 2048
rand_sets[14]: 1505
Assign rand_sets[15]: 1159  LLC: 2048
rand_sets[15]: 1159
Assign rand_sets[16]: 513  LLC: 2048
rand_sets[16]: 513
Assign rand_sets[17]: 703  LLC: 2048
rand_sets[17]: 703
Assign rand_sets[18]: 561  LLC: 2048
rand_sets[18]: 561
Assign rand_sets[19]: 990  LLC: 2048
rand_sets[19]: 990
Assign rand_sets[20]: 342  LLC: 2048
rand_sets[20]: 342
Assign rand_sets[21]: 882  LLC: 2048
rand_sets[21]: 882
Assign rand_sets[22]: 15  LLC: 2048
rand_sets[22]: 15
Assign rand_sets[23]: 71  LLC: 2048
rand_sets[23]: 71
Assign rand_sets[24]: 1127  LLC: 2048
rand_sets[24]: 1127
Assign rand_sets[25]: 1382  LLC: 2048
rand_sets[25]: 1382
Assign rand_sets[26]: 647  LLC: 2048
rand_sets[26]: 647
Assign rand_sets[27]: 857  LLC: 2048
rand_sets[27]: 857
Assign rand_sets[28]: 1450  LLC: 2048
rand_sets[28]: 1450
Assign rand_sets[29]: 1160  LLC: 2048
rand_sets[29]: 1160
Assign rand_sets[30]: 1852  LLC: 2048
rand_sets[30]: 1852
Assign rand_sets[31]: 1881  LLC: 2048
rand_sets[31]: 1881
Assign rand_sets[32]: 1770  LLC: 2048
rand_sets[32]: 1770
Assign rand_sets[33]: 1622  LLC: 2048
rand_sets[33]: 1622
Assign rand_sets[34]: 275  LLC: 2048
rand_sets[34]: 275
Assign rand_sets[35]: 635  LLC: 2048
rand_sets[35]: 635
Assign rand_sets[36]: 466  LLC: 2048
rand_sets[36]: 466
Assign rand_sets[37]: 1413  LLC: 2048
rand_sets[37]: 1413
Assign rand_sets[38]: 417  LLC: 2048
rand_sets[38]: 417
Assign rand_sets[39]: 472  LLC: 2048
rand_sets[39]: 472
Assign rand_sets[40]: 1340  LLC: 2048
rand_sets[40]: 1340
Assign rand_sets[41]: 852  LLC: 2048
rand_sets[41]: 852
Assign rand_sets[42]: 1365  LLC: 2048
rand_sets[42]: 1365
Assign rand_sets[43]: 47  LLC: 2048
rand_sets[43]: 47
Assign rand_sets[44]: 823  LLC: 2048
rand_sets[44]: 823
Assign rand_sets[45]: 686  LLC: 2048
rand_sets[45]: 686
Assign rand_sets[46]: 1637  LLC: 2048
rand_sets[46]: 1637
Assign rand_sets[47]: 1115  LLC: 2048
rand_sets[47]: 1115
Assign rand_sets[48]: 986  LLC: 2048
rand_sets[48]: 986
Assign rand_sets[49]: 258  LLC: 2048
rand_sets[49]: 258
Assign rand_sets[50]: 633  LLC: 2048
rand_sets[50]: 633
Assign rand_sets[51]: 920  LLC: 2048
rand_sets[51]: 920
Assign rand_sets[52]: 204  LLC: 2048
rand_sets[52]: 204
Assign rand_sets[53]: 227  LLC: 2048
rand_sets[53]: 227
Assign rand_sets[54]: 1818  LLC: 2048
rand_sets[54]: 1818
Assign rand_sets[55]: 886  LLC: 2048
rand_sets[55]: 886
Assign rand_sets[56]: 1422  LLC: 2048
rand_sets[56]: 1422
Assign rand_sets[57]: 607  LLC: 2048
rand_sets[57]: 607
Assign rand_sets[58]: 217  LLC: 2048
rand_sets[58]: 217
Assign rand_sets[59]: 1945  LLC: 2048
rand_sets[59]: 1945
Assign rand_sets[60]: 143  LLC: 2048
rand_sets[60]: 143
Assign rand_sets[61]: 1311  LLC: 2048
rand_sets[61]: 1311
Assign rand_sets[62]: 319  LLC: 2048
rand_sets[62]: 319
Assign rand_sets[63]: 1846  LLC: 2048
rand_sets[63]: 1846
 CLEAN-RRIP-POLICY-1: 1-2-2-0-1-3-1-3- CLEAN-RRIP-POLICY-2: 1-2-2-0-1-3-1-3-
 DIRTY-RRIP-POLICY-1: 1-2-1-0-2-3-0-3- DIRTY-RRIP-POLICY-2: 1-2-1-0-2-3-0-3-
 PSEL width: 10
Heartbeat CPU 0 instructions: 10000000 cycles: 4321544 heartbeat IPC: 2.31399 cumulative IPC: 2.31399 (Simulation time: 0 hr 0 min 18 sec) 
Heartbeat CPU 0 instructions: 20000000 cycles: 8643617 heartbeat IPC: 2.3137 cumulative IPC: 2.31385 (Simulation time: 0 hr 0 min 36 sec) 
Heartbeat CPU 0 instructions: 30000000 cycles: 12965427 heartbeat IPC: 2.31385 cumulative IPC: 2.31385 (Simulation time: 0 hr 0 min 54 sec) 
Heartbeat CPU 0 instructions: 40000000 cycles: 17291351 heartbeat IPC: 2.31164 cumulative IPC: 2.3133 (Simulation time: 0 hr 1 min 13 sec) 
Heartbeat CPU 0 instructions: 50000000 cycles: 21613363 heartbeat IPC: 2.31374 cumulative IPC: 2.31338 (Simulation time: 0 hr 1 min 31 sec) 
Heartbeat CPU 0 instructions: 60000000 cycles: 25935295 heartbeat IPC: 2.31378 cumulative IPC: 2.31345 (Simulation time: 0 hr 1 min 49 sec) 
Heartbeat CPU 0 instructions: 70000000 cycles: 30256885 heartbeat IPC: 2.31396 cumulative IPC: 2.31352 (Simulation time: 0 hr 2 min 8 sec) 
Heartbeat CPU 0 instructions: 80000000 cycles: 34583150 heartbeat IPC: 2.31146 cumulative IPC: 2.31327 (Simulation time: 0 hr 2 min 27 sec) 
Heartbeat CPU 0 instructions: 90000003 cycles: 38905297 heartbeat IPC: 2.31367 cumulative IPC: 2.31331 (Simulation time: 0 hr 2 min 45 sec) 
Heartbeat CPU 0 instructions: 100000000 cycles: 43226875 heartbeat IPC: 2.31397 cumulative IPC: 2.31338 (Simulation time: 0 hr 3 min 4 sec) 

Warmup complete CPU 0 instructions: 100000001 cycles: 43226876 (Simulation time: 0 hr 3 min 4 sec) 

Heartbeat CPU 0 instructions: 110000000 cycles: 57768158 heartbeat IPC: 0.687697 cumulative IPC: 0.687697 (Simulation time: 0 hr 3 min 31 sec) 
Heartbeat CPU 0 instructions: 120000000 cycles: 72586099 heartbeat IPC: 0.674858 cumulative IPC: 0.681217 (Simulation time: 0 hr 3 min 58 sec) 
Heartbeat CPU 0 instructions: 130000000 cycles: 87151136 heartbeat IPC: 0.686576 cumulative IPC: 0.682994 (Simulation time: 0 hr 4 min 25 sec) 
Heartbeat CPU 0 instructions: 140000000 cycles: 101708003 heartbeat IPC: 0.686961 cumulative IPC: 0.683981 (Simulation time: 0 hr 4 min 52 sec) 
Heartbeat CPU 0 instructions: 150000003 cycles: 115805989 heartbeat IPC: 0.709321 cumulative IPC: 0.688903 (Simulation time: 0 hr 5 min 18 sec) 
Heartbeat CPU 0 instructions: 160000000 cycles: 129864840 heartbeat IPC: 0.711295 cumulative IPC: 0.692537 (Simulation time: 0 hr 5 min 45 sec) 
Heartbeat CPU 0 instructions: 170000002 cycles: 144565801 heartbeat IPC: 0.680228 cumulative IPC: 0.690751 (Simulation time: 0 hr 6 min 12 sec) 
Heartbeat CPU 0 instructions: 180000000 cycles: 158940392 heartbeat IPC: 0.695672 cumulative IPC: 0.691363 (Simulation time: 0 hr 6 min 38 sec) 
Heartbeat CPU 0 instructions: 190000003 cycles: 176458696 heartbeat IPC: 0.570832 cumulative IPC: 0.675514 (Simulation time: 0 hr 7 min 8 sec) 
Heartbeat CPU 0 instructions: 200000000 cycles: 197370719 heartbeat IPC: 0.478194 cumulative IPC: 0.648745 (Simulation time: 0 hr 7 min 41 sec) 
Heartbeat CPU 0 instructions: 210000001 cycles: 211777763 heartbeat IPC: 0.694105 cumulative IPC: 0.652622 (Simulation time: 0 hr 8 min 8 sec) 
Heartbeat CPU 0 instructions: 220000000 cycles: 226060875 heartbeat IPC: 0.700127 cumulative IPC: 0.656333 (Simulation time: 0 hr 8 min 35 sec) 
Heartbeat CPU 0 instructions: 230000001 cycles: 240644140 heartbeat IPC: 0.685718 cumulative IPC: 0.658504 (Simulation time: 0 hr 9 min 2 sec) 
Heartbeat CPU 0 instructions: 240000000 cycles: 255249191 heartbeat IPC: 0.684695 cumulative IPC: 0.660308 (Simulation time: 0 hr 9 min 29 sec) 
Heartbeat CPU 0 instructions: 250000000 cycles: 270157978 heartbeat IPC: 0.670745 cumulative IPC: 0.660994 (Simulation time: 0 hr 9 min 56 sec) 
Heartbeat CPU 0 instructions: 260000000 cycles: 285118005 heartbeat IPC: 0.668448 cumulative IPC: 0.661455 (Simulation time: 0 hr 10 min 23 sec) 
Heartbeat CPU 0 instructions: 270000002 cycles: 300520380 heartbeat IPC: 0.649251 cumulative IPC: 0.660724 (Simulation time: 0 hr 10 min 51 sec) 
Heartbeat CPU 0 instructions: 280000000 cycles: 315745173 heartbeat IPC: 0.656823 cumulative IPC: 0.660506 (Simulation time: 0 hr 11 min 19 sec) 
Heartbeat CPU 0 instructions: 290000003 cycles: 331896190 heartbeat IPC: 0.619156 cumulative IPC: 0.658193 (Simulation time: 0 hr 11 min 47 sec) 
Heartbeat CPU 0 instructions: 300000000 cycles: 347305690 heartbeat IPC: 0.64895 cumulative IPC: 0.657724 (Simulation time: 0 hr 12 min 15 sec) 
Heartbeat CPU 0 instructions: 310000000 cycles: 363704509 heartbeat IPC: 0.6098 cumulative IPC: 0.655272 (Simulation time: 0 hr 12 min 43 sec) 
Heartbeat CPU 0 instructions: 320000000 cycles: 379831953 heartbeat IPC: 0.620061 cumulative IPC: 0.653585 (Simulation time: 0 hr 13 min 11 sec) 
Heartbeat CPU 0 instructions: 330000002 cycles: 395291491 heartbeat IPC: 0.64685 cumulative IPC: 0.653289 (Simulation time: 0 hr 13 min 38 sec) 
Heartbeat CPU 0 instructions: 340000000 cycles: 411575716 heartbeat IPC: 0.614091 cumulative IPC: 0.651556 (Simulation time: 0 hr 14 min 5 sec) 
Heartbeat CPU 0 instructions: 350000001 cycles: 426938397 heartbeat IPC: 0.650928 cumulative IPC: 0.651531 (Simulation time: 0 hr 14 min 32 sec) 
Heartbeat CPU 0 instructions: 360000000 cycles: 442789208 heartbeat IPC: 0.630883 cumulative IPC: 0.650712 (Simulation time: 0 hr 15 min 0 sec) 
Heartbeat CPU 0 instructions: 370000000 cycles: 458025847 heartbeat IPC: 0.656313 cumulative IPC: 0.650918 (Simulation time: 0 hr 15 min 27 sec) 
Heartbeat CPU 0 instructions: 380000000 cycles: 473408443 heartbeat IPC: 0.650085 cumulative IPC: 0.650888 (Simulation time: 0 hr 15 min 54 sec) 
Heartbeat CPU 0 instructions: 390000000 cycles: 488107966 heartbeat IPC: 0.680294 cumulative IPC: 0.65186 (Simulation time: 0 hr 16 min 20 sec) 
Heartbeat CPU 0 instructions: 400000000 cycles: 502844456 heartbeat IPC: 0.678588 cumulative IPC: 0.652717 (Simulation time: 0 hr 16 min 46 sec) 
Heartbeat CPU 0 instructions: 410000000 cycles: 517433437 heartbeat IPC: 0.685449 cumulative IPC: 0.653724 (Simulation time: 0 hr 17 min 12 sec) 
Heartbeat CPU 0 instructions: 420000000 cycles: 531968048 heartbeat IPC: 0.688013 cumulative IPC: 0.654743 (Simulation time: 0 hr 17 min 38 sec) 
Heartbeat CPU 0 instructions: 430000002 cycles: 546287697 heartbeat IPC: 0.698341 cumulative IPC: 0.655984 (Simulation time: 0 hr 18 min 3 sec) 
Heartbeat CPU 0 instructions: 440000000 cycles: 560436444 heartbeat IPC: 0.706776 cumulative IPC: 0.657374 (Simulation time: 0 hr 18 min 28 sec) 
Heartbeat CPU 0 instructions: 450000000 cycles: 574946846 heartbeat IPC: 0.689161 cumulative IPC: 0.658241 (Simulation time: 0 hr 18 min 54 sec) 
Heartbeat CPU 0 instructions: 460000000 cycles: 589963582 heartbeat IPC: 0.665924 cumulative IPC: 0.658452 (Simulation time: 0 hr 19 min 19 sec) 
Heartbeat CPU 0 instructions: 470000000 cycles: 604385566 heartbeat IPC: 0.693386 cumulative IPC: 0.65935 (Simulation time: 0 hr 19 min 45 sec) 
Heartbeat CPU 0 instructions: 480000000 cycles: 618711696 heartbeat IPC: 0.698025 cumulative IPC: 0.660313 (Simulation time: 0 hr 20 min 10 sec) 
Heartbeat CPU 0 instructions: 490000001 cycles: 633463659 heartbeat IPC: 0.677876 cumulative IPC: 0.660752 (Simulation time: 0 hr 20 min 36 sec) 
Heartbeat CPU 0 instructions: 500000000 cycles: 647857345 heartbeat IPC: 0.694749 cumulative IPC: 0.661561 (Simulation time: 0 hr 21 min 1 sec) 
Heartbeat CPU 0 instructions: 510000002 cycles: 662087112 heartbeat IPC: 0.702752 cumulative IPC: 0.662508 (Simulation time: 0 hr 21 min 26 sec) 
Heartbeat CPU 0 instructions: 520000000 cycles: 676205029 heartbeat IPC: 0.70832 cumulative IPC: 0.66353 (Simulation time: 0 hr 21 min 51 sec) 
Heartbeat CPU 0 instructions: 530000001 cycles: 690635573 heartbeat IPC: 0.692975 cumulative IPC: 0.664186 (Simulation time: 0 hr 22 min 17 sec) 
Heartbeat CPU 0 instructions: 540000000 cycles: 705123147 heartbeat IPC: 0.690247 cumulative IPC: 0.664757 (Simulation time: 0 hr 22 min 42 sec) 
Heartbeat CPU 0 instructions: 550000003 cycles: 719122389 heartbeat IPC: 0.714325 cumulative IPC: 0.665783 (Simulation time: 0 hr 23 min 7 sec) 
Heartbeat CPU 0 instructions: 560000000 cycles: 733627615 heartbeat IPC: 0.689407 cumulative IPC: 0.66628 (Simulation time: 0 hr 23 min 33 sec) 
Heartbeat CPU 0 instructions: 570000001 cycles: 747989029 heartbeat IPC: 0.69631 cumulative IPC: 0.666892 (Simulation time: 0 hr 23 min 58 sec) 
Heartbeat CPU 0 instructions: 580000000 cycles: 761892380 heartbeat IPC: 0.719251 cumulative IPC: 0.667905 (Simulation time: 0 hr 24 min 23 sec) 
Heartbeat CPU 0 instructions: 590000003 cycles: 775355414 heartbeat IPC: 0.742775 cumulative IPC: 0.669281 (Simulation time: 0 hr 24 min 48 sec) 
Heartbeat CPU 0 instructions: 600000000 cycles: 789894507 heartbeat IPC: 0.687801 cumulative IPC: 0.669642 (Simulation time: 0 hr 25 min 13 sec) 
Finished CPU 0 instructions: 500000000 cycles: 746667639 cumulative IPC: 0.669642 (Simulation time: 0 hr 25 min 13 sec) 

CPU 0 Branch Prediction Accuracy: 99.5915% MPKI: 0.037126
Number of Branches: 4544106 Number of Mispredictions: 18563
Number of LOAD Instructions: 149787067
Number of LOAD Instructions (ROI): 149787067
Number of STORE Instructions: 77239062
Number of STORE Instructions (ROI): 77239062
Total Destination Memory Operands: 77239062
Total Destination Memory Operands (ROI): 77239062
Total Source Memory Operands: 149787067
Total Source Memory Operands (ROI): 149787067
Number of DEPENDED LOADS: 19252042
Number of DEPENDED LOADS (ROI): 19252042
Number of SQ_ADDED: 77239036
Number of SQ_ADDED (ROI): 77239036
Number of LQ_ADDED: 149787020
Number of LQ_ADDED (ROI): 149787020
Number of Instructions read from trace: 600000256

ChampSim completed all CPUs

Region of Interest Statistics

CPU 0 cumulative IPC: 0.669642 instructions: 500000000 cycles: 746667639
ITLB TOTAL     ACCESS:   86451618  HIT:   86451617  MISS:          1
ITLB LOAD      ACCESS:   86451618  HIT:   86451617  MISS:          1
ITLB RFO       ACCESS:          0  HIT:          0  MISS:          0
ITLB PREFETCH  ACCESS:          0  HIT:          0  MISS:          0
ITLB WRITEBACK ACCESS:          0  HIT:          0  MISS:          0
ITLB PREFETCH  REQUESTED:          0  ISSUED:          0  USEFUL:          0  USELESS:          0
ITLB TOTAL MSHR MERGED:          1
ITLB LOAD MSHR MERGED:          1
ITLB RFO MSHR MERGED:          0
ITLB PREFETCH MSHR MERGED:          0
ITLB WRITEBACK MSHR MERGED:          0
ITLB TOTAL ACCESSES:   86451619 HITS:   86451617 MISSES:          2
ITLB LOAD ACCESSES:   86451619 HITS:   86451617 MISSES:          2
ITLB RFO ACCESSES:          0 HITS:          0 MISSES:          0
ITLB PREFETCH ACCESSES:          0 HITS:          0 MISSES:          0
ITLB WRITEBACK ACCESSES:          0 HITS:          0 MISSES:          0
ITLB RQ ACCESS:  500000002
ITLB RQ TO_CACHE:   86451619
ITLB RQ MERGED:  413548383
ITLB RQ FORWARD:          0
ITLB WQ ACCESS:          0
ITLB WQ TO_CACHE:          0
ITLB WQ MERGED:          0
ITLB WQ FORWARD:          0
DTLB TOTAL     ACCESS:   98098347  HIT:   97913086  MISS:     185261
DTLB LOAD      ACCESS:   55038130  HIT:   54991819  MISS:      46311
DTLB RFO       ACCESS:   43060217  HIT:   42921267  MISS:     138950
DTLB PREFETCH  ACCESS:          0  HIT:          0  MISS:          0
DTLB WRITEBACK ACCESS:          0  HIT:          0  MISS:          0
DTLB PREFETCH  REQUESTED:          0  ISSUED:          0  USEFUL:          0  USELESS:          0
DTLB TOTAL MSHR MERGED:      83615
DTLB LOAD MSHR MERGED:      83608
DTLB RFO MSHR MERGED:          7
DTLB PREFETCH MSHR MERGED:          0
DTLB WRITEBACK MSHR MERGED:          0
DTLB TOTAL ACCESSES:   98181962 HITS:   97913086 MISSES:     268876
DTLB LOAD ACCESSES:   55121738 HITS:   54991819 MISSES:     129919
DTLB RFO ACCESSES:   43060224 HITS:   42921267 MISSES:     138957
DTLB PREFETCH ACCESSES:          0 HITS:          0 MISSES:          0
DTLB WRITEBACK ACCESSES:          0 HITS:          0 MISSES:          0
DTLB RQ ACCESS:  173630485
DTLB RQ TO_CACHE:   98181962
DTLB RQ MERGED:   75448523
DTLB RQ FORWARD:          0
DTLB WQ ACCESS:          0
DTLB WQ TO_CACHE:          0
DTLB WQ MERGED:          0
DTLB WQ FORWARD:          0
L1D TOTAL     ACCESS:  164468255  HIT:  144895691  MISS:   19572564
L1D LOAD      ACCESS:   60455164  HIT:   58602067  MISS:    1853097
L1D RFO       ACCESS:   64512442  HIT:   47910314  MISS:   16602128
L1D PREFETCH  ACCESS:   39500649  HIT:   38383310  MISS:    1117339
L1D WRITEBACK ACCESS:          0  HIT:          0  MISS:          0
L1D PREFETCH  REQUESTED:   61585360  ISSUED:   61294276  USEFUL:    1115424  USELESS:       1916
L1D TOTAL MSHR MERGED:    3458307
L1D LOAD MSHR MERGED:    1200543
L1D RFO MSHR MERGED:      11446
L1D PREFETCH MSHR MERGED:    2246318
L1D WRITEBACK MSHR MERGED:          0
L1D TOTAL ACCESSES:  168518316 HITS:  145487445 MISSES:   23030871
L1D LOAD ACCESSES:   61870747 HITS:   58887454 MISSES:    2983293
L1D RFO ACCESSES:   64523863 HITS:   47910314 MISSES:   16613549
L1D PREFETCH ACCESSES:   42123706 HITS:   38689677 MISSES:    3434029
L1D WRITEBACK ACCESSES:          0 HITS:          0 MISSES:          0
L1D RQ ACCESS:  109089170
L1D RQ TO_CACHE:   61585360
L1D RQ MERGED:   47218423
L1D RQ FORWARD:          0
L1D WQ ACCESS:   64541313
L1D WQ TO_CACHE:   64523864
L1D WQ MERGED:      17449
L1D WQ FORWARD:     591754
L1I TOTAL     ACCESS:  107760916  HIT:  107760908  MISS:          8
L1I LOAD      ACCESS:  107760916  HIT:  107760908  MISS:          8
L1I RFO       ACCESS:          0  HIT:          0  MISS:          0
L1I PREFETCH  ACCESS:          0  HIT:          0  MISS:          0
L1I WRITEBACK ACCESS:          0  HIT:          0  MISS:          0
L1I PREFETCH  REQUESTED:          0  ISSUED:          0  USEFUL:          0  USELESS:          0
L1I TOTAL MSHR MERGED:          3
L1I LOAD MSHR MERGED:          3
L1I RFO MSHR MERGED:          0
L1I PREFETCH MSHR MERGED:          0
L1I WRITEBACK MSHR MERGED:          0
L1I TOTAL ACCESSES:  107760919 HITS:  107760908 MISSES:         11
L1I LOAD ACCESSES:  107760919 HITS:  107760908 MISSES:         11
L1I RFO ACCESSES:          0 HITS:          0 MISSES:          0
L1I PREFETCH ACCESSES:          0 HITS:          0 MISSES:          0
L1I WRITEBACK ACCESSES:          0 HITS:          0 MISSES:          0
L1I RQ ACCESS:  500000007
L1I RQ TO_CACHE:  107760919
L1I RQ MERGED:  392239088
L1I RQ FORWARD:          0
L1I WQ ACCESS:          0
L1I WQ TO_CACHE:          0
L1I WQ MERGED:          0
L1I WQ FORWARD:          0
L2C TOTAL     ACCESS:   36782317  HIT:   24824740  MISS:   11957577
L2C LOAD      ACCESS:    1782758  HIT:     246490  MISS:    1536268
L2C RFO       ACCESS:   16602103  HIT:    7610735  MISS:    8991368
L2C PREFETCH  ACCESS:    1795274  HIT:     366563  MISS:    1428711
L2C WRITEBACK ACCESS:   16602182  HIT:   16600952  MISS:       1230
L2C PREFETCH  REQUESTED:     818425  ISSUED:     818425  USEFUL:     244164  USELESS:    1184828
L2C TOTAL MSHR MERGED:       2662
L2C LOAD MSHR MERGED:        621
L2C RFO MSHR MERGED:          0
L2C PREFETCH MSHR MERGED:       2041
L2C WRITEBACK MSHR MERGED:          0
L2C TOTAL ACCESSES:   36993087 HITS:   24824741 MISSES:   12168346
L2C LOAD ACCESSES:    1782758 HITS:     246490 MISSES:    1536268
L2C RFO ACCESSES:   16602103 HITS:    7610736 MISSES:    8991367
L2C PREFETCH ACCESSES:    2006044 HITS:     366563 MISSES:    1639481
L2C WRITEBACK ACCESSES:   16602182 HITS:   16600952 MISSES:       1230
L2C RQ ACCESS:   18384861
L2C RQ TO_CACHE:   18384860
L2C RQ MERGED:          0
L2C RQ FORWARD:          0
L2C WQ ACCESS:   16602182
L2C WQ TO_CACHE:   16602182
L2C WQ MERGED:          0
L2C WQ FORWARD:          1
LLC TOTAL     ACCESS:   21153248  HIT:     567940  MISS:   20585308
LLC LOAD      ACCESS:    1535647  HIT:      75703  MISS:    1459944
LLC RFO       ACCESS:    8991356  HIT:     155895  MISS:    8835461
LLC PREFETCH  ACCESS:    1634053  HIT:     130176  MISS:    1503877
LLC WRITEBACK ACCESS:    8992192  HIT:     206166  MISS:    8786026
LLC PREFETCH  REQUESTED:          0  ISSUED:          0  USEFUL:      98018  USELESS:    1410796
LLC TOTAL MSHR MERGED:       2946
LLC LOAD MSHR MERGED:        261
LLC RFO MSHR MERGED:          0
LLC PREFETCH MSHR MERGED:       2685
LLC WRITEBACK MSHR MERGED:          0
LLC TOTAL ACCESSES:   21156205 HITS:     567952 MISSES:   20588253
LLC LOAD ACCESSES:    1535647 HITS:      75703 MISSES:    1459944
LLC RFO ACCESSES:    8991367 HITS:     155907 MISSES:    8835460
LLC PREFETCH ACCESSES:    1636999 HITS:     130176 MISSES:    1506823
LLC WRITEBACK ACCESSES:    8992192 HITS:     206166 MISSES:    8786026
LLC 0 RQ ACCESS:   10527014
LLC 0 RQ TO_CACHE:   10527002
LLC 0 RQ MERGED:          0
LLC 0 RQ FORWARD:          0
LLC WQ ACCESS:    8992192
LLC WQ TO_CACHE:    8992192
LLC WQ MERGED:          0
LLC WQ FORWARD:         12
Major fault: 0 Minor fault: 102360
CPU 0 L1D next line prefetcher final stats
CPU 0 L2C PC-based stride prefetcher final stats
All Misses: 24496873
All Hits: 631886
SD Algo Stats - Switches: 0 SRR-Repls: 1638542 BRR-Repls: 0

DRAM Statistics
 CHANNEL 0
 RQ ROW_BUFFER_HIT:    3695663  ROW_BUFFER_MISS:    8102760
 DBUS_CONGESTED:   14354640
 WQ ROW_BUFFER_HIT:    1869364  ROW_BUFFER_MISS:    7065069  FULL:          0

 AVG_CONGESTED_CYCLE: 13
LOADS RETIRED: 124982196
INSTR RETIRED: 500000000
