
*** ChampSim Multicore Out-of-Order Simulator ***

Warmup Instructions: 100000000
Simulation Instructions: 500000000
Number of CPUs: 1
LLC sets: 2048
LLC ways: 16
Clean RRIP Policies: 1220131312201313 Dirty RRIP Policies: 1210230312102303 PSEL Width: 10 Track Set: 4294967295 PSEL Mask: 1 Demote Mask: 3011122330111223DS Algo: 0Window size: 0
Off-chip DRAM Size: 4096 MB Channels: 1 Width: 64-bit Data Rate: 1600 MT/s

CPU 0 runs /mnt/beegfs/iconst01/spec2017/Mcf.trace.gz
NOT SORTED
TRACE STRING: /mnt/beegfs/iconst01/spec2017/Mcf.trace.gz
SORTED
TRACE STRING: /mnt/beegfs/iconst01/spec2017/Mcf.trace.gz
INITIAL
TRACE STRING: /mnt/beegfs/iconst01/spec2017/Mcf.trace.gz

champsim_seed used: 278

CPU 0 L1D next line prefetcher
CPU 0 L2C IP-based stride prefetcher
Initialize DRRIP state
Assign rand_sets[0]: 454  LLC: 2048
rand_sets[0]: 454
Assign rand_sets[1]: 1662  LLC: 2048
rand_sets[1]: 1662
Assign rand_sets[2]: 1921  LLC: 2048
rand_sets[2]: 1921
Assign rand_sets[3]: 1131  LLC: 2048
rand_sets[3]: 1131
Assign rand_sets[4]: 331  LLC: 2048
rand_sets[4]: 331
Assign rand_sets[5]: 1531  LLC: 2048
rand_sets[5]: 1531
Assign rand_sets[6]: 482  LLC: 2048
rand_sets[6]: 482
Assign rand_sets[7]: 1275  LLC: 2048
rand_sets[7]: 1275
Assign rand_sets[8]: 1876  LLC: 2048
rand_sets[8]: 1876
Assign rand_sets[9]: 2038  LLC: 2048
rand_sets[9]: 2038
Assign rand_sets[10]: 701  LLC: 2048
rand_sets[10]: 701
Assign rand_sets[11]: 479  LLC: 2048
rand_sets[11]: 479
Assign rand_sets[12]: 892  LLC: 2048
rand_sets[12]: 892
Assign rand_sets[13]: 1820  LLC: 2048
rand_sets[13]: 1820
Assign rand_sets[14]: 1505  LLC: 2048
rand_sets[14]: 1505
Assign rand_sets[15]: 1159  LLC: 2048
rand_sets[15]: 1159
Assign rand_sets[16]: 513  LLC: 2048
rand_sets[16]: 513
Assign rand_sets[17]: 703  LLC: 2048
rand_sets[17]: 703
Assign rand_sets[18]: 561  LLC: 2048
rand_sets[18]: 561
Assign rand_sets[19]: 990  LLC: 2048
rand_sets[19]: 990
Assign rand_sets[20]: 342  LLC: 2048
rand_sets[20]: 342
Assign rand_sets[21]: 882  LLC: 2048
rand_sets[21]: 882
Assign rand_sets[22]: 15  LLC: 2048
rand_sets[22]: 15
Assign rand_sets[23]: 71  LLC: 2048
rand_sets[23]: 71
Assign rand_sets[24]: 1127  LLC: 2048
rand_sets[24]: 1127
Assign rand_sets[25]: 1382  LLC: 2048
rand_sets[25]: 1382
Assign rand_sets[26]: 647  LLC: 2048
rand_sets[26]: 647
Assign rand_sets[27]: 857  LLC: 2048
rand_sets[27]: 857
Assign rand_sets[28]: 1450  LLC: 2048
rand_sets[28]: 1450
Assign rand_sets[29]: 1160  LLC: 2048
rand_sets[29]: 1160
Assign rand_sets[30]: 1852  LLC: 2048
rand_sets[30]: 1852
Assign rand_sets[31]: 1881  LLC: 2048
rand_sets[31]: 1881
Assign rand_sets[32]: 1770  LLC: 2048
rand_sets[32]: 1770
Assign rand_sets[33]: 1622  LLC: 2048
rand_sets[33]: 1622
Assign rand_sets[34]: 275  LLC: 2048
rand_sets[34]: 275
Assign rand_sets[35]: 635  LLC: 2048
rand_sets[35]: 635
Assign rand_sets[36]: 466  LLC: 2048
rand_sets[36]: 466
Assign rand_sets[37]: 1413  LLC: 2048
rand_sets[37]: 1413
Assign rand_sets[38]: 417  LLC: 2048
rand_sets[38]: 417
Assign rand_sets[39]: 472  LLC: 2048
rand_sets[39]: 472
Assign rand_sets[40]: 1340  LLC: 2048
rand_sets[40]: 1340
Assign rand_sets[41]: 852  LLC: 2048
rand_sets[41]: 852
Assign rand_sets[42]: 1365  LLC: 2048
rand_sets[42]: 1365
Assign rand_sets[43]: 47  LLC: 2048
rand_sets[43]: 47
Assign rand_sets[44]: 823  LLC: 2048
rand_sets[44]: 823
Assign rand_sets[45]: 686  LLC: 2048
rand_sets[45]: 686
Assign rand_sets[46]: 1637  LLC: 2048
rand_sets[46]: 1637
Assign rand_sets[47]: 1115  LLC: 2048
rand_sets[47]: 1115
Assign rand_sets[48]: 986  LLC: 2048
rand_sets[48]: 986
Assign rand_sets[49]: 258  LLC: 2048
rand_sets[49]: 258
Assign rand_sets[50]: 633  LLC: 2048
rand_sets[50]: 633
Assign rand_sets[51]: 920  LLC: 2048
rand_sets[51]: 920
Assign rand_sets[52]: 204  LLC: 2048
rand_sets[52]: 204
Assign rand_sets[53]: 227  LLC: 2048
rand_sets[53]: 227
Assign rand_sets[54]: 1818  LLC: 2048
rand_sets[54]: 1818
Assign rand_sets[55]: 886  LLC: 2048
rand_sets[55]: 886
Assign rand_sets[56]: 1422  LLC: 2048
rand_sets[56]: 1422
Assign rand_sets[57]: 607  LLC: 2048
rand_sets[57]: 607
Assign rand_sets[58]: 217  LLC: 2048
rand_sets[58]: 217
Assign rand_sets[59]: 1945  LLC: 2048
rand_sets[59]: 1945
Assign rand_sets[60]: 143  LLC: 2048
rand_sets[60]: 143
Assign rand_sets[61]: 1311  LLC: 2048
rand_sets[61]: 1311
Assign rand_sets[62]: 319  LLC: 2048
rand_sets[62]: 319
Assign rand_sets[63]: 1846  LLC: 2048
rand_sets[63]: 1846
 CLEAN-RRIP-POLICY-1: 1-2-2-0-1-3-1-3- CLEAN-RRIP-POLICY-2: 1-2-2-0-1-3-1-3-
 DIRTY-RRIP-POLICY-1: 1-2-1-0-2-3-0-3- DIRTY-RRIP-POLICY-2: 1-2-1-0-2-3-0-3-
 PSEL width: 10
Heartbeat CPU 0 instructions: 10000000 cycles: 6263523 heartbeat IPC: 1.59655 cumulative IPC: 1.59655 (Simulation time: 0 hr 0 min 13 sec) 
Heartbeat CPU 0 instructions: 20000000 cycles: 12501231 heartbeat IPC: 1.60315 cumulative IPC: 1.59984 (Simulation time: 0 hr 0 min 26 sec) 
Heartbeat CPU 0 instructions: 30000000 cycles: 18731662 heartbeat IPC: 1.60503 cumulative IPC: 1.60157 (Simulation time: 0 hr 0 min 39 sec) 
Heartbeat CPU 0 instructions: 40000000 cycles: 24960144 heartbeat IPC: 1.60553 cumulative IPC: 1.60255 (Simulation time: 0 hr 0 min 52 sec) 
Heartbeat CPU 0 instructions: 50000003 cycles: 31192162 heartbeat IPC: 1.60462 cumulative IPC: 1.60297 (Simulation time: 0 hr 1 min 5 sec) 
Heartbeat CPU 0 instructions: 60000000 cycles: 37406478 heartbeat IPC: 1.60919 cumulative IPC: 1.604 (Simulation time: 0 hr 1 min 18 sec) 
Heartbeat CPU 0 instructions: 70000003 cycles: 43644618 heartbeat IPC: 1.60304 cumulative IPC: 1.60386 (Simulation time: 0 hr 1 min 31 sec) 
Heartbeat CPU 0 instructions: 80000000 cycles: 49893220 heartbeat IPC: 1.60036 cumulative IPC: 1.60342 (Simulation time: 0 hr 1 min 44 sec) 
Heartbeat CPU 0 instructions: 90000000 cycles: 56141625 heartbeat IPC: 1.60041 cumulative IPC: 1.60309 (Simulation time: 0 hr 1 min 57 sec) 
Heartbeat CPU 0 instructions: 100000000 cycles: 62380779 heartbeat IPC: 1.60278 cumulative IPC: 1.60306 (Simulation time: 0 hr 2 min 11 sec) 

Warmup complete CPU 0 instructions: 100000001 cycles: 62380780 (Simulation time: 0 hr 2 min 11 sec) 

Heartbeat CPU 0 instructions: 110000000 cycles: 92659620 heartbeat IPC: 0.330264 cumulative IPC: 0.330264 (Simulation time: 0 hr 2 min 39 sec) 
Heartbeat CPU 0 instructions: 120000000 cycles: 122817931 heartbeat IPC: 0.331584 cumulative IPC: 0.330922 (Simulation time: 0 hr 3 min 6 sec) 
Heartbeat CPU 0 instructions: 130000000 cycles: 153379989 heartbeat IPC: 0.327203 cumulative IPC: 0.329673 (Simulation time: 0 hr 3 min 34 sec) 
Heartbeat CPU 0 instructions: 140000000 cycles: 183858236 heartbeat IPC: 0.328103 cumulative IPC: 0.329279 (Simulation time: 0 hr 4 min 2 sec) 
Heartbeat CPU 0 instructions: 150000003 cycles: 214199371 heartbeat IPC: 0.329586 cumulative IPC: 0.32934 (Simulation time: 0 hr 4 min 30 sec) 
Heartbeat CPU 0 instructions: 160000000 cycles: 245174033 heartbeat IPC: 0.322844 cumulative IPC: 0.32824 (Simulation time: 0 hr 4 min 59 sec) 
Heartbeat CPU 0 instructions: 170000001 cycles: 275978493 heartbeat IPC: 0.324628 cumulative IPC: 0.327719 (Simulation time: 0 hr 5 min 27 sec) 
Heartbeat CPU 0 instructions: 180000000 cycles: 306791642 heartbeat IPC: 0.324537 cumulative IPC: 0.327318 (Simulation time: 0 hr 5 min 55 sec) 
Heartbeat CPU 0 instructions: 190000003 cycles: 337546303 heartbeat IPC: 0.325154 cumulative IPC: 0.327076 (Simulation time: 0 hr 6 min 23 sec) 
Heartbeat CPU 0 instructions: 200000000 cycles: 368367739 heartbeat IPC: 0.324449 cumulative IPC: 0.326811 (Simulation time: 0 hr 6 min 52 sec) 
Heartbeat CPU 0 instructions: 210000003 cycles: 399210833 heartbeat IPC: 0.324222 cumulative IPC: 0.326574 (Simulation time: 0 hr 7 min 20 sec) 
Heartbeat CPU 0 instructions: 220000000 cycles: 430659436 heartbeat IPC: 0.317979 cumulative IPC: 0.32584 (Simulation time: 0 hr 7 min 48 sec) 
Heartbeat CPU 0 instructions: 230000002 cycles: 461337384 heartbeat IPC: 0.325967 cumulative IPC: 0.32585 (Simulation time: 0 hr 8 min 17 sec) 
Heartbeat CPU 0 instructions: 240000000 cycles: 492749873 heartbeat IPC: 0.318345 cumulative IPC: 0.325302 (Simulation time: 0 hr 8 min 45 sec) 
Heartbeat CPU 0 instructions: 250000000 cycles: 523674807 heartbeat IPC: 0.323364 cumulative IPC: 0.325172 (Simulation time: 0 hr 9 min 13 sec) 
Heartbeat CPU 0 instructions: 260000000 cycles: 554707514 heartbeat IPC: 0.322241 cumulative IPC: 0.324987 (Simulation time: 0 hr 9 min 42 sec) 
Heartbeat CPU 0 instructions: 270000001 cycles: 585943841 heartbeat IPC: 0.32014 cumulative IPC: 0.324698 (Simulation time: 0 hr 10 min 10 sec) 
Heartbeat CPU 0 instructions: 280000000 cycles: 617156647 heartbeat IPC: 0.320381 cumulative IPC: 0.324455 (Simulation time: 0 hr 10 min 39 sec) 
Heartbeat CPU 0 instructions: 290000001 cycles: 648375408 heartbeat IPC: 0.32032 cumulative IPC: 0.324235 (Simulation time: 0 hr 11 min 7 sec) 
Heartbeat CPU 0 instructions: 300000000 cycles: 680073935 heartbeat IPC: 0.315472 cumulative IPC: 0.323785 (Simulation time: 0 hr 11 min 36 sec) 
Heartbeat CPU 0 instructions: 310000003 cycles: 711142343 heartbeat IPC: 0.32187 cumulative IPC: 0.323694 (Simulation time: 0 hr 12 min 5 sec) 
Heartbeat CPU 0 instructions: 320000000 cycles: 742845939 heartbeat IPC: 0.315422 cumulative IPC: 0.323308 (Simulation time: 0 hr 12 min 33 sec) 
Heartbeat CPU 0 instructions: 330000003 cycles: 773850825 heartbeat IPC: 0.32253 cumulative IPC: 0.323274 (Simulation time: 0 hr 13 min 1 sec) 
Heartbeat CPU 0 instructions: 340000000 cycles: 805586578 heartbeat IPC: 0.315102 cumulative IPC: 0.322925 (Simulation time: 0 hr 13 min 29 sec) 
Heartbeat CPU 0 instructions: 350000002 cycles: 837345761 heartbeat IPC: 0.31487 cumulative IPC: 0.322595 (Simulation time: 0 hr 13 min 57 sec) 
Heartbeat CPU 0 instructions: 360000000 cycles: 869246495 heartbeat IPC: 0.313472 cumulative IPC: 0.322235 (Simulation time: 0 hr 14 min 25 sec) 
Heartbeat CPU 0 instructions: 370000002 cycles: 900902556 heartbeat IPC: 0.315895 cumulative IPC: 0.321995 (Simulation time: 0 hr 14 min 54 sec) 
Heartbeat CPU 0 instructions: 380000000 cycles: 932315899 heartbeat IPC: 0.318336 cumulative IPC: 0.321863 (Simulation time: 0 hr 15 min 22 sec) 
Heartbeat CPU 0 instructions: 390000002 cycles: 963714233 heartbeat IPC: 0.318488 cumulative IPC: 0.321746 (Simulation time: 0 hr 15 min 50 sec) 
Heartbeat CPU 0 instructions: 400000000 cycles: 995641150 heartbeat IPC: 0.313215 cumulative IPC: 0.321454 (Simulation time: 0 hr 16 min 18 sec) 
Heartbeat CPU 0 instructions: 410000002 cycles: 1027098170 heartbeat IPC: 0.317894 cumulative IPC: 0.321338 (Simulation time: 0 hr 16 min 46 sec) 
Heartbeat CPU 0 instructions: 420000000 cycles: 1058345812 heartbeat IPC: 0.320024 cumulative IPC: 0.321296 (Simulation time: 0 hr 17 min 13 sec) 
Heartbeat CPU 0 instructions: 430000000 cycles: 1090259770 heartbeat IPC: 0.313343 cumulative IPC: 0.321049 (Simulation time: 0 hr 17 min 41 sec) 
Heartbeat CPU 0 instructions: 440000000 cycles: 1121546128 heartbeat IPC: 0.319628 cumulative IPC: 0.321007 (Simulation time: 0 hr 18 min 8 sec) 
Heartbeat CPU 0 instructions: 450000000 cycles: 1154557327 heartbeat IPC: 0.302927 cumulative IPC: 0.320461 (Simulation time: 0 hr 18 min 37 sec) 
Heartbeat CPU 0 instructions: 460000000 cycles: 1187625267 heartbeat IPC: 0.302408 cumulative IPC: 0.31993 (Simulation time: 0 hr 19 min 6 sec) 
Heartbeat CPU 0 instructions: 470000001 cycles: 1220164540 heartbeat IPC: 0.307321 cumulative IPC: 0.319576 (Simulation time: 0 hr 19 min 35 sec) 
Heartbeat CPU 0 instructions: 480000000 cycles: 1253175563 heartbeat IPC: 0.302929 cumulative IPC: 0.319115 (Simulation time: 0 hr 20 min 4 sec) 
Heartbeat CPU 0 instructions: 490000000 cycles: 1285617552 heartbeat IPC: 0.308242 cumulative IPC: 0.318826 (Simulation time: 0 hr 20 min 33 sec) 
Heartbeat CPU 0 instructions: 500000000 cycles: 1319010579 heartbeat IPC: 0.299464 cumulative IPC: 0.318312 (Simulation time: 0 hr 21 min 2 sec) 
Heartbeat CPU 0 instructions: 510000003 cycles: 1352414128 heartbeat IPC: 0.299369 cumulative IPC: 0.317821 (Simulation time: 0 hr 21 min 31 sec) 
Heartbeat CPU 0 instructions: 520000000 cycles: 1386241403 heartbeat IPC: 0.295619 cumulative IPC: 0.317254 (Simulation time: 0 hr 22 min 0 sec) 
Heartbeat CPU 0 instructions: 530000001 cycles: 1420095685 heartbeat IPC: 0.295384 cumulative IPC: 0.316709 (Simulation time: 0 hr 22 min 30 sec) 
Heartbeat CPU 0 instructions: 540000000 cycles: 1453785163 heartbeat IPC: 0.296829 cumulative IPC: 0.316227 (Simulation time: 0 hr 22 min 59 sec) 
Heartbeat CPU 0 instructions: 550000000 cycles: 1487402213 heartbeat IPC: 0.297468 cumulative IPC: 0.315785 (Simulation time: 0 hr 23 min 28 sec) 
Heartbeat CPU 0 instructions: 560000000 cycles: 1521690752 heartbeat IPC: 0.291643 cumulative IPC: 0.315217 (Simulation time: 0 hr 23 min 58 sec) 
Heartbeat CPU 0 instructions: 570000001 cycles: 1555844574 heartbeat IPC: 0.292793 cumulative IPC: 0.314705 (Simulation time: 0 hr 24 min 27 sec) 
Heartbeat CPU 0 instructions: 580000000 cycles: 1589925495 heartbeat IPC: 0.293419 cumulative IPC: 0.31423 (Simulation time: 0 hr 24 min 56 sec) 
Heartbeat CPU 0 instructions: 590000000 cycles: 1624382645 heartbeat IPC: 0.290216 cumulative IPC: 0.3137 (Simulation time: 0 hr 25 min 26 sec) 
Heartbeat CPU 0 instructions: 600000000 cycles: 1659139122 heartbeat IPC: 0.287716 cumulative IPC: 0.313134 (Simulation time: 0 hr 25 min 56 sec) 
Finished CPU 0 instructions: 500000003 cycles: 1596758355 cumulative IPC: 0.313134 (Simulation time: 0 hr 25 min 56 sec) 

CPU 0 Branch Prediction Accuracy: 91.1342% MPKI: 18.7968
Number of Branches: 106006945 Number of Mispredictions: 9398408
Number of LOAD Instructions: 207894007
Number of LOAD Instructions (ROI): 207894007
Number of STORE Instructions: 54285997
Number of STORE Instructions (ROI): 54285997
Total Destination Memory Operands: 57463404
Total Destination Memory Operands (ROI): 57463404
Total Source Memory Operands: 207894007
Total Source Memory Operands (ROI): 207894007
Number of DEPENDED LOADS: 18154426
Number of DEPENDED LOADS (ROI): 18154426
Number of SQ_ADDED: 57463404
Number of SQ_ADDED (ROI): 57463404
Number of LQ_ADDED: 211150162
Number of LQ_ADDED (ROI): 211150162
Number of Instructions read from trace: 600000039

ChampSim completed all CPUs

Region of Interest Statistics

CPU 0 cumulative IPC: 0.313134 instructions: 500000003 cycles: 1596758355
ITLB TOTAL     ACCESS:   96380751  HIT:   96380751  MISS:          0
ITLB LOAD      ACCESS:   96380751  HIT:   96380751  MISS:          0
ITLB RFO       ACCESS:          0  HIT:          0  MISS:          0
ITLB PREFETCH  ACCESS:          0  HIT:          0  MISS:          0
ITLB WRITEBACK ACCESS:          0  HIT:          0  MISS:          0
ITLB PREFETCH  REQUESTED:          0  ISSUED:          0  USEFUL:          0  USELESS:          0
ITLB TOTAL MSHR MERGED:          0
ITLB LOAD MSHR MERGED:          0
ITLB RFO MSHR MERGED:          0
ITLB PREFETCH MSHR MERGED:          0
ITLB WRITEBACK MSHR MERGED:          0
ITLB TOTAL ACCESSES:   96380751 HITS:   96380751 MISSES:          0
ITLB LOAD ACCESSES:   96380751 HITS:   96380751 MISSES:          0
ITLB RFO ACCESSES:          0 HITS:          0 MISSES:          0
ITLB PREFETCH ACCESSES:          0 HITS:          0 MISSES:          0
ITLB WRITEBACK ACCESSES:          0 HITS:          0 MISSES:          0
ITLB RQ ACCESS:  499999980
ITLB RQ TO_CACHE:   96380751
ITLB RQ MERGED:  403619229
ITLB RQ FORWARD:          0
ITLB WQ ACCESS:          0
ITLB WQ TO_CACHE:          0
ITLB WQ MERGED:          0
ITLB WQ FORWARD:          0
DTLB TOTAL     ACCESS:  155149284  HIT:  150237194  MISS:    4912090
DTLB LOAD      ACCESS:  117704662  HIT:  113313929  MISS:    4390733
DTLB RFO       ACCESS:   37444622  HIT:   36923265  MISS:     521357
DTLB PREFETCH  ACCESS:          0  HIT:          0  MISS:          0
DTLB WRITEBACK ACCESS:          0  HIT:          0  MISS:          0
DTLB PREFETCH  REQUESTED:          0  ISSUED:          0  USEFUL:          0  USELESS:          0
DTLB TOTAL MSHR MERGED:     439679
DTLB LOAD MSHR MERGED:     147676
DTLB RFO MSHR MERGED:     292003
DTLB PREFETCH MSHR MERGED:          0
DTLB WRITEBACK MSHR MERGED:          0
DTLB TOTAL ACCESSES:  155588963 HITS:  150237194 MISSES:    5351769
DTLB LOAD ACCESSES:  117852338 HITS:  113313929 MISSES:    4538409
DTLB RFO ACCESSES:   37736625 HITS:   36923265 MISSES:     813360
DTLB PREFETCH ACCESSES:          0 HITS:          0 MISSES:          0
DTLB WRITEBACK ACCESSES:          0 HITS:          0 MISSES:          0
DTLB RQ ACCESS:  205927761
DTLB RQ TO_CACHE:  155588963
DTLB RQ MERGED:   50338798
DTLB RQ FORWARD:          0
DTLB WQ ACCESS:          0
DTLB WQ TO_CACHE:          0
DTLB WQ MERGED:          0
DTLB WQ FORWARD:          0
L1D TOTAL     ACCESS:  277568447  HIT:  242745572  MISS:   34822875
L1D LOAD      ACCESS:  125492185  HIT:  108133098  MISS:   17359087
L1D RFO       ACCESS:   41115044  HIT:   38803274  MISS:    2311770
L1D PREFETCH  ACCESS:  110961218  HIT:   95809200  MISS:   15152018
L1D WRITEBACK ACCESS:          0  HIT:          0  MISS:          0
L1D PREFETCH  REQUESTED:  126263473  ISSUED:  124743647  USEFUL:    2984682  USELESS:   12167361
L1D TOTAL MSHR MERGED:    8119275
L1D LOAD MSHR MERGED:    1226858
L1D RFO MSHR MERGED:    3783729
L1D PREFETCH MSHR MERGED:    3108688
L1D WRITEBACK MSHR MERGED:          0
L1D TOTAL ACCESSES:  285775034 HITS:  242832884 MISSES:   42942150
L1D LOAD ACCESSES:  126263514 HITS:  108133139 MISSES:   18130375
L1D RFO ACCESSES:   44898279 HITS:   38803274 MISSES:    6095005
L1D PREFETCH ACCESSES:  114613241 HITS:   95896471 MISSES:   18716770
L1D WRITEBACK ACCESSES:          0 HITS:          0 MISSES:          0
L1D RQ ACCESS:  158380880
L1D RQ TO_CACHE:  126263473
L1D RQ MERGED:   32117366
L1D RQ FORWARD:          0
L1D WQ ACCESS:   47546882
L1D WQ TO_CACHE:   44898279
L1D WQ MERGED:    2648603
L1D WQ FORWARD:      87312
L1I TOTAL     ACCESS:  132742450  HIT:  132742450  MISS:          0
L1I LOAD      ACCESS:  132742450  HIT:  132742450  MISS:          0
L1I RFO       ACCESS:          0  HIT:          0  MISS:          0
L1I PREFETCH  ACCESS:          0  HIT:          0  MISS:          0
L1I WRITEBACK ACCESS:          0  HIT:          0  MISS:          0
L1I PREFETCH  REQUESTED:          0  ISSUED:          0  USEFUL:          0  USELESS:          0
L1I TOTAL MSHR MERGED:          0
L1I LOAD MSHR MERGED:          0
L1I RFO MSHR MERGED:          0
L1I PREFETCH MSHR MERGED:          0
L1I WRITEBACK MSHR MERGED:          0
L1I TOTAL ACCESSES:  132742450 HITS:  132742450 MISSES:          0
L1I LOAD ACCESSES:  132742450 HITS:  132742450 MISSES:          0
L1I RFO ACCESSES:          0 HITS:          0 MISSES:          0
L1I PREFETCH ACCESSES:          0 HITS:          0 MISSES:          0
L1I WRITEBACK ACCESSES:          0 HITS:          0 MISSES:          0
L1I RQ ACCESS:  499999980
L1I RQ TO_CACHE:  132742450
L1I RQ MERGED:  367257530
L1I RQ FORWARD:          0
L1I WQ ACCESS:          0
L1I WQ TO_CACHE:          0
L1I WQ MERGED:          0
L1I WQ FORWARD:          0
L2C TOTAL     ACCESS:   39626634  HIT:   20659163  MISS:   18967471
L2C LOAD      ACCESS:   16903461  HIT:    8576623  MISS:    8326838
L2C RFO       ACCESS:    2311244  HIT:     630745  MISS:    1680499
L2C PREFETCH  ACCESS:   17189534  HIT:    8233142  MISS:    8956392
L2C WRITEBACK ACCESS:    3222395  HIT:    3218653  MISS:       3742
L2C PREFETCH  REQUESTED:    2754819  ISSUED:    2754819  USEFUL:    1317636  USELESS:    7638472
L2C TOTAL MSHR MERGED:     419873
L2C LOAD MSHR MERGED:      37729
L2C RFO MSHR MERGED:          0
L2C PREFETCH MSHR MERGED:     382144
L2C WRITEBACK MSHR MERGED:          0
L2C TOTAL ACCESSES:   40114886 HITS:   20659293 MISSES:   19455593
L2C LOAD ACCESSES:   16903517 HITS:    8576679 MISSES:    8326838
L2C RFO ACCESSES:    2311276 HITS:     630777 MISSES:    1680499
L2C PREFETCH ACCESSES:   17677698 HITS:    8233184 MISSES:    9444514
L2C WRITEBACK ACCESSES:    3222395 HITS:    3218653 MISSES:       3742
L2C RQ ACCESS:   19214793
L2C RQ TO_CACHE:   19214705
L2C RQ MERGED:          0
L2C RQ FORWARD:          0
L2C WQ ACCESS:    3222395
L2C WQ TO_CACHE:    3222395
L2C WQ MERGED:          0
L2C WQ FORWARD:        130
LLC TOTAL     ACCESS:   21184950  HIT:    9113175  MISS:   12071775
LLC LOAD      ACCESS:    8289086  HIT:    2282337  MISS:    6006749
LLC RFO       ACCESS:    1680461  HIT:    1208590  MISS:     471871
LLC PREFETCH  ACCESS:    9039724  HIT:    4290629  MISS:    4749095
LLC WRITEBACK ACCESS:    2175679  HIT:    1331619  MISS:     844060
LLC PREFETCH  REQUESTED:          0  ISSUED:          0  USEFUL:     646289  USELESS:    4109551
LLC TOTAL MSHR MERGED:      19795
LLC LOAD MSHR MERGED:       5206
LLC RFO MSHR MERGED:          0
LLC PREFETCH MSHR MERGED:      14589
LLC WRITEBACK MSHR MERGED:          0
LLC TOTAL ACCESSES:   21204827 HITS:    9113257 MISSES:   12091570
LLC LOAD ACCESSES:    8289109 HITS:    2282360 MISSES:    6006749
LLC RFO ACCESSES:    1680499 HITS:    1208628 MISSES:     471871
LLC PREFETCH ACCESSES:    9059540 HITS:    4290650 MISSES:    4768890
LLC WRITEBACK ACCESSES:    2175679 HITS:    1331619 MISSES:     844060
LLC 0 RQ ACCESS:    9969608
LLC 0 RQ TO_CACHE:    9969547
LLC 0 RQ MERGED:          0
LLC 0 RQ FORWARD:          0
LLC WQ ACCESS:    2175680
LLC WQ TO_CACHE:    2175680
LLC WQ MERGED:          0
LLC WQ FORWARD:         82
Major fault: 0 Minor fault: 56391
CPU 0 L1D next line prefetcher final stats
CPU 0 L2C PC-based stride prefetcher final stats
All Misses: 13900954
All Hits: 10660760
SD Algo Stats - Switches: 0 SRR-Repls: 6404840 BRR-Repls: 0

DRAM Statistics
 CHANNEL 0
 RQ ROW_BUFFER_HIT:    4465258  ROW_BUFFER_MISS:    6725986
 DBUS_CONGESTED:    5590089
 WQ ROW_BUFFER_HIT:     181657  ROW_BUFFER_MISS:     878141  FULL:          0

 AVG_CONGESTED_CYCLE: 12
LOADS RETIRED: 173631671
INSTR RETIRED: 500000000
