
*** ChampSim Multicore Out-of-Order Simulator ***

Warmup Instructions: 100000000
Simulation Instructions: 500000000
Number of CPUs: 1
LLC sets: 2048
LLC ways: 16
Clean RRIP Policies: 1012010110120101 Dirty RRIP Policies: 1002010110020101 PSEL Width: 10 Track Set: 4294967295 PSEL Mask: 1 Demote Mask: 3000214430002144DS Algo: 0Window size: 0
Off-chip DRAM Size: 4096 MB Channels: 1 Width: 64-bit Data Rate: 1600 MT/s

CPU 0 runs /mnt/beegfs/iconst01/spec2017/Gcc.trace.gz
NOT SORTED
TRACE STRING: /mnt/beegfs/iconst01/spec2017/Gcc.trace.gz
SORTED
TRACE STRING: /mnt/beegfs/iconst01/spec2017/Gcc.trace.gz
INITIAL
TRACE STRING: /mnt/beegfs/iconst01/spec2017/Gcc.trace.gz

champsim_seed used: 269

CPU 0 L1D next line prefetcher
CPU 0 L2C IP-based stride prefetcher
Initialize DRRIP state
Assign rand_sets[0]: 454  LLC: 2048
rand_sets[0]: 454
Assign rand_sets[1]: 1662  LLC: 2048
rand_sets[1]: 1662
Assign rand_sets[2]: 1921  LLC: 2048
rand_sets[2]: 1921
Assign rand_sets[3]: 1131  LLC: 2048
rand_sets[3]: 1131
Assign rand_sets[4]: 331  LLC: 2048
rand_sets[4]: 331
Assign rand_sets[5]: 1531  LLC: 2048
rand_sets[5]: 1531
Assign rand_sets[6]: 482  LLC: 2048
rand_sets[6]: 482
Assign rand_sets[7]: 1275  LLC: 2048
rand_sets[7]: 1275
Assign rand_sets[8]: 1876  LLC: 2048
rand_sets[8]: 1876
Assign rand_sets[9]: 2038  LLC: 2048
rand_sets[9]: 2038
Assign rand_sets[10]: 701  LLC: 2048
rand_sets[10]: 701
Assign rand_sets[11]: 479  LLC: 2048
rand_sets[11]: 479
Assign rand_sets[12]: 892  LLC: 2048
rand_sets[12]: 892
Assign rand_sets[13]: 1820  LLC: 2048
rand_sets[13]: 1820
Assign rand_sets[14]: 1505  LLC: 2048
rand_sets[14]: 1505
Assign rand_sets[15]: 1159  LLC: 2048
rand_sets[15]: 1159
Assign rand_sets[16]: 513  LLC: 2048
rand_sets[16]: 513
Assign rand_sets[17]: 703  LLC: 2048
rand_sets[17]: 703
Assign rand_sets[18]: 561  LLC: 2048
rand_sets[18]: 561
Assign rand_sets[19]: 990  LLC: 2048
rand_sets[19]: 990
Assign rand_sets[20]: 342  LLC: 2048
rand_sets[20]: 342
Assign rand_sets[21]: 882  LLC: 2048
rand_sets[21]: 882
Assign rand_sets[22]: 15  LLC: 2048
rand_sets[22]: 15
Assign rand_sets[23]: 71  LLC: 2048
rand_sets[23]: 71
Assign rand_sets[24]: 1127  LLC: 2048
rand_sets[24]: 1127
Assign rand_sets[25]: 1382  LLC: 2048
rand_sets[25]: 1382
Assign rand_sets[26]: 647  LLC: 2048
rand_sets[26]: 647
Assign rand_sets[27]: 857  LLC: 2048
rand_sets[27]: 857
Assign rand_sets[28]: 1450  LLC: 2048
rand_sets[28]: 1450
Assign rand_sets[29]: 1160  LLC: 2048
rand_sets[29]: 1160
Assign rand_sets[30]: 1852  LLC: 2048
rand_sets[30]: 1852
Assign rand_sets[31]: 1881  LLC: 2048
rand_sets[31]: 1881
Assign rand_sets[32]: 1770  LLC: 2048
rand_sets[32]: 1770
Assign rand_sets[33]: 1622  LLC: 2048
rand_sets[33]: 1622
Assign rand_sets[34]: 275  LLC: 2048
rand_sets[34]: 275
Assign rand_sets[35]: 635  LLC: 2048
rand_sets[35]: 635
Assign rand_sets[36]: 466  LLC: 2048
rand_sets[36]: 466
Assign rand_sets[37]: 1413  LLC: 2048
rand_sets[37]: 1413
Assign rand_sets[38]: 417  LLC: 2048
rand_sets[38]: 417
Assign rand_sets[39]: 472  LLC: 2048
rand_sets[39]: 472
Assign rand_sets[40]: 1340  LLC: 2048
rand_sets[40]: 1340
Assign rand_sets[41]: 852  LLC: 2048
rand_sets[41]: 852
Assign rand_sets[42]: 1365  LLC: 2048
rand_sets[42]: 1365
Assign rand_sets[43]: 47  LLC: 2048
rand_sets[43]: 47
Assign rand_sets[44]: 823  LLC: 2048
rand_sets[44]: 823
Assign rand_sets[45]: 686  LLC: 2048
rand_sets[45]: 686
Assign rand_sets[46]: 1637  LLC: 2048
rand_sets[46]: 1637
Assign rand_sets[47]: 1115  LLC: 2048
rand_sets[47]: 1115
Assign rand_sets[48]: 986  LLC: 2048
rand_sets[48]: 986
Assign rand_sets[49]: 258  LLC: 2048
rand_sets[49]: 258
Assign rand_sets[50]: 633  LLC: 2048
rand_sets[50]: 633
Assign rand_sets[51]: 920  LLC: 2048
rand_sets[51]: 920
Assign rand_sets[52]: 204  LLC: 2048
rand_sets[52]: 204
Assign rand_sets[53]: 227  LLC: 2048
rand_sets[53]: 227
Assign rand_sets[54]: 1818  LLC: 2048
rand_sets[54]: 1818
Assign rand_sets[55]: 886  LLC: 2048
rand_sets[55]: 886
Assign rand_sets[56]: 1422  LLC: 2048
rand_sets[56]: 1422
Assign rand_sets[57]: 607  LLC: 2048
rand_sets[57]: 607
Assign rand_sets[58]: 217  LLC: 2048
rand_sets[58]: 217
Assign rand_sets[59]: 1945  LLC: 2048
rand_sets[59]: 1945
Assign rand_sets[60]: 143  LLC: 2048
rand_sets[60]: 143
Assign rand_sets[61]: 1311  LLC: 2048
rand_sets[61]: 1311
Assign rand_sets[62]: 319  LLC: 2048
rand_sets[62]: 319
Assign rand_sets[63]: 1846  LLC: 2048
rand_sets[63]: 1846
 CLEAN-RRIP-POLICY-1: 1-0-1-2-0-1-0-1- CLEAN-RRIP-POLICY-2: 1-0-1-2-0-1-0-1-
 DIRTY-RRIP-POLICY-1: 1-0-0-2-0-1-0-1- DIRTY-RRIP-POLICY-2: 1-0-0-2-0-1-0-1-
 PSEL width: 10
Heartbeat CPU 0 instructions: 10000001 cycles: 7315909 heartbeat IPC: 1.36688 cumulative IPC: 1.36688 (Simulation time: 0 hr 0 min 15 sec) 
Heartbeat CPU 0 instructions: 20000000 cycles: 14307251 heartbeat IPC: 1.43034 cumulative IPC: 1.39789 (Simulation time: 0 hr 0 min 30 sec) 
Heartbeat CPU 0 instructions: 30000001 cycles: 21020078 heartbeat IPC: 1.48969 cumulative IPC: 1.42721 (Simulation time: 0 hr 0 min 47 sec) 
Heartbeat CPU 0 instructions: 40000000 cycles: 27480821 heartbeat IPC: 1.54781 cumulative IPC: 1.45556 (Simulation time: 0 hr 1 min 3 sec) 
Heartbeat CPU 0 instructions: 50000001 cycles: 33582397 heartbeat IPC: 1.63892 cumulative IPC: 1.48888 (Simulation time: 0 hr 1 min 19 sec) 
Heartbeat CPU 0 instructions: 60000000 cycles: 40063453 heartbeat IPC: 1.54296 cumulative IPC: 1.49762 (Simulation time: 0 hr 1 min 36 sec) 
Heartbeat CPU 0 instructions: 70000000 cycles: 47100567 heartbeat IPC: 1.42104 cumulative IPC: 1.48618 (Simulation time: 0 hr 1 min 51 sec) 
Heartbeat CPU 0 instructions: 80000000 cycles: 54189913 heartbeat IPC: 1.41057 cumulative IPC: 1.47629 (Simulation time: 0 hr 2 min 6 sec) 
Heartbeat CPU 0 instructions: 90000003 cycles: 61194078 heartbeat IPC: 1.42772 cumulative IPC: 1.47073 (Simulation time: 0 hr 2 min 21 sec) 
Heartbeat CPU 0 instructions: 100000000 cycles: 68361052 heartbeat IPC: 1.39529 cumulative IPC: 1.46282 (Simulation time: 0 hr 2 min 36 sec) 

Warmup complete CPU 0 instructions: 100000004 cycles: 68361053 (Simulation time: 0 hr 2 min 36 sec) 

Heartbeat CPU 0 instructions: 110000003 cycles: 95964674 heartbeat IPC: 0.362271 cumulative IPC: 0.362271 (Simulation time: 0 hr 3 min 6 sec) 
Heartbeat CPU 0 instructions: 120000000 cycles: 123392758 heartbeat IPC: 0.36459 cumulative IPC: 0.363427 (Simulation time: 0 hr 3 min 36 sec) 
Heartbeat CPU 0 instructions: 130000000 cycles: 148343287 heartbeat IPC: 0.400793 cumulative IPC: 0.375083 (Simulation time: 0 hr 4 min 6 sec) 
Heartbeat CPU 0 instructions: 140000000 cycles: 177701024 heartbeat IPC: 0.340626 cumulative IPC: 0.365831 (Simulation time: 0 hr 4 min 35 sec) 
Heartbeat CPU 0 instructions: 150000000 cycles: 207506195 heartbeat IPC: 0.335512 cumulative IPC: 0.359337 (Simulation time: 0 hr 5 min 5 sec) 
Heartbeat CPU 0 instructions: 160000000 cycles: 234881712 heartbeat IPC: 0.36529 cumulative IPC: 0.360316 (Simulation time: 0 hr 5 min 34 sec) 
Heartbeat CPU 0 instructions: 170000001 cycles: 262864208 heartbeat IPC: 0.357366 cumulative IPC: 0.359891 (Simulation time: 0 hr 6 min 5 sec) 
Heartbeat CPU 0 instructions: 180000000 cycles: 291246621 heartbeat IPC: 0.352331 cumulative IPC: 0.358929 (Simulation time: 0 hr 6 min 36 sec) 
Heartbeat CPU 0 instructions: 190000002 cycles: 319188504 heartbeat IPC: 0.357886 cumulative IPC: 0.358812 (Simulation time: 0 hr 7 min 5 sec) 
Heartbeat CPU 0 instructions: 200000000 cycles: 347488720 heartbeat IPC: 0.353354 cumulative IPC: 0.358259 (Simulation time: 0 hr 7 min 36 sec) 
Heartbeat CPU 0 instructions: 210000002 cycles: 375259661 heartbeat IPC: 0.360089 cumulative IPC: 0.358425 (Simulation time: 0 hr 8 min 6 sec) 
Heartbeat CPU 0 instructions: 220000000 cycles: 404278448 heartbeat IPC: 0.344604 cumulative IPC: 0.357231 (Simulation time: 0 hr 8 min 35 sec) 
Heartbeat CPU 0 instructions: 230000000 cycles: 431788616 heartbeat IPC: 0.363502 cumulative IPC: 0.357705 (Simulation time: 0 hr 9 min 4 sec) 
Heartbeat CPU 0 instructions: 240000000 cycles: 457748890 heartbeat IPC: 0.385204 cumulative IPC: 0.359539 (Simulation time: 0 hr 9 min 32 sec) 
Heartbeat CPU 0 instructions: 250000000 cycles: 487819706 heartbeat IPC: 0.332548 cumulative IPC: 0.357604 (Simulation time: 0 hr 10 min 3 sec) 
Heartbeat CPU 0 instructions: 260000000 cycles: 514887016 heartbeat IPC: 0.369449 cumulative IPC: 0.358322 (Simulation time: 0 hr 10 min 33 sec) 
Heartbeat CPU 0 instructions: 270000003 cycles: 543252775 heartbeat IPC: 0.352538 cumulative IPC: 0.357976 (Simulation time: 0 hr 11 min 4 sec) 
Heartbeat CPU 0 instructions: 280000000 cycles: 571337792 heartbeat IPC: 0.356062 cumulative IPC: 0.357869 (Simulation time: 0 hr 11 min 35 sec) 
Heartbeat CPU 0 instructions: 290000000 cycles: 600125523 heartbeat IPC: 0.34737 cumulative IPC: 0.357301 (Simulation time: 0 hr 12 min 6 sec) 
Heartbeat CPU 0 instructions: 300000000 cycles: 629853895 heartbeat IPC: 0.336379 cumulative IPC: 0.356193 (Simulation time: 0 hr 12 min 35 sec) 
Heartbeat CPU 0 instructions: 310000001 cycles: 659158262 heartbeat IPC: 0.341246 cumulative IPC: 0.355452 (Simulation time: 0 hr 13 min 5 sec) 
Heartbeat CPU 0 instructions: 320000000 cycles: 687278919 heartbeat IPC: 0.35561 cumulative IPC: 0.355459 (Simulation time: 0 hr 13 min 34 sec) 
Heartbeat CPU 0 instructions: 330000000 cycles: 715847277 heartbeat IPC: 0.350038 cumulative IPC: 0.35522 (Simulation time: 0 hr 14 min 4 sec) 
Heartbeat CPU 0 instructions: 340000000 cycles: 745061273 heartbeat IPC: 0.342302 cumulative IPC: 0.354662 (Simulation time: 0 hr 14 min 34 sec) 
Heartbeat CPU 0 instructions: 350000003 cycles: 772026798 heartbeat IPC: 0.370844 cumulative IPC: 0.355282 (Simulation time: 0 hr 15 min 3 sec) 
Heartbeat CPU 0 instructions: 360000000 cycles: 800075048 heartbeat IPC: 0.356528 cumulative IPC: 0.35533 (Simulation time: 0 hr 15 min 31 sec) 
Heartbeat CPU 0 instructions: 370000000 cycles: 828227267 heartbeat IPC: 0.355212 cumulative IPC: 0.355326 (Simulation time: 0 hr 16 min 0 sec) 
Heartbeat CPU 0 instructions: 380000000 cycles: 856693181 heartbeat IPC: 0.351297 cumulative IPC: 0.35518 (Simulation time: 0 hr 16 min 28 sec) 
Heartbeat CPU 0 instructions: 390000001 cycles: 884262142 heartbeat IPC: 0.362727 cumulative IPC: 0.355435 (Simulation time: 0 hr 16 min 57 sec) 
Heartbeat CPU 0 instructions: 400000000 cycles: 912857625 heartbeat IPC: 0.349706 cumulative IPC: 0.355241 (Simulation time: 0 hr 17 min 25 sec) 
Heartbeat CPU 0 instructions: 410000001 cycles: 940121249 heartbeat IPC: 0.366789 cumulative IPC: 0.355602 (Simulation time: 0 hr 17 min 53 sec) 
Heartbeat CPU 0 instructions: 420000000 cycles: 967393794 heartbeat IPC: 0.366669 cumulative IPC: 0.355938 (Simulation time: 0 hr 18 min 22 sec) 
Heartbeat CPU 0 instructions: 430000002 cycles: 995017977 heartbeat IPC: 0.362002 cumulative IPC: 0.356119 (Simulation time: 0 hr 18 min 50 sec) 
Heartbeat CPU 0 instructions: 440000000 cycles: 1024459023 heartbeat IPC: 0.339662 cumulative IPC: 0.355612 (Simulation time: 0 hr 19 min 19 sec) 
Heartbeat CPU 0 instructions: 450000002 cycles: 1053668760 heartbeat IPC: 0.342352 cumulative IPC: 0.355219 (Simulation time: 0 hr 19 min 48 sec) 
Heartbeat CPU 0 instructions: 460000000 cycles: 1081330399 heartbeat IPC: 0.361511 cumulative IPC: 0.355391 (Simulation time: 0 hr 20 min 16 sec) 
Heartbeat CPU 0 instructions: 470000000 cycles: 1108925173 heartbeat IPC: 0.362387 cumulative IPC: 0.355576 (Simulation time: 0 hr 20 min 44 sec) 
Heartbeat CPU 0 instructions: 480000000 cycles: 1136771248 heartbeat IPC: 0.359117 cumulative IPC: 0.355669 (Simulation time: 0 hr 21 min 13 sec) 
Heartbeat CPU 0 instructions: 490000000 cycles: 1164332384 heartbeat IPC: 0.36283 cumulative IPC: 0.355849 (Simulation time: 0 hr 21 min 41 sec) 
Heartbeat CPU 0 instructions: 500000000 cycles: 1192567986 heartbeat IPC: 0.354163 cumulative IPC: 0.355806 (Simulation time: 0 hr 22 min 10 sec) 
Heartbeat CPU 0 instructions: 510000000 cycles: 1228027355 heartbeat IPC: 0.282013 cumulative IPC: 0.35355 (Simulation time: 0 hr 22 min 43 sec) 
Heartbeat CPU 0 instructions: 520000000 cycles: 1256025584 heartbeat IPC: 0.357165 cumulative IPC: 0.353635 (Simulation time: 0 hr 23 min 12 sec) 
Heartbeat CPU 0 instructions: 530000001 cycles: 1285401866 heartbeat IPC: 0.340411 cumulative IPC: 0.353316 (Simulation time: 0 hr 23 min 42 sec) 
Heartbeat CPU 0 instructions: 540000000 cycles: 1313447327 heartbeat IPC: 0.356564 cumulative IPC: 0.353389 (Simulation time: 0 hr 24 min 11 sec) 
Heartbeat CPU 0 instructions: 550000001 cycles: 1342642695 heartbeat IPC: 0.34252 cumulative IPC: 0.35314 (Simulation time: 0 hr 24 min 43 sec) 
Heartbeat CPU 0 instructions: 560000000 cycles: 1368010295 heartbeat IPC: 0.394204 cumulative IPC: 0.353942 (Simulation time: 0 hr 25 min 12 sec) 
Heartbeat CPU 0 instructions: 570000000 cycles: 1397401881 heartbeat IPC: 0.340233 cumulative IPC: 0.353638 (Simulation time: 0 hr 25 min 42 sec) 
Heartbeat CPU 0 instructions: 580000000 cycles: 1425306636 heartbeat IPC: 0.358362 cumulative IPC: 0.353736 (Simulation time: 0 hr 26 min 12 sec) 
Heartbeat CPU 0 instructions: 590000001 cycles: 1450115224 heartbeat IPC: 0.403086 cumulative IPC: 0.354622 (Simulation time: 0 hr 26 min 40 sec) 
Heartbeat CPU 0 instructions: 600000000 cycles: 1476278376 heartbeat IPC: 0.382217 cumulative IPC: 0.355134 (Simulation time: 0 hr 27 min 8 sec) 
Finished CPU 0 instructions: 500000000 cycles: 1407917345 cumulative IPC: 0.355134 (Simulation time: 0 hr 27 min 8 sec) 

CPU 0 Branch Prediction Accuracy: 86.4311% MPKI: 26.2662
Number of Branches: 96788573 Number of Mispredictions: 13133102
Number of LOAD Instructions: 164682285
Number of LOAD Instructions (ROI): 164682285
Number of STORE Instructions: 78194750
Number of STORE Instructions (ROI): 78194750
Total Destination Memory Operands: 83268534
Total Destination Memory Operands (ROI): 83268534
Total Source Memory Operands: 164712438
Total Source Memory Operands (ROI): 164712438
Number of DEPENDED LOADS: 7062817
Number of DEPENDED LOADS (ROI): 7062817
Number of SQ_ADDED: 83268522
Number of SQ_ADDED (ROI): 83268522
Number of LQ_ADDED: 236568543
Number of LQ_ADDED (ROI): 236568543
Number of Instructions read from trace: 600000066

ChampSim completed all CPUs

Region of Interest Statistics

CPU 0 cumulative IPC: 0.355134 instructions: 500000000 cycles: 1407917345
ITLB TOTAL     ACCESS:  100507746  HIT:  100303300  MISS:     204446
ITLB LOAD      ACCESS:  100507746  HIT:  100303300  MISS:     204446
ITLB RFO       ACCESS:          0  HIT:          0  MISS:          0
ITLB PREFETCH  ACCESS:          0  HIT:          0  MISS:          0
ITLB WRITEBACK ACCESS:          0  HIT:          0  MISS:          0
ITLB PREFETCH  REQUESTED:          0  ISSUED:          0  USEFUL:          0  USELESS:          0
ITLB TOTAL MSHR MERGED:     172424
ITLB LOAD MSHR MERGED:     172424
ITLB RFO MSHR MERGED:          0
ITLB PREFETCH MSHR MERGED:          0
ITLB WRITEBACK MSHR MERGED:          0
ITLB TOTAL ACCESSES:  100680170 HITS:  100303300 MISSES:     376870
ITLB LOAD ACCESSES:  100680170 HITS:  100303300 MISSES:     376870
ITLB RFO ACCESSES:          0 HITS:          0 MISSES:          0
ITLB PREFETCH ACCESSES:          0 HITS:          0 MISSES:          0
ITLB WRITEBACK ACCESSES:          0 HITS:          0 MISSES:          0
ITLB RQ ACCESS:  500000057
ITLB RQ TO_CACHE:  100680170
ITLB RQ MERGED:  399319887
ITLB RQ FORWARD:          0
ITLB WQ ACCESS:          0
ITLB WQ TO_CACHE:          0
ITLB WQ MERGED:          0
ITLB WQ FORWARD:          0
DTLB TOTAL     ACCESS:  165332513  HIT:  164698165  MISS:     634348
DTLB LOAD      ACCESS:  106289656  HIT:  105719675  MISS:     569981
DTLB RFO       ACCESS:   59042857  HIT:   58978490  MISS:      64367
DTLB PREFETCH  ACCESS:          0  HIT:          0  MISS:          0
DTLB WRITEBACK ACCESS:          0  HIT:          0  MISS:          0
DTLB PREFETCH  REQUESTED:          0  ISSUED:          0  USEFUL:          0  USELESS:          0
DTLB TOTAL MSHR MERGED:      99927
DTLB LOAD MSHR MERGED:      59455
DTLB RFO MSHR MERGED:      40472
DTLB PREFETCH MSHR MERGED:          0
DTLB WRITEBACK MSHR MERGED:          0
DTLB TOTAL ACCESSES:  165432440 HITS:  164698165 MISSES:     734275
DTLB LOAD ACCESSES:  106349111 HITS:  105719675 MISSES:     629436
DTLB RFO ACCESSES:   59083329 HITS:   58978490 MISSES:     104839
DTLB PREFETCH ACCESSES:          0 HITS:          0 MISSES:          0
DTLB WRITEBACK ACCESSES:          0 HITS:          0 MISSES:          0
DTLB RQ ACCESS:  200308107
DTLB RQ TO_CACHE:  165432440
DTLB RQ MERGED:   34875667
DTLB RQ FORWARD:          0
DTLB WQ ACCESS:          0
DTLB WQ TO_CACHE:          0
DTLB WQ MERGED:          0
DTLB WQ FORWARD:          0
L1D TOTAL     ACCESS:  281818974  HIT:  273909638  MISS:    7909336
L1D LOAD      ACCESS:  110421267  HIT:  107145651  MISS:    3275616
L1D RFO       ACCESS:   67094490  HIT:   66202950  MISS:     891540
L1D PREFETCH  ACCESS:  104303217  HIT:  100561037  MISS:    3742180
L1D WRITEBACK ACCESS:          0  HIT:          0  MISS:          0
L1D PREFETCH  REQUESTED:  110812963  ISSUED:  109113677  USEFUL:    1662992  USELESS:    2079152
L1D TOTAL MSHR MERGED:    2876635
L1D LOAD MSHR MERGED:     486725
L1D RFO MSHR MERGED:    1892341
L1D PREFETCH MSHR MERGED:     497569
L1D WRITEBACK MSHR MERGED:          0
L1D TOTAL ACCESSES:  284723257 HITS:  273937286 MISSES:   10785971
L1D LOAD ACCESSES:  110814602 HITS:  107147290 MISSES:    3667312
L1D RFO ACCESSES:   68974094 HITS:   66202950 MISSES:    2771144
L1D PREFETCH ACCESSES:  104934561 HITS:  100587046 MISSES:    4347515
L1D WRITEBACK ACCESSES:          0 HITS:          0 MISSES:          0
L1D RQ ACCESS:  130755504
L1D RQ TO_CACHE:  110812966
L1D RQ MERGED:   19940899
L1D RQ FORWARD:          0
L1D WQ ACCESS:   69552603
L1D WQ TO_CACHE:   68974095
L1D WQ MERGED:     578508
L1D WQ FORWARD:      27648
L1I TOTAL     ACCESS:  126555687  HIT:  122317134  MISS:    4238553
L1I LOAD      ACCESS:  126555687  HIT:  122317134  MISS:    4238553
L1I RFO       ACCESS:          0  HIT:          0  MISS:          0
L1I PREFETCH  ACCESS:          0  HIT:          0  MISS:          0
L1I WRITEBACK ACCESS:          0  HIT:          0  MISS:          0
L1I PREFETCH  REQUESTED:          0  ISSUED:          0  USEFUL:          0  USELESS:          0
L1I TOTAL MSHR MERGED:    1834426
L1I LOAD MSHR MERGED:    1834426
L1I RFO MSHR MERGED:          0
L1I PREFETCH MSHR MERGED:          0
L1I WRITEBACK MSHR MERGED:          0
L1I TOTAL ACCESSES:  128390116 HITS:  122317134 MISSES:    6072982
L1I LOAD ACCESSES:  128390116 HITS:  122317134 MISSES:    6072982
L1I RFO ACCESSES:          0 HITS:          0 MISSES:          0
L1I PREFETCH ACCESSES:          0 HITS:          0 MISSES:          0
L1I WRITEBACK ACCESSES:          0 HITS:          0 MISSES:          0
L1I RQ ACCESS:  500000057
L1I RQ TO_CACHE:  128390116
L1I RQ MERGED:  371609941
L1I RQ FORWARD:          0
L1I WQ ACCESS:          0
L1I WQ TO_CACHE:          0
L1I WQ MERGED:          0
L1I WQ FORWARD:          0
L2C TOTAL     ACCESS:   14904631  HIT:   11158263  MISS:    3746368
L2C LOAD      ACCESS:    7418933  HIT:    5098751  MISS:    2320182
L2C RFO       ACCESS:     878703  HIT:     409926  MISS:     468777
L2C PREFETCH  ACCESS:    4567757  HIT:    3627601  MISS:     940156
L2C WRITEBACK ACCESS:    2039238  HIT:    2021985  MISS:      17253
L2C PREFETCH  REQUESTED:     842767  ISSUED:     842767  USEFUL:     203186  USELESS:     736676
L2C TOTAL MSHR MERGED:       7607
L2C LOAD MSHR MERGED:        958
L2C RFO MSHR MERGED:          0
L2C PREFETCH MSHR MERGED:       6649
L2C WRITEBACK MSHR MERGED:          0
L2C TOTAL ACCESSES:   14913178 HITS:   11158711 MISSES:    3754467
L2C LOAD ACCESSES:    7419140 HITS:    5098958 MISSES:    2320182
L2C RFO ACCESSES:     878803 HITS:     410026 MISSES:     468777
L2C PREFETCH ACCESSES:    4575997 HITS:    3627742 MISSES:     948255
L2C WRITEBACK ACCESSES:    2039238 HITS:    2021985 MISSES:      17253
L2C RQ ACCESS:    8297946
L2C RQ TO_CACHE:    8297639
L2C RQ MERGED:          0
L2C RQ FORWARD:          0
L2C WQ ACCESS:    2039238
L2C WQ TO_CACHE:    2039238
L2C WQ MERGED:          0
L2C WQ FORWARD:        448
LLC TOTAL     ACCESS:    4609676  HIT:    3987984  MISS:     621692
LLC LOAD      ACCESS:    2319211  HIT:    2095023  MISS:     224188
LLC RFO       ACCESS:     468766  HIT:     364979  MISS:     103787
LLC PREFETCH  ACCESS:     941470  HIT:     677766  MISS:     263704
LLC WRITEBACK ACCESS:     880229  HIT:     850216  MISS:      30013
LLC PREFETCH  REQUESTED:          0  ISSUED:          0  USEFUL:      25655  USELESS:     239244
LLC TOTAL MSHR MERGED:        116
LLC LOAD MSHR MERGED:         36
LLC RFO MSHR MERGED:          0
LLC PREFETCH MSHR MERGED:         80
LLC WRITEBACK MSHR MERGED:          0
LLC TOTAL ACCESSES:    4609827 HITS:    3988019 MISSES:     621808
LLC LOAD ACCESSES:    2319224 HITS:    2095036 MISSES:     224188
LLC RFO ACCESSES:     468777 HITS:     364990 MISSES:     103787
LLC PREFETCH ACCESSES:     941597 HITS:     677777 MISSES:     263820
LLC WRITEBACK ACCESSES:     880229 HITS:     850216 MISSES:      30013
LLC 0 RQ ACCESS:    2788001
LLC 0 RQ TO_CACHE:    2787977
LLC 0 RQ MERGED:          0
LLC 0 RQ FORWARD:          0
LLC WQ ACCESS:     880229
LLC WQ TO_CACHE:     880229
LLC WQ MERGED:          0
LLC WQ FORWARD:         35
Major fault: 0 Minor fault: 12862
CPU 0 L1D next line prefetcher final stats
CPU 0 L2C PC-based stride prefetcher final stats
All Misses: 725245
All Hits: 4701437
SD Algo Stats - Switches: 0 SRR-Repls: 260544 BRR-Repls: 0

DRAM Statistics
 CHANNEL 0
 RQ ROW_BUFFER_HIT:     120337  ROW_BUFFER_MISS:     469558
 DBUS_CONGESTED:     433081
 WQ ROW_BUFFER_HIT:      27714  ROW_BUFFER_MISS:     232826  FULL:          0

 AVG_CONGESTED_CYCLE: 13
LOADS RETIRED: 136549171
INSTR RETIRED: 500000000
