
*** ChampSim Multicore Out-of-Order Simulator ***

Warmup Instructions: 100000000
Simulation Instructions: 500000000
Number of CPUs: 1
LLC sets: 2048
LLC ways: 16
Clean RRIP Policies: 323030103230301 Dirty RRIP Policies: 2323130123231301 PSEL Width: 10 Track Set: 4294967295 PSEL Mask: 1 Demote Mask: 2330141323301413DS Algo: 0Window size: 0
Off-chip DRAM Size: 4096 MB Channels: 1 Width: 64-bit Data Rate: 1600 MT/s

CPU 0 runs /mnt/beegfs/iconst01/spec2017/Gcc.trace.gz
NOT SORTED
TRACE STRING: /mnt/beegfs/iconst01/spec2017/Gcc.trace.gz
SORTED
TRACE STRING: /mnt/beegfs/iconst01/spec2017/Gcc.trace.gz
INITIAL
TRACE STRING: /mnt/beegfs/iconst01/spec2017/Gcc.trace.gz

champsim_seed used: 269

CPU 0 L1D next line prefetcher
CPU 0 L2C IP-based stride prefetcher
Initialize DRRIP state
Assign rand_sets[0]: 454  LLC: 2048
rand_sets[0]: 454
Assign rand_sets[1]: 1662  LLC: 2048
rand_sets[1]: 1662
Assign rand_sets[2]: 1921  LLC: 2048
rand_sets[2]: 1921
Assign rand_sets[3]: 1131  LLC: 2048
rand_sets[3]: 1131
Assign rand_sets[4]: 331  LLC: 2048
rand_sets[4]: 331
Assign rand_sets[5]: 1531  LLC: 2048
rand_sets[5]: 1531
Assign rand_sets[6]: 482  LLC: 2048
rand_sets[6]: 482
Assign rand_sets[7]: 1275  LLC: 2048
rand_sets[7]: 1275
Assign rand_sets[8]: 1876  LLC: 2048
rand_sets[8]: 1876
Assign rand_sets[9]: 2038  LLC: 2048
rand_sets[9]: 2038
Assign rand_sets[10]: 701  LLC: 2048
rand_sets[10]: 701
Assign rand_sets[11]: 479  LLC: 2048
rand_sets[11]: 479
Assign rand_sets[12]: 892  LLC: 2048
rand_sets[12]: 892
Assign rand_sets[13]: 1820  LLC: 2048
rand_sets[13]: 1820
Assign rand_sets[14]: 1505  LLC: 2048
rand_sets[14]: 1505
Assign rand_sets[15]: 1159  LLC: 2048
rand_sets[15]: 1159
Assign rand_sets[16]: 513  LLC: 2048
rand_sets[16]: 513
Assign rand_sets[17]: 703  LLC: 2048
rand_sets[17]: 703
Assign rand_sets[18]: 561  LLC: 2048
rand_sets[18]: 561
Assign rand_sets[19]: 990  LLC: 2048
rand_sets[19]: 990
Assign rand_sets[20]: 342  LLC: 2048
rand_sets[20]: 342
Assign rand_sets[21]: 882  LLC: 2048
rand_sets[21]: 882
Assign rand_sets[22]: 15  LLC: 2048
rand_sets[22]: 15
Assign rand_sets[23]: 71  LLC: 2048
rand_sets[23]: 71
Assign rand_sets[24]: 1127  LLC: 2048
rand_sets[24]: 1127
Assign rand_sets[25]: 1382  LLC: 2048
rand_sets[25]: 1382
Assign rand_sets[26]: 647  LLC: 2048
rand_sets[26]: 647
Assign rand_sets[27]: 857  LLC: 2048
rand_sets[27]: 857
Assign rand_sets[28]: 1450  LLC: 2048
rand_sets[28]: 1450
Assign rand_sets[29]: 1160  LLC: 2048
rand_sets[29]: 1160
Assign rand_sets[30]: 1852  LLC: 2048
rand_sets[30]: 1852
Assign rand_sets[31]: 1881  LLC: 2048
rand_sets[31]: 1881
Assign rand_sets[32]: 1770  LLC: 2048
rand_sets[32]: 1770
Assign rand_sets[33]: 1622  LLC: 2048
rand_sets[33]: 1622
Assign rand_sets[34]: 275  LLC: 2048
rand_sets[34]: 275
Assign rand_sets[35]: 635  LLC: 2048
rand_sets[35]: 635
Assign rand_sets[36]: 466  LLC: 2048
rand_sets[36]: 466
Assign rand_sets[37]: 1413  LLC: 2048
rand_sets[37]: 1413
Assign rand_sets[38]: 417  LLC: 2048
rand_sets[38]: 417
Assign rand_sets[39]: 472  LLC: 2048
rand_sets[39]: 472
Assign rand_sets[40]: 1340  LLC: 2048
rand_sets[40]: 1340
Assign rand_sets[41]: 852  LLC: 2048
rand_sets[41]: 852
Assign rand_sets[42]: 1365  LLC: 2048
rand_sets[42]: 1365
Assign rand_sets[43]: 47  LLC: 2048
rand_sets[43]: 47
Assign rand_sets[44]: 823  LLC: 2048
rand_sets[44]: 823
Assign rand_sets[45]: 686  LLC: 2048
rand_sets[45]: 686
Assign rand_sets[46]: 1637  LLC: 2048
rand_sets[46]: 1637
Assign rand_sets[47]: 1115  LLC: 2048
rand_sets[47]: 1115
Assign rand_sets[48]: 986  LLC: 2048
rand_sets[48]: 986
Assign rand_sets[49]: 258  LLC: 2048
rand_sets[49]: 258
Assign rand_sets[50]: 633  LLC: 2048
rand_sets[50]: 633
Assign rand_sets[51]: 920  LLC: 2048
rand_sets[51]: 920
Assign rand_sets[52]: 204  LLC: 2048
rand_sets[52]: 204
Assign rand_sets[53]: 227  LLC: 2048
rand_sets[53]: 227
Assign rand_sets[54]: 1818  LLC: 2048
rand_sets[54]: 1818
Assign rand_sets[55]: 886  LLC: 2048
rand_sets[55]: 886
Assign rand_sets[56]: 1422  LLC: 2048
rand_sets[56]: 1422
Assign rand_sets[57]: 607  LLC: 2048
rand_sets[57]: 607
Assign rand_sets[58]: 217  LLC: 2048
rand_sets[58]: 217
Assign rand_sets[59]: 1945  LLC: 2048
rand_sets[59]: 1945
Assign rand_sets[60]: 143  LLC: 2048
rand_sets[60]: 143
Assign rand_sets[61]: 1311  LLC: 2048
rand_sets[61]: 1311
Assign rand_sets[62]: 319  LLC: 2048
rand_sets[62]: 319
Assign rand_sets[63]: 1846  LLC: 2048
rand_sets[63]: 1846
 CLEAN-RRIP-POLICY-1: 0-3-2-3-0-3-0-1- CLEAN-RRIP-POLICY-2: 0-3-2-3-0-3-0-1-
 DIRTY-RRIP-POLICY-1: 2-3-2-3-1-3-0-1- DIRTY-RRIP-POLICY-2: 2-3-2-3-1-3-0-1-
 PSEL width: 10
Heartbeat CPU 0 instructions: 10000001 cycles: 7316034 heartbeat IPC: 1.36686 cumulative IPC: 1.36686 (Simulation time: 0 hr 0 min 19 sec) 
Heartbeat CPU 0 instructions: 20000000 cycles: 14307506 heartbeat IPC: 1.43031 cumulative IPC: 1.39787 (Simulation time: 0 hr 0 min 37 sec) 
Heartbeat CPU 0 instructions: 30000001 cycles: 21020396 heartbeat IPC: 1.48967 cumulative IPC: 1.42719 (Simulation time: 0 hr 0 min 57 sec) 
Heartbeat CPU 0 instructions: 40000000 cycles: 27481444 heartbeat IPC: 1.54774 cumulative IPC: 1.45553 (Simulation time: 0 hr 1 min 18 sec) 
Heartbeat CPU 0 instructions: 50000001 cycles: 33583027 heartbeat IPC: 1.63892 cumulative IPC: 1.48885 (Simulation time: 0 hr 1 min 37 sec) 
Heartbeat CPU 0 instructions: 60000000 cycles: 40064067 heartbeat IPC: 1.54296 cumulative IPC: 1.4976 (Simulation time: 0 hr 1 min 57 sec) 
Heartbeat CPU 0 instructions: 70000000 cycles: 47100836 heartbeat IPC: 1.42111 cumulative IPC: 1.48617 (Simulation time: 0 hr 2 min 16 sec) 
Heartbeat CPU 0 instructions: 80000000 cycles: 54190221 heartbeat IPC: 1.41056 cumulative IPC: 1.47628 (Simulation time: 0 hr 2 min 34 sec) 
Heartbeat CPU 0 instructions: 90000003 cycles: 61194337 heartbeat IPC: 1.42773 cumulative IPC: 1.47072 (Simulation time: 0 hr 2 min 53 sec) 
Heartbeat CPU 0 instructions: 100000000 cycles: 68361338 heartbeat IPC: 1.39528 cumulative IPC: 1.46282 (Simulation time: 0 hr 3 min 11 sec) 

Warmup complete CPU 0 instructions: 100000004 cycles: 68361339 (Simulation time: 0 hr 3 min 11 sec) 

Heartbeat CPU 0 instructions: 110000003 cycles: 96010650 heartbeat IPC: 0.361673 cumulative IPC: 0.361673 (Simulation time: 0 hr 3 min 48 sec) 
Heartbeat CPU 0 instructions: 120000000 cycles: 123547941 heartbeat IPC: 0.363144 cumulative IPC: 0.362407 (Simulation time: 0 hr 4 min 25 sec) 
Heartbeat CPU 0 instructions: 130000000 cycles: 148562060 heartbeat IPC: 0.399774 cumulative IPC: 0.374061 (Simulation time: 0 hr 5 min 2 sec) 
Heartbeat CPU 0 instructions: 140000000 cycles: 177943047 heartbeat IPC: 0.340356 cumulative IPC: 0.365024 (Simulation time: 0 hr 5 min 38 sec) 
Heartbeat CPU 0 instructions: 150000000 cycles: 207799709 heartbeat IPC: 0.334934 cumulative IPC: 0.358581 (Simulation time: 0 hr 6 min 15 sec) 
Heartbeat CPU 0 instructions: 160000000 cycles: 235196433 heartbeat IPC: 0.365007 cumulative IPC: 0.359637 (Simulation time: 0 hr 6 min 51 sec) 
Heartbeat CPU 0 instructions: 170000001 cycles: 263216627 heartbeat IPC: 0.356885 cumulative IPC: 0.359241 (Simulation time: 0 hr 7 min 29 sec) 
Heartbeat CPU 0 instructions: 180000000 cycles: 291665940 heartbeat IPC: 0.351502 cumulative IPC: 0.358255 (Simulation time: 0 hr 8 min 7 sec) 
Heartbeat CPU 0 instructions: 190000002 cycles: 319638080 heartbeat IPC: 0.357499 cumulative IPC: 0.358171 (Simulation time: 0 hr 8 min 44 sec) 
Heartbeat CPU 0 instructions: 200000000 cycles: 347990494 heartbeat IPC: 0.352704 cumulative IPC: 0.357616 (Simulation time: 0 hr 9 min 22 sec) 
Heartbeat CPU 0 instructions: 210000002 cycles: 375800488 heartbeat IPC: 0.359583 cumulative IPC: 0.357794 (Simulation time: 0 hr 9 min 59 sec) 
Heartbeat CPU 0 instructions: 220000000 cycles: 404855186 heartbeat IPC: 0.344178 cumulative IPC: 0.356619 (Simulation time: 0 hr 10 min 34 sec) 
Heartbeat CPU 0 instructions: 230000000 cycles: 432414867 heartbeat IPC: 0.362849 cumulative IPC: 0.35709 (Simulation time: 0 hr 11 min 10 sec) 
Heartbeat CPU 0 instructions: 240000000 cycles: 458500611 heartbeat IPC: 0.383351 cumulative IPC: 0.358846 (Simulation time: 0 hr 11 min 45 sec) 
Heartbeat CPU 0 instructions: 250000000 cycles: 488702268 heartbeat IPC: 0.331108 cumulative IPC: 0.356853 (Simulation time: 0 hr 12 min 24 sec) 
Heartbeat CPU 0 instructions: 260000000 cycles: 515797484 heartbeat IPC: 0.369069 cumulative IPC: 0.357593 (Simulation time: 0 hr 13 min 1 sec) 
Heartbeat CPU 0 instructions: 270000003 cycles: 544153262 heartbeat IPC: 0.352662 cumulative IPC: 0.357299 (Simulation time: 0 hr 13 min 39 sec) 
Heartbeat CPU 0 instructions: 280000000 cycles: 572352855 heartbeat IPC: 0.354615 cumulative IPC: 0.357149 (Simulation time: 0 hr 14 min 17 sec) 
Heartbeat CPU 0 instructions: 290000000 cycles: 601169923 heartbeat IPC: 0.347017 cumulative IPC: 0.356601 (Simulation time: 0 hr 14 min 56 sec) 
Heartbeat CPU 0 instructions: 300000000 cycles: 630973250 heartbeat IPC: 0.335533 cumulative IPC: 0.355485 (Simulation time: 0 hr 15 min 32 sec) 
Heartbeat CPU 0 instructions: 310000001 cycles: 660355815 heartbeat IPC: 0.340338 cumulative IPC: 0.354733 (Simulation time: 0 hr 16 min 9 sec) 
Heartbeat CPU 0 instructions: 320000000 cycles: 688517523 heartbeat IPC: 0.355092 cumulative IPC: 0.354749 (Simulation time: 0 hr 16 min 45 sec) 
Heartbeat CPU 0 instructions: 330000000 cycles: 717093936 heartbeat IPC: 0.349939 cumulative IPC: 0.354537 (Simulation time: 0 hr 17 min 21 sec) 
Heartbeat CPU 0 instructions: 340000000 cycles: 746379346 heartbeat IPC: 0.341467 cumulative IPC: 0.353973 (Simulation time: 0 hr 17 min 59 sec) 
Heartbeat CPU 0 instructions: 350000003 cycles: 773353050 heartbeat IPC: 0.370732 cumulative IPC: 0.354614 (Simulation time: 0 hr 18 min 35 sec) 
Heartbeat CPU 0 instructions: 360000000 cycles: 801512168 heartbeat IPC: 0.355125 cumulative IPC: 0.354634 (Simulation time: 0 hr 19 min 10 sec) 
Heartbeat CPU 0 instructions: 370000000 cycles: 829779834 heartbeat IPC: 0.353761 cumulative IPC: 0.354601 (Simulation time: 0 hr 19 min 45 sec) 
Heartbeat CPU 0 instructions: 380000000 cycles: 858360764 heartbeat IPC: 0.349884 cumulative IPC: 0.354431 (Simulation time: 0 hr 20 min 21 sec) 
Heartbeat CPU 0 instructions: 390000001 cycles: 886030833 heartbeat IPC: 0.361401 cumulative IPC: 0.354667 (Simulation time: 0 hr 20 min 56 sec) 
Heartbeat CPU 0 instructions: 400000000 cycles: 914728393 heartbeat IPC: 0.348462 cumulative IPC: 0.354456 (Simulation time: 0 hr 21 min 31 sec) 
Heartbeat CPU 0 instructions: 410000001 cycles: 942110757 heartbeat IPC: 0.365199 cumulative IPC: 0.354793 (Simulation time: 0 hr 22 min 6 sec) 
Heartbeat CPU 0 instructions: 420000000 cycles: 969499790 heartbeat IPC: 0.36511 cumulative IPC: 0.355106 (Simulation time: 0 hr 22 min 41 sec) 
Heartbeat CPU 0 instructions: 430000002 cycles: 997244283 heartbeat IPC: 0.360432 cumulative IPC: 0.355265 (Simulation time: 0 hr 23 min 16 sec) 
Heartbeat CPU 0 instructions: 440000000 cycles: 1026767206 heartbeat IPC: 0.33872 cumulative IPC: 0.354756 (Simulation time: 0 hr 23 min 52 sec) 
Heartbeat CPU 0 instructions: 450000002 cycles: 1056035324 heartbeat IPC: 0.341669 cumulative IPC: 0.354368 (Simulation time: 0 hr 24 min 28 sec) 
Heartbeat CPU 0 instructions: 460000000 cycles: 1083791968 heartbeat IPC: 0.360274 cumulative IPC: 0.354529 (Simulation time: 0 hr 25 min 3 sec) 
Heartbeat CPU 0 instructions: 470000000 cycles: 1111494091 heartbeat IPC: 0.360983 cumulative IPC: 0.354701 (Simulation time: 0 hr 25 min 38 sec) 
Heartbeat CPU 0 instructions: 480000000 cycles: 1139432953 heartbeat IPC: 0.357924 cumulative IPC: 0.354785 (Simulation time: 0 hr 26 min 13 sec) 
Heartbeat CPU 0 instructions: 490000000 cycles: 1167086617 heartbeat IPC: 0.361616 cumulative IPC: 0.354957 (Simulation time: 0 hr 26 min 48 sec) 
Heartbeat CPU 0 instructions: 500000000 cycles: 1195399011 heartbeat IPC: 0.353202 cumulative IPC: 0.354913 (Simulation time: 0 hr 27 min 24 sec) 
Heartbeat CPU 0 instructions: 510000000 cycles: 1230695081 heartbeat IPC: 0.283318 cumulative IPC: 0.352739 (Simulation time: 0 hr 28 min 4 sec) 
Heartbeat CPU 0 instructions: 520000000 cycles: 1258494163 heartbeat IPC: 0.359724 cumulative IPC: 0.352902 (Simulation time: 0 hr 28 min 41 sec) 
Heartbeat CPU 0 instructions: 530000001 cycles: 1288003410 heartbeat IPC: 0.338877 cumulative IPC: 0.352562 (Simulation time: 0 hr 29 min 17 sec) 
Heartbeat CPU 0 instructions: 540000000 cycles: 1316226873 heartbeat IPC: 0.354315 cumulative IPC: 0.352602 (Simulation time: 0 hr 29 min 54 sec) 
Heartbeat CPU 0 instructions: 550000001 cycles: 1345613798 heartbeat IPC: 0.340287 cumulative IPC: 0.352319 (Simulation time: 0 hr 30 min 33 sec) 
Heartbeat CPU 0 instructions: 560000000 cycles: 1371128948 heartbeat IPC: 0.391924 cumulative IPC: 0.353094 (Simulation time: 0 hr 31 min 9 sec) 
Heartbeat CPU 0 instructions: 570000000 cycles: 1400686790 heartbeat IPC: 0.33832 cumulative IPC: 0.352767 (Simulation time: 0 hr 31 min 46 sec) 
Heartbeat CPU 0 instructions: 580000000 cycles: 1428811041 heartbeat IPC: 0.355565 cumulative IPC: 0.352825 (Simulation time: 0 hr 32 min 23 sec) 
Heartbeat CPU 0 instructions: 590000001 cycles: 1453893822 heartbeat IPC: 0.39868 cumulative IPC: 0.353655 (Simulation time: 0 hr 32 min 58 sec) 
Heartbeat CPU 0 instructions: 600000000 cycles: 1480489610 heartbeat IPC: 0.375999 cumulative IPC: 0.354075 (Simulation time: 0 hr 33 min 34 sec) 
Finished CPU 0 instructions: 500000000 cycles: 1412128293 cumulative IPC: 0.354075 (Simulation time: 0 hr 33 min 34 sec) 

CPU 0 Branch Prediction Accuracy: 86.4311% MPKI: 26.2662
Number of Branches: 96788573 Number of Mispredictions: 13133102
Number of LOAD Instructions: 164682285
Number of LOAD Instructions (ROI): 164682285
Number of STORE Instructions: 78194750
Number of STORE Instructions (ROI): 78194750
Total Destination Memory Operands: 83268534
Total Destination Memory Operands (ROI): 83268534
Total Source Memory Operands: 164712438
Total Source Memory Operands (ROI): 164712438
Number of DEPENDED LOADS: 7072127
Number of DEPENDED LOADS (ROI): 7072127
Number of SQ_ADDED: 83268522
Number of SQ_ADDED (ROI): 83268522
Number of LQ_ADDED: 236871120
Number of LQ_ADDED (ROI): 236871120
Number of Instructions read from trace: 600000066

ChampSim completed all CPUs

Region of Interest Statistics

CPU 0 cumulative IPC: 0.354075 instructions: 500000000 cycles: 1412128293
ITLB TOTAL     ACCESS:  100500368  HIT:  100295922  MISS:     204446
ITLB LOAD      ACCESS:  100500368  HIT:  100295922  MISS:     204446
ITLB RFO       ACCESS:          0  HIT:          0  MISS:          0
ITLB PREFETCH  ACCESS:          0  HIT:          0  MISS:          0
ITLB WRITEBACK ACCESS:          0  HIT:          0  MISS:          0
ITLB PREFETCH  REQUESTED:          0  ISSUED:          0  USEFUL:          0  USELESS:          0
ITLB TOTAL MSHR MERGED:     172422
ITLB LOAD MSHR MERGED:     172422
ITLB RFO MSHR MERGED:          0
ITLB PREFETCH MSHR MERGED:          0
ITLB WRITEBACK MSHR MERGED:          0
ITLB TOTAL ACCESSES:  100672790 HITS:  100295922 MISSES:     376868
ITLB LOAD ACCESSES:  100672790 HITS:  100295922 MISSES:     376868
ITLB RFO ACCESSES:          0 HITS:          0 MISSES:          0
ITLB PREFETCH ACCESSES:          0 HITS:          0 MISSES:          0
ITLB WRITEBACK ACCESSES:          0 HITS:          0 MISSES:          0
ITLB RQ ACCESS:  500000057
ITLB RQ TO_CACHE:  100672790
ITLB RQ MERGED:  399327267
ITLB RQ FORWARD:          0
ITLB WQ ACCESS:          0
ITLB WQ TO_CACHE:          0
ITLB WQ MERGED:          0
ITLB WQ FORWARD:          0
DTLB TOTAL     ACCESS:  165323692  HIT:  164689338  MISS:     634354
DTLB LOAD      ACCESS:  106281542  HIT:  105711512  MISS:     570030
DTLB RFO       ACCESS:   59042150  HIT:   58977826  MISS:      64324
DTLB PREFETCH  ACCESS:          0  HIT:          0  MISS:          0
DTLB WRITEBACK ACCESS:          0  HIT:          0  MISS:          0
DTLB PREFETCH  REQUESTED:          0  ISSUED:          0  USEFUL:          0  USELESS:          0
DTLB TOTAL MSHR MERGED:      99846
DTLB LOAD MSHR MERGED:      59478
DTLB RFO MSHR MERGED:      40368
DTLB PREFETCH MSHR MERGED:          0
DTLB WRITEBACK MSHR MERGED:          0
DTLB TOTAL ACCESSES:  165423538 HITS:  164689338 MISSES:     734200
DTLB LOAD ACCESSES:  106341020 HITS:  105711512 MISSES:     629508
DTLB RFO ACCESSES:   59082518 HITS:   58977826 MISSES:     104692
DTLB PREFETCH ACCESSES:          0 HITS:          0 MISSES:          0
DTLB WRITEBACK ACCESSES:          0 HITS:          0 MISSES:          0
DTLB RQ ACCESS:  200298841
DTLB RQ TO_CACHE:  165423538
DTLB RQ MERGED:   34875303
DTLB RQ FORWARD:          0
DTLB WQ ACCESS:          0
DTLB WQ TO_CACHE:          0
DTLB WQ MERGED:          0
DTLB WQ FORWARD:          0
L1D TOTAL     ACCESS:  281694240  HIT:  273785115  MISS:    7909125
L1D LOAD      ACCESS:  110393578  HIT:  107107536  MISS:    3286042
L1D RFO       ACCESS:   67073942  HIT:   66181155  MISS:     892787
L1D PREFETCH  ACCESS:  104226720  HIT:  100496424  MISS:    3730296
L1D WRITEBACK ACCESS:          0  HIT:          0  MISS:          0
L1D PREFETCH  REQUESTED:  110807170  ISSUED:  109107948  USEFUL:    1651337  USELESS:    2078923
L1D TOTAL MSHR MERGED:    2991424
L1D LOAD MSHR MERGED:     519272
L1D RFO MSHR MERGED:    1913830
L1D PREFETCH MSHR MERGED:     558322
L1D WRITEBACK MSHR MERGED:          0
L1D TOTAL ACCESSES:  284713400 HITS:  273812851 MISSES:   10900549
L1D LOAD ACCESSES:  110808913 HITS:  107109279 MISSES:    3699634
L1D RFO ACCESSES:   68973758 HITS:   66181155 MISSES:    2792603
L1D PREFETCH ACCESSES:  104930729 HITS:  100522417 MISSES:    4408312
L1D WRITEBACK ACCESSES:          0 HITS:          0 MISSES:          0
L1D RQ ACCESS:  130746238
L1D RQ TO_CACHE:  110807173
L1D RQ MERGED:   19937322
L1D RQ FORWARD:          0
L1D WQ ACCESS:   69552603
L1D WQ TO_CACHE:   68973759
L1D WQ MERGED:     578844
L1D WQ FORWARD:      27736
L1I TOTAL     ACCESS:  126547108  HIT:  122308553  MISS:    4238555
L1I LOAD      ACCESS:  126547108  HIT:  122308553  MISS:    4238555
L1I RFO       ACCESS:          0  HIT:          0  MISS:          0
L1I PREFETCH  ACCESS:          0  HIT:          0  MISS:          0
L1I WRITEBACK ACCESS:          0  HIT:          0  MISS:          0
L1I PREFETCH  REQUESTED:          0  ISSUED:          0  USEFUL:          0  USELESS:          0
L1I TOTAL MSHR MERGED:    1834327
L1I LOAD MSHR MERGED:    1834327
L1I RFO MSHR MERGED:          0
L1I PREFETCH MSHR MERGED:          0
L1I WRITEBACK MSHR MERGED:          0
L1I TOTAL ACCESSES:  128381438 HITS:  122308553 MISSES:    6072885
L1I LOAD ACCESSES:  128381438 HITS:  122308553 MISSES:    6072885
L1I RFO ACCESSES:          0 HITS:          0 MISSES:          0
L1I PREFETCH ACCESSES:          0 HITS:          0 MISSES:          0
L1I WRITEBACK ACCESSES:          0 HITS:          0 MISSES:          0
L1I RQ ACCESS:  500000057
L1I RQ TO_CACHE:  128381438
L1I RQ MERGED:  371618619
L1I RQ FORWARD:          0
L1I WQ ACCESS:          0
L1I WQ TO_CACHE:          0
L1I WQ MERGED:          0
L1I WQ FORWARD:          0
L2C TOTAL     ACCESS:   14901324  HIT:   11154887  MISS:    3746437
L2C LOAD      ACCESS:    7418711  HIT:    5097743  MISS:    2320968
L2C RFO       ACCESS:     878675  HIT:     409889  MISS:     468786
L2C PREFETCH  ACCESS:    4564731  HIT:    3625306  MISS:     939425
L2C WRITEBACK ACCESS:    2039207  HIT:    2021949  MISS:      17258
L2C PREFETCH  REQUESTED:     842236  ISSUED:     842236  USEFUL:     202347  USELESS:     736785
L2C TOTAL MSHR MERGED:      10361
L2C LOAD MSHR MERGED:       1745
L2C RFO MSHR MERGED:          0
L2C PREFETCH MSHR MERGED:       8616
L2C WRITEBACK MSHR MERGED:          0
L2C TOTAL ACCESSES:   14912690 HITS:   11155333 MISSES:    3757357
L2C LOAD ACCESSES:    7418917 HITS:    5097949 MISSES:    2320968
L2C RFO ACCESSES:     878773 HITS:     409987 MISSES:     468786
L2C PREFETCH ACCESSES:    4575793 HITS:    3625448 MISSES:     950345
L2C WRITEBACK ACCESSES:    2039207 HITS:    2021949 MISSES:      17258
L2C RQ ACCESS:    8297693
L2C RQ TO_CACHE:    8297389
L2C RQ MERGED:          0
L2C RQ FORWARD:          0
L2C WQ ACCESS:    2039207
L2C WQ TO_CACHE:    2039207
L2C WQ MERGED:          0
L2C WQ FORWARD:        446
LLC TOTAL     ACCESS:    4609841  HIT:    3628637  MISS:     981204
LLC LOAD      ACCESS:    2319210  HIT:    2085435  MISS:     233775
LLC RFO       ACCESS:     468777  HIT:     320030  MISS:     148747
LLC PREFETCH  ACCESS:     941575  HIT:     502982  MISS:     438593
LLC WRITEBACK ACCESS:     880279  HIT:     720190  MISS:     160089
LLC PREFETCH  REQUESTED:          0  ISSUED:          0  USEFUL:      17313  USELESS:     421726
LLC TOTAL MSHR MERGED:        133
LLC LOAD MSHR MERGED:         42
LLC RFO MSHR MERGED:          0
LLC PREFETCH MSHR MERGED:         91
LLC WRITEBACK MSHR MERGED:          0
LLC TOTAL ACCESSES:    4610007 HITS:    3628670 MISSES:     981337
LLC LOAD ACCESSES:    2319223 HITS:    2085448 MISSES:     233775
LLC RFO ACCESSES:     468786 HITS:     320039 MISSES:     148747
LLC PREFETCH ACCESSES:     941719 HITS:     502993 MISSES:     438726
LLC WRITEBACK ACCESSES:     880279 HITS:     720190 MISSES:     160089
LLC 0 RQ ACCESS:    2788009
LLC 0 RQ TO_CACHE:    2787987
LLC 0 RQ MERGED:          0
LLC 0 RQ FORWARD:          0
LLC WQ ACCESS:     880279
LLC WQ TO_CACHE:     880279
LLC WQ MERGED:          0
LLC WQ FORWARD:         33
Major fault: 0 Minor fault: 12862
CPU 0 L1D next line prefetcher final stats
CPU 0 L2C PC-based stride prefetcher final stats
All Misses: 1167769
All Hits: 4259078
SD Algo Stats - Switches: 0 SRR-Repls: 269736 BRR-Repls: 0

DRAM Statistics
 CHANNEL 0
 RQ ROW_BUFFER_HIT:     170437  ROW_BUFFER_MISS:     645645
 DBUS_CONGESTED:     544155
 WQ ROW_BUFFER_HIT:      40656  ROW_BUFFER_MISS:     309077  FULL:          0

 AVG_CONGESTED_CYCLE: 13
LOADS RETIRED: 136549171
INSTR RETIRED: 500000000
