
*** ChampSim Multicore Out-of-Order Simulator ***

Warmup Instructions: 100000000
Simulation Instructions: 500000000
Number of CPUs: 1
LLC sets: 2048
LLC ways: 16
Clean RRIP Policies: 2212230222122302 Dirty RRIP Policies: 1202130212021302 PSEL Width: 10 Track Set: 4294967295 PSEL Mask: 1 Demote Mask: 1040100010401000DS Algo: 0Window size: 0
Off-chip DRAM Size: 4096 MB Channels: 1 Width: 64-bit Data Rate: 1600 MT/s

CPU 0 runs /mnt/beegfs/iconst01/spec2017/Mcf.trace.gz
NOT SORTED
TRACE STRING: /mnt/beegfs/iconst01/spec2017/Mcf.trace.gz
SORTED
TRACE STRING: /mnt/beegfs/iconst01/spec2017/Mcf.trace.gz
INITIAL
TRACE STRING: /mnt/beegfs/iconst01/spec2017/Mcf.trace.gz

champsim_seed used: 278

CPU 0 L1D next line prefetcher
CPU 0 L2C IP-based stride prefetcher
Initialize DRRIP state
Assign rand_sets[0]: 454  LLC: 2048
rand_sets[0]: 454
Assign rand_sets[1]: 1662  LLC: 2048
rand_sets[1]: 1662
Assign rand_sets[2]: 1921  LLC: 2048
rand_sets[2]: 1921
Assign rand_sets[3]: 1131  LLC: 2048
rand_sets[3]: 1131
Assign rand_sets[4]: 331  LLC: 2048
rand_sets[4]: 331
Assign rand_sets[5]: 1531  LLC: 2048
rand_sets[5]: 1531
Assign rand_sets[6]: 482  LLC: 2048
rand_sets[6]: 482
Assign rand_sets[7]: 1275  LLC: 2048
rand_sets[7]: 1275
Assign rand_sets[8]: 1876  LLC: 2048
rand_sets[8]: 1876
Assign rand_sets[9]: 2038  LLC: 2048
rand_sets[9]: 2038
Assign rand_sets[10]: 701  LLC: 2048
rand_sets[10]: 701
Assign rand_sets[11]: 479  LLC: 2048
rand_sets[11]: 479
Assign rand_sets[12]: 892  LLC: 2048
rand_sets[12]: 892
Assign rand_sets[13]: 1820  LLC: 2048
rand_sets[13]: 1820
Assign rand_sets[14]: 1505  LLC: 2048
rand_sets[14]: 1505
Assign rand_sets[15]: 1159  LLC: 2048
rand_sets[15]: 1159
Assign rand_sets[16]: 513  LLC: 2048
rand_sets[16]: 513
Assign rand_sets[17]: 703  LLC: 2048
rand_sets[17]: 703
Assign rand_sets[18]: 561  LLC: 2048
rand_sets[18]: 561
Assign rand_sets[19]: 990  LLC: 2048
rand_sets[19]: 990
Assign rand_sets[20]: 342  LLC: 2048
rand_sets[20]: 342
Assign rand_sets[21]: 882  LLC: 2048
rand_sets[21]: 882
Assign rand_sets[22]: 15  LLC: 2048
rand_sets[22]: 15
Assign rand_sets[23]: 71  LLC: 2048
rand_sets[23]: 71
Assign rand_sets[24]: 1127  LLC: 2048
rand_sets[24]: 1127
Assign rand_sets[25]: 1382  LLC: 2048
rand_sets[25]: 1382
Assign rand_sets[26]: 647  LLC: 2048
rand_sets[26]: 647
Assign rand_sets[27]: 857  LLC: 2048
rand_sets[27]: 857
Assign rand_sets[28]: 1450  LLC: 2048
rand_sets[28]: 1450
Assign rand_sets[29]: 1160  LLC: 2048
rand_sets[29]: 1160
Assign rand_sets[30]: 1852  LLC: 2048
rand_sets[30]: 1852
Assign rand_sets[31]: 1881  LLC: 2048
rand_sets[31]: 1881
Assign rand_sets[32]: 1770  LLC: 2048
rand_sets[32]: 1770
Assign rand_sets[33]: 1622  LLC: 2048
rand_sets[33]: 1622
Assign rand_sets[34]: 275  LLC: 2048
rand_sets[34]: 275
Assign rand_sets[35]: 635  LLC: 2048
rand_sets[35]: 635
Assign rand_sets[36]: 466  LLC: 2048
rand_sets[36]: 466
Assign rand_sets[37]: 1413  LLC: 2048
rand_sets[37]: 1413
Assign rand_sets[38]: 417  LLC: 2048
rand_sets[38]: 417
Assign rand_sets[39]: 472  LLC: 2048
rand_sets[39]: 472
Assign rand_sets[40]: 1340  LLC: 2048
rand_sets[40]: 1340
Assign rand_sets[41]: 852  LLC: 2048
rand_sets[41]: 852
Assign rand_sets[42]: 1365  LLC: 2048
rand_sets[42]: 1365
Assign rand_sets[43]: 47  LLC: 2048
rand_sets[43]: 47
Assign rand_sets[44]: 823  LLC: 2048
rand_sets[44]: 823
Assign rand_sets[45]: 686  LLC: 2048
rand_sets[45]: 686
Assign rand_sets[46]: 1637  LLC: 2048
rand_sets[46]: 1637
Assign rand_sets[47]: 1115  LLC: 2048
rand_sets[47]: 1115
Assign rand_sets[48]: 986  LLC: 2048
rand_sets[48]: 986
Assign rand_sets[49]: 258  LLC: 2048
rand_sets[49]: 258
Assign rand_sets[50]: 633  LLC: 2048
rand_sets[50]: 633
Assign rand_sets[51]: 920  LLC: 2048
rand_sets[51]: 920
Assign rand_sets[52]: 204  LLC: 2048
rand_sets[52]: 204
Assign rand_sets[53]: 227  LLC: 2048
rand_sets[53]: 227
Assign rand_sets[54]: 1818  LLC: 2048
rand_sets[54]: 1818
Assign rand_sets[55]: 886  LLC: 2048
rand_sets[55]: 886
Assign rand_sets[56]: 1422  LLC: 2048
rand_sets[56]: 1422
Assign rand_sets[57]: 607  LLC: 2048
rand_sets[57]: 607
Assign rand_sets[58]: 217  LLC: 2048
rand_sets[58]: 217
Assign rand_sets[59]: 1945  LLC: 2048
rand_sets[59]: 1945
Assign rand_sets[60]: 143  LLC: 2048
rand_sets[60]: 143
Assign rand_sets[61]: 1311  LLC: 2048
rand_sets[61]: 1311
Assign rand_sets[62]: 319  LLC: 2048
rand_sets[62]: 319
Assign rand_sets[63]: 1846  LLC: 2048
rand_sets[63]: 1846
 CLEAN-RRIP-POLICY-1: 2-2-1-2-2-3-0-2- CLEAN-RRIP-POLICY-2: 2-2-1-2-2-3-0-2-
 DIRTY-RRIP-POLICY-1: 1-2-0-2-1-3-0-2- DIRTY-RRIP-POLICY-2: 1-2-0-2-1-3-0-2-
 PSEL width: 10
Heartbeat CPU 0 instructions: 10000002 cycles: 6247902 heartbeat IPC: 1.60054 cumulative IPC: 1.60054 (Simulation time: 0 hr 0 min 13 sec) 
Heartbeat CPU 0 instructions: 20000000 cycles: 12468366 heartbeat IPC: 1.6076 cumulative IPC: 1.60406 (Simulation time: 0 hr 0 min 26 sec) 
Heartbeat CPU 0 instructions: 30000000 cycles: 18679215 heartbeat IPC: 1.61009 cumulative IPC: 1.60606 (Simulation time: 0 hr 0 min 38 sec) 
Heartbeat CPU 0 instructions: 40000000 cycles: 24889873 heartbeat IPC: 1.61014 cumulative IPC: 1.60708 (Simulation time: 0 hr 0 min 51 sec) 
Heartbeat CPU 0 instructions: 50000003 cycles: 31102445 heartbeat IPC: 1.60964 cumulative IPC: 1.60759 (Simulation time: 0 hr 1 min 4 sec) 
Heartbeat CPU 0 instructions: 60000000 cycles: 37298583 heartbeat IPC: 1.61391 cumulative IPC: 1.60864 (Simulation time: 0 hr 1 min 16 sec) 
Heartbeat CPU 0 instructions: 70000003 cycles: 43517193 heartbeat IPC: 1.60808 cumulative IPC: 1.60856 (Simulation time: 0 hr 1 min 29 sec) 
Heartbeat CPU 0 instructions: 80000000 cycles: 49747687 heartbeat IPC: 1.60501 cumulative IPC: 1.60811 (Simulation time: 0 hr 1 min 42 sec) 
Heartbeat CPU 0 instructions: 90000000 cycles: 55976897 heartbeat IPC: 1.60534 cumulative IPC: 1.60781 (Simulation time: 0 hr 1 min 54 sec) 
Heartbeat CPU 0 instructions: 100000000 cycles: 62195805 heartbeat IPC: 1.608 cumulative IPC: 1.60783 (Simulation time: 0 hr 2 min 7 sec) 

Warmup complete CPU 0 instructions: 100000001 cycles: 62195806 (Simulation time: 0 hr 2 min 7 sec) 

Heartbeat CPU 0 instructions: 110000000 cycles: 86403737 heartbeat IPC: 0.413088 cumulative IPC: 0.413088 (Simulation time: 0 hr 2 min 31 sec) 
Heartbeat CPU 0 instructions: 120000000 cycles: 110677634 heartbeat IPC: 0.411965 cumulative IPC: 0.412526 (Simulation time: 0 hr 2 min 55 sec) 
Heartbeat CPU 0 instructions: 130000000 cycles: 135053850 heartbeat IPC: 0.410236 cumulative IPC: 0.41176 (Simulation time: 0 hr 3 min 19 sec) 
Heartbeat CPU 0 instructions: 140000000 cycles: 159389277 heartbeat IPC: 0.410924 cumulative IPC: 0.41155 (Simulation time: 0 hr 3 min 43 sec) 
Heartbeat CPU 0 instructions: 150000003 cycles: 183615681 heartbeat IPC: 0.412773 cumulative IPC: 0.411794 (Simulation time: 0 hr 4 min 7 sec) 
Heartbeat CPU 0 instructions: 160000000 cycles: 208136478 heartbeat IPC: 0.407817 cumulative IPC: 0.411126 (Simulation time: 0 hr 4 min 31 sec) 
Heartbeat CPU 0 instructions: 170000001 cycles: 232532438 heartbeat IPC: 0.409904 cumulative IPC: 0.410951 (Simulation time: 0 hr 4 min 55 sec) 
Heartbeat CPU 0 instructions: 180000000 cycles: 256931209 heartbeat IPC: 0.409857 cumulative IPC: 0.410814 (Simulation time: 0 hr 5 min 18 sec) 
Heartbeat CPU 0 instructions: 190000003 cycles: 281275560 heartbeat IPC: 0.410773 cumulative IPC: 0.410809 (Simulation time: 0 hr 5 min 42 sec) 
Heartbeat CPU 0 instructions: 200000000 cycles: 305691743 heartbeat IPC: 0.409564 cumulative IPC: 0.410684 (Simulation time: 0 hr 6 min 6 sec) 
Heartbeat CPU 0 instructions: 210000003 cycles: 330125851 heartbeat IPC: 0.409264 cumulative IPC: 0.410555 (Simulation time: 0 hr 6 min 31 sec) 
Heartbeat CPU 0 instructions: 220000000 cycles: 354798988 heartbeat IPC: 0.405299 cumulative IPC: 0.410112 (Simulation time: 0 hr 6 min 55 sec) 
Heartbeat CPU 0 instructions: 230000002 cycles: 379071480 heartbeat IPC: 0.411989 cumulative IPC: 0.410256 (Simulation time: 0 hr 7 min 19 sec) 
Heartbeat CPU 0 instructions: 240000000 cycles: 403688503 heartbeat IPC: 0.406223 cumulative IPC: 0.409965 (Simulation time: 0 hr 7 min 43 sec) 
Heartbeat CPU 0 instructions: 250000000 cycles: 428121334 heartbeat IPC: 0.409285 cumulative IPC: 0.409919 (Simulation time: 0 hr 8 min 7 sec) 
Heartbeat CPU 0 instructions: 260000000 cycles: 452558939 heartbeat IPC: 0.409205 cumulative IPC: 0.409875 (Simulation time: 0 hr 8 min 31 sec) 
Heartbeat CPU 0 instructions: 270000001 cycles: 477035473 heartbeat IPC: 0.408555 cumulative IPC: 0.409797 (Simulation time: 0 hr 8 min 55 sec) 
Heartbeat CPU 0 instructions: 280000000 cycles: 501470772 heartbeat IPC: 0.409244 cumulative IPC: 0.409766 (Simulation time: 0 hr 9 min 19 sec) 
Heartbeat CPU 0 instructions: 290000001 cycles: 525967502 heartbeat IPC: 0.408218 cumulative IPC: 0.409684 (Simulation time: 0 hr 9 min 44 sec) 
Heartbeat CPU 0 instructions: 300000000 cycles: 550654040 heartbeat IPC: 0.405079 cumulative IPC: 0.409452 (Simulation time: 0 hr 10 min 8 sec) 
Heartbeat CPU 0 instructions: 310000003 cycles: 574962949 heartbeat IPC: 0.411372 cumulative IPC: 0.409543 (Simulation time: 0 hr 10 min 32 sec) 
Heartbeat CPU 0 instructions: 320000000 cycles: 599656696 heartbeat IPC: 0.404961 cumulative IPC: 0.409332 (Simulation time: 0 hr 10 min 56 sec) 
Heartbeat CPU 0 instructions: 330000003 cycles: 624067363 heartbeat IPC: 0.409657 cumulative IPC: 0.409346 (Simulation time: 0 hr 11 min 20 sec) 
Heartbeat CPU 0 instructions: 340000000 cycles: 648766308 heartbeat IPC: 0.404875 cumulative IPC: 0.409158 (Simulation time: 0 hr 11 min 44 sec) 
Heartbeat CPU 0 instructions: 350000002 cycles: 673458227 heartbeat IPC: 0.404991 cumulative IPC: 0.40899 (Simulation time: 0 hr 12 min 9 sec) 
Heartbeat CPU 0 instructions: 360000000 cycles: 698324757 heartbeat IPC: 0.402147 cumulative IPC: 0.408722 (Simulation time: 0 hr 12 min 33 sec) 
Heartbeat CPU 0 instructions: 370000000 cycles: 722943141 heartbeat IPC: 0.4062 cumulative IPC: 0.408628 (Simulation time: 0 hr 12 min 57 sec) 
Heartbeat CPU 0 instructions: 380000000 cycles: 747375123 heartbeat IPC: 0.4093 cumulative IPC: 0.408652 (Simulation time: 0 hr 13 min 21 sec) 
Heartbeat CPU 0 instructions: 390000002 cycles: 771866573 heartbeat IPC: 0.408306 cumulative IPC: 0.40864 (Simulation time: 0 hr 13 min 45 sec) 
Heartbeat CPU 0 instructions: 400000000 cycles: 796511478 heartbeat IPC: 0.405763 cumulative IPC: 0.408544 (Simulation time: 0 hr 14 min 10 sec) 
Heartbeat CPU 0 instructions: 410000002 cycles: 821042995 heartbeat IPC: 0.407639 cumulative IPC: 0.408514 (Simulation time: 0 hr 14 min 34 sec) 
Heartbeat CPU 0 instructions: 420000000 cycles: 845392008 heartbeat IPC: 0.410694 cumulative IPC: 0.408582 (Simulation time: 0 hr 14 min 58 sec) 
Heartbeat CPU 0 instructions: 430000000 cycles: 869971780 heartbeat IPC: 0.406839 cumulative IPC: 0.408529 (Simulation time: 0 hr 15 min 22 sec) 
Heartbeat CPU 0 instructions: 440000000 cycles: 894255269 heartbeat IPC: 0.411802 cumulative IPC: 0.408625 (Simulation time: 0 hr 15 min 46 sec) 
Heartbeat CPU 0 instructions: 450000000 cycles: 918974939 heartbeat IPC: 0.404536 cumulative IPC: 0.408507 (Simulation time: 0 hr 16 min 12 sec) 
Heartbeat CPU 0 instructions: 460000000 cycles: 943562580 heartbeat IPC: 0.406708 cumulative IPC: 0.408457 (Simulation time: 0 hr 16 min 37 sec) 
Heartbeat CPU 0 instructions: 470000001 cycles: 967965164 heartbeat IPC: 0.409793 cumulative IPC: 0.408493 (Simulation time: 0 hr 17 min 2 sec) 
Heartbeat CPU 0 instructions: 480000000 cycles: 992527687 heartbeat IPC: 0.407124 cumulative IPC: 0.408456 (Simulation time: 0 hr 17 min 28 sec) 
Heartbeat CPU 0 instructions: 490000000 cycles: 1017192036 heartbeat IPC: 0.405443 cumulative IPC: 0.408379 (Simulation time: 0 hr 17 min 53 sec) 
Heartbeat CPU 0 instructions: 500000000 cycles: 1042158411 heartbeat IPC: 0.400539 cumulative IPC: 0.408179 (Simulation time: 0 hr 18 min 18 sec) 
Heartbeat CPU 0 instructions: 510000003 cycles: 1067020885 heartbeat IPC: 0.402213 cumulative IPC: 0.408031 (Simulation time: 0 hr 18 min 44 sec) 
Heartbeat CPU 0 instructions: 520000000 cycles: 1092034160 heartbeat IPC: 0.399788 cumulative IPC: 0.407831 (Simulation time: 0 hr 19 min 9 sec) 
Heartbeat CPU 0 instructions: 530000003 cycles: 1117056100 heartbeat IPC: 0.399649 cumulative IPC: 0.407637 (Simulation time: 0 hr 19 min 34 sec) 
Heartbeat CPU 0 instructions: 540000000 cycles: 1142004091 heartbeat IPC: 0.400834 cumulative IPC: 0.40748 (Simulation time: 0 hr 20 min 0 sec) 
Heartbeat CPU 0 instructions: 550000000 cycles: 1166940269 heartbeat IPC: 0.401024 cumulative IPC: 0.407334 (Simulation time: 0 hr 20 min 25 sec) 
Heartbeat CPU 0 instructions: 560000000 cycles: 1192214361 heartbeat IPC: 0.395662 cumulative IPC: 0.407073 (Simulation time: 0 hr 20 min 50 sec) 
Heartbeat CPU 0 instructions: 570000001 cycles: 1217433063 heartbeat IPC: 0.396531 cumulative IPC: 0.406843 (Simulation time: 0 hr 21 min 16 sec) 
Heartbeat CPU 0 instructions: 580000000 cycles: 1242636477 heartbeat IPC: 0.396772 cumulative IPC: 0.406628 (Simulation time: 0 hr 21 min 41 sec) 
Heartbeat CPU 0 instructions: 590000000 cycles: 1267957927 heartbeat IPC: 0.394922 cumulative IPC: 0.406382 (Simulation time: 0 hr 22 min 6 sec) 
Heartbeat CPU 0 instructions: 600000000 cycles: 1293378210 heartbeat IPC: 0.393387 cumulative IPC: 0.406114 (Simulation time: 0 hr 22 min 32 sec) 
Finished CPU 0 instructions: 500000003 cycles: 1231182417 cumulative IPC: 0.406114 (Simulation time: 0 hr 22 min 32 sec) 

CPU 0 Branch Prediction Accuracy: 91.1342% MPKI: 18.7968
Number of Branches: 106006945 Number of Mispredictions: 9398408
Number of LOAD Instructions: 207894007
Number of LOAD Instructions (ROI): 207894007
Number of STORE Instructions: 54285997
Number of STORE Instructions (ROI): 54285997
Total Destination Memory Operands: 57463404
Total Destination Memory Operands (ROI): 57463404
Total Source Memory Operands: 207894007
Total Source Memory Operands (ROI): 207894007
Number of DEPENDED LOADS: 17988889
Number of DEPENDED LOADS (ROI): 17988889
Number of SQ_ADDED: 57463404
Number of SQ_ADDED (ROI): 57463404
Number of LQ_ADDED: 209205725
Number of LQ_ADDED (ROI): 209205725
Number of Instructions read from trace: 600000039

ChampSim completed all CPUs

Region of Interest Statistics

CPU 0 cumulative IPC: 0.406114 instructions: 500000003 cycles: 1231182417
ITLB TOTAL     ACCESS:   96419898  HIT:   96419898  MISS:          0
ITLB LOAD      ACCESS:   96419898  HIT:   96419898  MISS:          0
ITLB RFO       ACCESS:          0  HIT:          0  MISS:          0
ITLB PREFETCH  ACCESS:          0  HIT:          0  MISS:          0
ITLB WRITEBACK ACCESS:          0  HIT:          0  MISS:          0
ITLB PREFETCH  REQUESTED:          0  ISSUED:          0  USEFUL:          0  USELESS:          0
ITLB TOTAL MSHR MERGED:          0
ITLB LOAD MSHR MERGED:          0
ITLB RFO MSHR MERGED:          0
ITLB PREFETCH MSHR MERGED:          0
ITLB WRITEBACK MSHR MERGED:          0
ITLB TOTAL ACCESSES:   96419898 HITS:   96419898 MISSES:          0
ITLB LOAD ACCESSES:   96419898 HITS:   96419898 MISSES:          0
ITLB RFO ACCESSES:          0 HITS:          0 MISSES:          0
ITLB PREFETCH ACCESSES:          0 HITS:          0 MISSES:          0
ITLB WRITEBACK ACCESSES:          0 HITS:          0 MISSES:          0
ITLB RQ ACCESS:  499999980
ITLB RQ TO_CACHE:   96419898
ITLB RQ MERGED:  403580082
ITLB RQ FORWARD:          0
ITLB WQ ACCESS:          0
ITLB WQ TO_CACHE:          0
ITLB WQ MERGED:          0
ITLB WQ FORWARD:          0
DTLB TOTAL     ACCESS:  155250592  HIT:  150338387  MISS:    4912205
DTLB LOAD      ACCESS:  117805335  HIT:  113414808  MISS:    4390527
DTLB RFO       ACCESS:   37445257  HIT:   36923579  MISS:     521678
DTLB PREFETCH  ACCESS:          0  HIT:          0  MISS:          0
DTLB WRITEBACK ACCESS:          0  HIT:          0  MISS:          0
DTLB PREFETCH  REQUESTED:          0  ISSUED:          0  USEFUL:          0  USELESS:          0
DTLB TOTAL MSHR MERGED:     453282
DTLB LOAD MSHR MERGED:     161674
DTLB RFO MSHR MERGED:     291608
DTLB PREFETCH MSHR MERGED:          0
DTLB WRITEBACK MSHR MERGED:          0
DTLB TOTAL ACCESSES:  155703874 HITS:  150338387 MISSES:    5365487
DTLB LOAD ACCESSES:  117967009 HITS:  113414808 MISSES:    4552201
DTLB RFO ACCESSES:   37736865 HITS:   36923579 MISSES:     813286
DTLB PREFETCH ACCESSES:          0 HITS:          0 MISSES:          0
DTLB WRITEBACK ACCESSES:          0 HITS:          0 MISSES:          0
DTLB RQ ACCESS:  206088029
DTLB RQ TO_CACHE:  155703874
DTLB RQ MERGED:   50384155
DTLB RQ FORWARD:          0
DTLB WQ ACCESS:          0
DTLB WQ TO_CACHE:          0
DTLB WQ MERGED:          0
DTLB WQ FORWARD:          0
L1D TOTAL     ACCESS:  277451891  HIT:  242626821  MISS:   34825070
L1D LOAD      ACCESS:  125532219  HIT:  107933420  MISS:   17598799
L1D RFO       ACCESS:   41158724  HIT:   38846868  MISS:    2311856
L1D PREFETCH  ACCESS:  110760948  HIT:   95846533  MISS:   14914415
L1D WRITEBACK ACCESS:          0  HIT:          0  MISS:          0
L1D PREFETCH  REQUESTED:  126367877  ISSUED:  124848604  USEFUL:    2746218  USELESS:   12168222
L1D TOTAL MSHR MERGED:    8425191
L1D LOAD MSHR MERGED:    1518877
L1D RFO MSHR MERGED:    3765443
L1D PREFETCH MSHR MERGED:    3140871
L1D WRITEBACK MSHR MERGED:          0
L1D TOTAL ACCESSES:  285964521 HITS:  242714260 MISSES:   43250261
L1D LOAD ACCESSES:  126367877 HITS:  107933420 MISSES:   18434457
L1D RFO ACCESSES:   44923656 HITS:   38846868 MISSES:    6076788
L1D PREFETCH ACCESSES:  114672988 HITS:   95933972 MISSES:   18739016
L1D WRITEBACK ACCESSES:          0 HITS:          0 MISSES:          0
L1D RQ ACCESS:  158541148
L1D RQ TO_CACHE:  126367877
L1D RQ MERGED:   32173271
L1D RQ FORWARD:          0
L1D WQ ACCESS:   47546882
L1D WQ TO_CACHE:   44923656
L1D WQ MERGED:    2623226
L1D WQ FORWARD:      87439
L1I TOTAL     ACCESS:  132829912  HIT:  132829912  MISS:          0
L1I LOAD      ACCESS:  132829912  HIT:  132829912  MISS:          0
L1I RFO       ACCESS:          0  HIT:          0  MISS:          0
L1I PREFETCH  ACCESS:          0  HIT:          0  MISS:          0
L1I WRITEBACK ACCESS:          0  HIT:          0  MISS:          0
L1I PREFETCH  REQUESTED:          0  ISSUED:          0  USEFUL:          0  USELESS:          0
L1I TOTAL MSHR MERGED:          0
L1I LOAD MSHR MERGED:          0
L1I RFO MSHR MERGED:          0
L1I PREFETCH MSHR MERGED:          0
L1I WRITEBACK MSHR MERGED:          0
L1I TOTAL ACCESSES:  132829912 HITS:  132829912 MISSES:          0
L1I LOAD ACCESSES:  132829912 HITS:  132829912 MISSES:          0
L1I RFO ACCESSES:          0 HITS:          0 MISSES:          0
L1I PREFETCH ACCESSES:          0 HITS:          0 MISSES:          0
L1I WRITEBACK ACCESSES:          0 HITS:          0 MISSES:          0
L1I RQ ACCESS:  499999980
L1I RQ TO_CACHE:  132829912
L1I RQ MERGED:  367170068
L1I RQ FORWARD:          0
L1I WQ ACCESS:          0
L1I WQ TO_CACHE:          0
L1I WQ MERGED:          0
L1I WQ FORWARD:          0
L2C TOTAL     ACCESS:   39596056  HIT:   20626456  MISS:   18969600
L2C LOAD      ACCESS:   16915518  HIT:    8570835  MISS:    8344683
L2C RFO       ACCESS:    2311293  HIT:     630786  MISS:    1680507
L2C PREFETCH  ACCESS:   17146797  HIT:    8206135  MISS:    8940662
L2C WRITEBACK ACCESS:    3222448  HIT:    3218700  MISS:       3748
L2C PREFETCH  REQUESTED:    2787546  ISSUED:    2787546  USEFUL:    1308931  USELESS:    7631458
L2C TOTAL MSHR MERGED:     485808
L2C LOAD MSHR MERGED:      64382
L2C RFO MSHR MERGED:          0
L2C PREFETCH MSHR MERGED:     421426
L2C WRITEBACK MSHR MERGED:          0
L2C TOTAL ACCESSES:   40133758 HITS:   20626618 MISSES:   19507140
L2C LOAD ACCESSES:   16915580 HITS:    8570897 MISSES:    8344683
L2C RFO ACCESSES:    2311345 HITS:     630838 MISSES:    1680507
L2C PREFETCH ACCESSES:   17684385 HITS:    8206183 MISSES:    9478202
L2C WRITEBACK ACCESSES:    3222448 HITS:    3218700 MISSES:       3748
L2C RQ ACCESS:   19226925
L2C RQ TO_CACHE:   19226811
L2C RQ MERGED:          0
L2C RQ FORWARD:          0
L2C WQ ACCESS:    3222448
L2C WQ TO_CACHE:    3222448
L2C WQ MERGED:          0
L2C WQ FORWARD:        162
LLC TOTAL     ACCESS:   21170457  HIT:   15875079  MISS:    5295378
LLC LOAD      ACCESS:    8280276  HIT:    5969657  MISS:    2310619
LLC RFO       ACCESS:    1680442  HIT:    1677904  MISS:       2538
LLC PREFETCH  ACCESS:    9034044  HIT:    6052793  MISS:    2981251
LLC WRITEBACK ACCESS:    2175695  HIT:    2174725  MISS:        970
LLC PREFETCH  REQUESTED:          0  ISSUED:          0  USEFUL:     555248  USELESS:    2429478
LLC TOTAL MSHR MERGED:      19524
LLC LOAD MSHR MERGED:       5314
LLC RFO MSHR MERGED:          0
LLC PREFETCH MSHR MERGED:      14210
LLC WRITEBACK MSHR MERGED:          0
LLC TOTAL ACCESSES:   21190098 HITS:   15875196 MISSES:    5314902
LLC LOAD ACCESSES:    8280301 HITS:    5969682 MISSES:    2310619
LLC RFO ACCESSES:    1680507 HITS:    1677969 MISSES:       2538
LLC PREFETCH ACCESSES:    9053595 HITS:    6052820 MISSES:    3000775
LLC WRITEBACK ACCESSES:    2175695 HITS:    2174725 MISSES:        970
LLC 0 RQ ACCESS:    9960808
LLC 0 RQ TO_CACHE:    9960718
LLC 0 RQ MERGED:          0
LLC 0 RQ FORWARD:          0
LLC WQ ACCESS:    2175696
LLC WQ TO_CACHE:    2175696
LLC WQ MERGED:          0
LLC WQ FORWARD:        117
Major fault: 0 Minor fault: 56391
CPU 0 L1D next line prefetcher final stats
CPU 0 L2C PC-based stride prefetcher final stats
All Misses: 6092617
All Hits: 18454686
SD Algo Stats - Switches: 0 SRR-Repls: 2348462 BRR-Repls: 0

DRAM Statistics
 CHANNEL 0
 RQ ROW_BUFFER_HIT:    4032771  ROW_BUFFER_MISS:    1258411
 DBUS_CONGESTED:    2756445
 WQ ROW_BUFFER_HIT:        479  ROW_BUFFER_MISS:      12809  FULL:          0

 AVG_CONGESTED_CYCLE: 13
LOADS RETIRED: 173631671
INSTR RETIRED: 500000000
