
*** ChampSim Multicore Out-of-Order Simulator ***

Warmup Instructions: 100000000
Simulation Instructions: 500000000
Number of CPUs: 1
LLC sets: 2048
LLC ways: 16
Clean RRIP Policies: 2212230222122302 Dirty RRIP Policies: 1202130212021302 PSEL Width: 10 Track Set: 4294967295 PSEL Mask: 1 Demote Mask: 1040100010401000DS Algo: 0Window size: 0
Off-chip DRAM Size: 4096 MB Channels: 1 Width: 64-bit Data Rate: 1600 MT/s

CPU 0 runs /mnt/beegfs/iconst01/spec2017/Xz.trace.gz
NOT SORTED
TRACE STRING: /mnt/beegfs/iconst01/spec2017/Xz.trace.gz
SORTED
TRACE STRING: /mnt/beegfs/iconst01/spec2017/Xz.trace.gz
INITIAL
TRACE STRING: /mnt/beegfs/iconst01/spec2017/Xz.trace.gz

champsim_seed used: 210

CPU 0 L1D next line prefetcher
CPU 0 L2C IP-based stride prefetcher
Initialize DRRIP state
Assign rand_sets[0]: 454  LLC: 2048
rand_sets[0]: 454
Assign rand_sets[1]: 1662  LLC: 2048
rand_sets[1]: 1662
Assign rand_sets[2]: 1921  LLC: 2048
rand_sets[2]: 1921
Assign rand_sets[3]: 1131  LLC: 2048
rand_sets[3]: 1131
Assign rand_sets[4]: 331  LLC: 2048
rand_sets[4]: 331
Assign rand_sets[5]: 1531  LLC: 2048
rand_sets[5]: 1531
Assign rand_sets[6]: 482  LLC: 2048
rand_sets[6]: 482
Assign rand_sets[7]: 1275  LLC: 2048
rand_sets[7]: 1275
Assign rand_sets[8]: 1876  LLC: 2048
rand_sets[8]: 1876
Assign rand_sets[9]: 2038  LLC: 2048
rand_sets[9]: 2038
Assign rand_sets[10]: 701  LLC: 2048
rand_sets[10]: 701
Assign rand_sets[11]: 479  LLC: 2048
rand_sets[11]: 479
Assign rand_sets[12]: 892  LLC: 2048
rand_sets[12]: 892
Assign rand_sets[13]: 1820  LLC: 2048
rand_sets[13]: 1820
Assign rand_sets[14]: 1505  LLC: 2048
rand_sets[14]: 1505
Assign rand_sets[15]: 1159  LLC: 2048
rand_sets[15]: 1159
Assign rand_sets[16]: 513  LLC: 2048
rand_sets[16]: 513
Assign rand_sets[17]: 703  LLC: 2048
rand_sets[17]: 703
Assign rand_sets[18]: 561  LLC: 2048
rand_sets[18]: 561
Assign rand_sets[19]: 990  LLC: 2048
rand_sets[19]: 990
Assign rand_sets[20]: 342  LLC: 2048
rand_sets[20]: 342
Assign rand_sets[21]: 882  LLC: 2048
rand_sets[21]: 882
Assign rand_sets[22]: 15  LLC: 2048
rand_sets[22]: 15
Assign rand_sets[23]: 71  LLC: 2048
rand_sets[23]: 71
Assign rand_sets[24]: 1127  LLC: 2048
rand_sets[24]: 1127
Assign rand_sets[25]: 1382  LLC: 2048
rand_sets[25]: 1382
Assign rand_sets[26]: 647  LLC: 2048
rand_sets[26]: 647
Assign rand_sets[27]: 857  LLC: 2048
rand_sets[27]: 857
Assign rand_sets[28]: 1450  LLC: 2048
rand_sets[28]: 1450
Assign rand_sets[29]: 1160  LLC: 2048
rand_sets[29]: 1160
Assign rand_sets[30]: 1852  LLC: 2048
rand_sets[30]: 1852
Assign rand_sets[31]: 1881  LLC: 2048
rand_sets[31]: 1881
Assign rand_sets[32]: 1770  LLC: 2048
rand_sets[32]: 1770
Assign rand_sets[33]: 1622  LLC: 2048
rand_sets[33]: 1622
Assign rand_sets[34]: 275  LLC: 2048
rand_sets[34]: 275
Assign rand_sets[35]: 635  LLC: 2048
rand_sets[35]: 635
Assign rand_sets[36]: 466  LLC: 2048
rand_sets[36]: 466
Assign rand_sets[37]: 1413  LLC: 2048
rand_sets[37]: 1413
Assign rand_sets[38]: 417  LLC: 2048
rand_sets[38]: 417
Assign rand_sets[39]: 472  LLC: 2048
rand_sets[39]: 472
Assign rand_sets[40]: 1340  LLC: 2048
rand_sets[40]: 1340
Assign rand_sets[41]: 852  LLC: 2048
rand_sets[41]: 852
Assign rand_sets[42]: 1365  LLC: 2048
rand_sets[42]: 1365
Assign rand_sets[43]: 47  LLC: 2048
rand_sets[43]: 47
Assign rand_sets[44]: 823  LLC: 2048
rand_sets[44]: 823
Assign rand_sets[45]: 686  LLC: 2048
rand_sets[45]: 686
Assign rand_sets[46]: 1637  LLC: 2048
rand_sets[46]: 1637
Assign rand_sets[47]: 1115  LLC: 2048
rand_sets[47]: 1115
Assign rand_sets[48]: 986  LLC: 2048
rand_sets[48]: 986
Assign rand_sets[49]: 258  LLC: 2048
rand_sets[49]: 258
Assign rand_sets[50]: 633  LLC: 2048
rand_sets[50]: 633
Assign rand_sets[51]: 920  LLC: 2048
rand_sets[51]: 920
Assign rand_sets[52]: 204  LLC: 2048
rand_sets[52]: 204
Assign rand_sets[53]: 227  LLC: 2048
rand_sets[53]: 227
Assign rand_sets[54]: 1818  LLC: 2048
rand_sets[54]: 1818
Assign rand_sets[55]: 886  LLC: 2048
rand_sets[55]: 886
Assign rand_sets[56]: 1422  LLC: 2048
rand_sets[56]: 1422
Assign rand_sets[57]: 607  LLC: 2048
rand_sets[57]: 607
Assign rand_sets[58]: 217  LLC: 2048
rand_sets[58]: 217
Assign rand_sets[59]: 1945  LLC: 2048
rand_sets[59]: 1945
Assign rand_sets[60]: 143  LLC: 2048
rand_sets[60]: 143
Assign rand_sets[61]: 1311  LLC: 2048
rand_sets[61]: 1311
Assign rand_sets[62]: 319  LLC: 2048
rand_sets[62]: 319
Assign rand_sets[63]: 1846  LLC: 2048
rand_sets[63]: 1846
 CLEAN-RRIP-POLICY-1: 2-2-1-2-2-3-0-2- CLEAN-RRIP-POLICY-2: 2-2-1-2-2-3-0-2-
 DIRTY-RRIP-POLICY-1: 1-2-0-2-1-3-0-2- DIRTY-RRIP-POLICY-2: 1-2-0-2-1-3-0-2-
 PSEL width: 10
Heartbeat CPU 0 instructions: 10000000 cycles: 4305123 heartbeat IPC: 2.32281 cumulative IPC: 2.32281 (Simulation time: 0 hr 0 min 12 sec) 
Heartbeat CPU 0 instructions: 20000000 cycles: 8616721 heartbeat IPC: 2.31933 cumulative IPC: 2.32107 (Simulation time: 0 hr 0 min 24 sec) 
Heartbeat CPU 0 instructions: 30000003 cycles: 13160492 heartbeat IPC: 2.20082 cumulative IPC: 2.27955 (Simulation time: 0 hr 0 min 37 sec) 
Heartbeat CPU 0 instructions: 40000000 cycles: 17514969 heartbeat IPC: 2.29649 cumulative IPC: 2.28376 (Simulation time: 0 hr 0 min 49 sec) 
Heartbeat CPU 0 instructions: 50000001 cycles: 21877755 heartbeat IPC: 2.29211 cumulative IPC: 2.28543 (Simulation time: 0 hr 1 min 1 sec) 
Heartbeat CPU 0 instructions: 60000000 cycles: 26177899 heartbeat IPC: 2.3255 cumulative IPC: 2.29201 (Simulation time: 0 hr 1 min 12 sec) 
Heartbeat CPU 0 instructions: 70000001 cycles: 30243786 heartbeat IPC: 2.45949 cumulative IPC: 2.31453 (Simulation time: 0 hr 1 min 23 sec) 
Heartbeat CPU 0 instructions: 80000000 cycles: 34522554 heartbeat IPC: 2.33712 cumulative IPC: 2.31733 (Simulation time: 0 hr 1 min 35 sec) 
Heartbeat CPU 0 instructions: 90000001 cycles: 38739157 heartbeat IPC: 2.37158 cumulative IPC: 2.32323 (Simulation time: 0 hr 1 min 46 sec) 
Heartbeat CPU 0 instructions: 100000000 cycles: 42979548 heartbeat IPC: 2.35827 cumulative IPC: 2.32669 (Simulation time: 0 hr 1 min 57 sec) 

Warmup complete CPU 0 instructions: 100000001 cycles: 42979549 (Simulation time: 0 hr 1 min 57 sec) 

Heartbeat CPU 0 instructions: 110000000 cycles: 53109649 heartbeat IPC: 0.987157 cumulative IPC: 0.987157 (Simulation time: 0 hr 2 min 14 sec) 
Heartbeat CPU 0 instructions: 120000000 cycles: 63745638 heartbeat IPC: 0.940204 cumulative IPC: 0.963109 (Simulation time: 0 hr 2 min 32 sec) 
Heartbeat CPU 0 instructions: 130000001 cycles: 74349871 heartbeat IPC: 0.94302 cumulative IPC: 0.956318 (Simulation time: 0 hr 2 min 49 sec) 
Heartbeat CPU 0 instructions: 140000000 cycles: 84040199 heartbeat IPC: 1.03196 cumulative IPC: 0.974169 (Simulation time: 0 hr 3 min 6 sec) 
Heartbeat CPU 0 instructions: 150000001 cycles: 94362575 heartbeat IPC: 0.968769 cumulative IPC: 0.973084 (Simulation time: 0 hr 3 min 24 sec) 
Heartbeat CPU 0 instructions: 160000000 cycles: 104431543 heartbeat IPC: 0.99315 cumulative IPC: 0.976372 (Simulation time: 0 hr 3 min 41 sec) 
Heartbeat CPU 0 instructions: 170000000 cycles: 114102069 heartbeat IPC: 1.03407 cumulative IPC: 0.984217 (Simulation time: 0 hr 3 min 58 sec) 
Heartbeat CPU 0 instructions: 180000000 cycles: 124655921 heartbeat IPC: 0.947521 cumulative IPC: 0.979475 (Simulation time: 0 hr 4 min 15 sec) 
Heartbeat CPU 0 instructions: 190000001 cycles: 134919003 heartbeat IPC: 0.974366 cumulative IPC: 0.978905 (Simulation time: 0 hr 4 min 32 sec) 
Heartbeat CPU 0 instructions: 200000000 cycles: 145504091 heartbeat IPC: 0.944725 cumulative IPC: 0.975376 (Simulation time: 0 hr 4 min 50 sec) 
Heartbeat CPU 0 instructions: 210000002 cycles: 157962568 heartbeat IPC: 0.802666 cumulative IPC: 0.956663 (Simulation time: 0 hr 5 min 8 sec) 
Heartbeat CPU 0 instructions: 220000000 cycles: 170501895 heartbeat IPC: 0.797491 cumulative IPC: 0.941012 (Simulation time: 0 hr 5 min 27 sec) 
Heartbeat CPU 0 instructions: 230000000 cycles: 182671177 heartbeat IPC: 0.821741 cumulative IPC: 0.930621 (Simulation time: 0 hr 5 min 46 sec) 
Heartbeat CPU 0 instructions: 240000000 cycles: 194805374 heartbeat IPC: 0.824117 cumulative IPC: 0.922109 (Simulation time: 0 hr 6 min 4 sec) 
Heartbeat CPU 0 instructions: 250000000 cycles: 206785095 heartbeat IPC: 0.834744 cumulative IPC: 0.91572 (Simulation time: 0 hr 6 min 23 sec) 
Heartbeat CPU 0 instructions: 260000000 cycles: 218343067 heartbeat IPC: 0.865204 cumulative IPC: 0.91239 (Simulation time: 0 hr 6 min 41 sec) 
Heartbeat CPU 0 instructions: 270000003 cycles: 230218110 heartbeat IPC: 0.842102 cumulative IPC: 0.907933 (Simulation time: 0 hr 6 min 59 sec) 
Heartbeat CPU 0 instructions: 280000000 cycles: 241767796 heartbeat IPC: 0.865824 cumulative IPC: 0.905486 (Simulation time: 0 hr 7 min 17 sec) 
Heartbeat CPU 0 instructions: 290000002 cycles: 253301394 heartbeat IPC: 0.867032 cumulative IPC: 0.903377 (Simulation time: 0 hr 7 min 35 sec) 
Heartbeat CPU 0 instructions: 300000000 cycles: 265755215 heartbeat IPC: 0.802966 cumulative IPC: 0.897764 (Simulation time: 0 hr 7 min 54 sec) 
Heartbeat CPU 0 instructions: 310000000 cycles: 277925471 heartbeat IPC: 0.821675 cumulative IPC: 0.893823 (Simulation time: 0 hr 8 min 12 sec) 
Heartbeat CPU 0 instructions: 320000000 cycles: 290591900 heartbeat IPC: 0.789488 cumulative IPC: 0.888486 (Simulation time: 0 hr 8 min 31 sec) 
Heartbeat CPU 0 instructions: 330000003 cycles: 302544557 heartbeat IPC: 0.836634 cumulative IPC: 0.886098 (Simulation time: 0 hr 8 min 49 sec) 
Heartbeat CPU 0 instructions: 340000000 cycles: 314650976 heartbeat IPC: 0.826008 cumulative IPC: 0.88342 (Simulation time: 0 hr 9 min 8 sec) 
Heartbeat CPU 0 instructions: 350000001 cycles: 325650674 heartbeat IPC: 0.909116 cumulative IPC: 0.88442 (Simulation time: 0 hr 9 min 26 sec) 
Heartbeat CPU 0 instructions: 360000000 cycles: 337443396 heartbeat IPC: 0.847981 cumulative IPC: 0.882961 (Simulation time: 0 hr 9 min 44 sec) 
Heartbeat CPU 0 instructions: 370000001 cycles: 348875176 heartbeat IPC: 0.874754 cumulative IPC: 0.882654 (Simulation time: 0 hr 10 min 2 sec) 
Heartbeat CPU 0 instructions: 380000000 cycles: 359883433 heartbeat IPC: 0.908409 cumulative IPC: 0.883549 (Simulation time: 0 hr 10 min 20 sec) 
Heartbeat CPU 0 instructions: 390000003 cycles: 370515505 heartbeat IPC: 0.940551 cumulative IPC: 0.885399 (Simulation time: 0 hr 10 min 38 sec) 
Heartbeat CPU 0 instructions: 400000000 cycles: 380739692 heartbeat IPC: 0.978073 cumulative IPC: 0.888204 (Simulation time: 0 hr 10 min 55 sec) 
Heartbeat CPU 0 instructions: 410000000 cycles: 391278407 heartbeat IPC: 0.948882 cumulative IPC: 0.89004 (Simulation time: 0 hr 11 min 13 sec) 
Heartbeat CPU 0 instructions: 420000000 cycles: 400670281 heartbeat IPC: 1.06475 cumulative IPC: 0.894628 (Simulation time: 0 hr 11 min 30 sec) 
Heartbeat CPU 0 instructions: 430000002 cycles: 409762412 heartbeat IPC: 1.09985 cumulative IPC: 0.899715 (Simulation time: 0 hr 11 min 47 sec) 
Heartbeat CPU 0 instructions: 440000000 cycles: 420020691 heartbeat IPC: 0.974822 cumulative IPC: 0.901758 (Simulation time: 0 hr 12 min 5 sec) 
Heartbeat CPU 0 instructions: 450000002 cycles: 431108508 heartbeat IPC: 0.901891 cumulative IPC: 0.901762 (Simulation time: 0 hr 12 min 22 sec) 
Heartbeat CPU 0 instructions: 460000000 cycles: 442668675 heartbeat IPC: 0.865039 cumulative IPC: 0.9007 (Simulation time: 0 hr 12 min 40 sec) 
Heartbeat CPU 0 instructions: 470000003 cycles: 452865543 heartbeat IPC: 0.980694 cumulative IPC: 0.90269 (Simulation time: 0 hr 12 min 58 sec) 
Heartbeat CPU 0 instructions: 480000000 cycles: 463409446 heartbeat IPC: 0.948415 cumulative IPC: 0.903837 (Simulation time: 0 hr 13 min 16 sec) 
Heartbeat CPU 0 instructions: 490000000 cycles: 473365615 heartbeat IPC: 1.0044 cumulative IPC: 0.906163 (Simulation time: 0 hr 13 min 33 sec) 
Heartbeat CPU 0 instructions: 500000000 cycles: 485157889 heartbeat IPC: 0.848013 cumulative IPC: 0.904612 (Simulation time: 0 hr 13 min 51 sec) 
Heartbeat CPU 0 instructions: 510000002 cycles: 497599257 heartbeat IPC: 0.80377 cumulative IPC: 0.901853 (Simulation time: 0 hr 14 min 10 sec) 
Heartbeat CPU 0 instructions: 520000000 cycles: 509475685 heartbeat IPC: 0.842004 cumulative IPC: 0.900329 (Simulation time: 0 hr 14 min 28 sec) 
Heartbeat CPU 0 instructions: 530000001 cycles: 521331646 heartbeat IPC: 0.843458 cumulative IPC: 0.898919 (Simulation time: 0 hr 14 min 46 sec) 
Heartbeat CPU 0 instructions: 540000000 cycles: 532954312 heartbeat IPC: 0.860388 cumulative IPC: 0.898005 (Simulation time: 0 hr 15 min 4 sec) 
Heartbeat CPU 0 instructions: 550000001 cycles: 544364365 heartbeat IPC: 0.87642 cumulative IPC: 0.897514 (Simulation time: 0 hr 15 min 22 sec) 
Heartbeat CPU 0 instructions: 560000000 cycles: 555949859 heartbeat IPC: 0.863148 cumulative IPC: 0.896738 (Simulation time: 0 hr 15 min 40 sec) 
Heartbeat CPU 0 instructions: 570000000 cycles: 567374201 heartbeat IPC: 0.875324 cumulative IPC: 0.896272 (Simulation time: 0 hr 15 min 58 sec) 
Heartbeat CPU 0 instructions: 580000000 cycles: 578155415 heartbeat IPC: 0.927539 cumulative IPC: 0.896901 (Simulation time: 0 hr 16 min 16 sec) 
Heartbeat CPU 0 instructions: 590000003 cycles: 589579866 heartbeat IPC: 0.875316 cumulative IPC: 0.89645 (Simulation time: 0 hr 16 min 34 sec) 
Heartbeat CPU 0 instructions: 600000000 cycles: 600168242 heartbeat IPC: 0.944432 cumulative IPC: 0.897362 (Simulation time: 0 hr 16 min 51 sec) 
Finished CPU 0 instructions: 500000001 cycles: 557188701 cumulative IPC: 0.897362 (Simulation time: 0 hr 16 min 51 sec) 

CPU 0 Branch Prediction Accuracy: 93.0095% MPKI: 10.0046
Number of Branches: 71558147 Number of Mispredictions: 5002285
Number of LOAD Instructions: 145708893
Number of LOAD Instructions (ROI): 145708893
Number of STORE Instructions: 40463820
Number of STORE Instructions (ROI): 40463820
Total Destination Memory Operands: 45240498
Total Destination Memory Operands (ROI): 45240498
Total Source Memory Operands: 145708893
Total Source Memory Operands (ROI): 145708893
Number of DEPENDED LOADS: 10675021
Number of DEPENDED LOADS (ROI): 10675021
Number of SQ_ADDED: 45240498
Number of SQ_ADDED (ROI): 45240498
Number of LQ_ADDED: 193323935
Number of LQ_ADDED (ROI): 193323935
Number of Instructions read from trace: 600000002

ChampSim completed all CPUs

Region of Interest Statistics

CPU 0 cumulative IPC: 0.897362 instructions: 500000001 cycles: 557188701
ITLB TOTAL     ACCESS:   77991684  HIT:   77991683  MISS:          1
ITLB LOAD      ACCESS:   77991684  HIT:   77991683  MISS:          1
ITLB RFO       ACCESS:          0  HIT:          0  MISS:          0
ITLB PREFETCH  ACCESS:          0  HIT:          0  MISS:          0
ITLB WRITEBACK ACCESS:          0  HIT:          0  MISS:          0
ITLB PREFETCH  REQUESTED:          0  ISSUED:          0  USEFUL:          0  USELESS:          0
ITLB TOTAL MSHR MERGED:          0
ITLB LOAD MSHR MERGED:          0
ITLB RFO MSHR MERGED:          0
ITLB PREFETCH MSHR MERGED:          0
ITLB WRITEBACK MSHR MERGED:          0
ITLB TOTAL ACCESSES:   77991684 HITS:   77991683 MISSES:          1
ITLB LOAD ACCESSES:   77991684 HITS:   77991683 MISSES:          1
ITLB RFO ACCESSES:          0 HITS:          0 MISSES:          0
ITLB PREFETCH ACCESSES:          0 HITS:          0 MISSES:          0
ITLB WRITEBACK ACCESSES:          0 HITS:          0 MISSES:          0
ITLB RQ ACCESS:  499999995
ITLB RQ TO_CACHE:   77991684
ITLB RQ MERGED:  422008311
ITLB RQ FORWARD:          0
ITLB WQ ACCESS:          0
ITLB WQ TO_CACHE:          0
ITLB WQ MERGED:          0
ITLB WQ FORWARD:          0
DTLB TOTAL     ACCESS:   98672314  HIT:   97790978  MISS:     881336
DTLB LOAD      ACCESS:   70892381  HIT:   70030848  MISS:     861533
DTLB RFO       ACCESS:   27779933  HIT:   27760130  MISS:      19803
DTLB PREFETCH  ACCESS:          0  HIT:          0  MISS:          0
DTLB WRITEBACK ACCESS:          0  HIT:          0  MISS:          0
DTLB PREFETCH  REQUESTED:          0  ISSUED:          0  USEFUL:          0  USELESS:          0
DTLB TOTAL MSHR MERGED:      87380
DTLB LOAD MSHR MERGED:      65642
DTLB RFO MSHR MERGED:      21738
DTLB PREFETCH MSHR MERGED:          0
DTLB WRITEBACK MSHR MERGED:          0
DTLB TOTAL ACCESSES:   98759694 HITS:   97790978 MISSES:     968716
DTLB LOAD ACCESSES:   70958023 HITS:   70030848 MISSES:     927175
DTLB RFO ACCESSES:   27801671 HITS:   27760130 MISSES:      41541
DTLB PREFETCH ACCESSES:          0 HITS:          0 MISSES:          0
DTLB WRITEBACK ACCESSES:          0 HITS:          0 MISSES:          0
DTLB RQ ACCESS:  150270035
DTLB RQ TO_CACHE:   98759694
DTLB RQ MERGED:   51510341
DTLB RQ FORWARD:          0
DTLB WQ ACCESS:          0
DTLB WQ TO_CACHE:          0
DTLB WQ MERGED:          0
DTLB WQ FORWARD:          0
L1D TOTAL     ACCESS:  173323202  HIT:  169154557  MISS:    4168645
L1D LOAD      ACCESS:   75278430  HIT:   73397142  MISS:    1881288
L1D RFO       ACCESS:   36778477  HIT:   36571870  MISS:     206607
L1D PREFETCH  ACCESS:   61266295  HIT:   59185545  MISS:    2080750
L1D WRITEBACK ACCESS:          0  HIT:          0  MISS:          0
L1D PREFETCH  REQUESTED:   75382045  ISSUED:   74817842  USEFUL:     415181  USELESS:    1665558
L1D TOTAL MSHR MERGED:     373008
L1D LOAD MSHR MERGED:     112333
L1D RFO MSHR MERGED:     132881
L1D PREFETCH MSHR MERGED:     127794
L1D WRITEBACK MSHR MERGED:          0
L1D TOTAL ACCESSES:  173848062 HITS:  169306409 MISSES:    4541653
L1D LOAD ACCESSES:   75385126 HITS:   73400223 MISSES:    1984903
L1D RFO ACCESSES:   36909961 HITS:   36571870 MISSES:     338091
L1D PREFETCH ACCESSES:   61552975 HITS:   59334316 MISSES:    2218659
L1D WRITEBACK ACCESSES:          0 HITS:          0 MISSES:          0
L1D RQ ACCESS:  112607632
L1D RQ TO_CACHE:   75382045
L1D RQ MERGED:   37222506
L1D RQ FORWARD:          0
L1D WQ ACCESS:   37662403
L1D WQ TO_CACHE:   36909961
L1D WQ MERGED:     752442
L1D WQ FORWARD:     151852
L1I TOTAL     ACCESS:  100699650  HIT:  100699625  MISS:         25
L1I LOAD      ACCESS:  100699650  HIT:  100699625  MISS:         25
L1I RFO       ACCESS:          0  HIT:          0  MISS:          0
L1I PREFETCH  ACCESS:          0  HIT:          0  MISS:          0
L1I WRITEBACK ACCESS:          0  HIT:          0  MISS:          0
L1I PREFETCH  REQUESTED:          0  ISSUED:          0  USEFUL:          0  USELESS:          0
L1I TOTAL MSHR MERGED:         10
L1I LOAD MSHR MERGED:         10
L1I RFO MSHR MERGED:          0
L1I PREFETCH MSHR MERGED:          0
L1I WRITEBACK MSHR MERGED:          0
L1I TOTAL ACCESSES:  100699660 HITS:  100699625 MISSES:         35
L1I LOAD ACCESSES:  100699660 HITS:  100699625 MISSES:         35
L1I RFO ACCESSES:          0 HITS:          0 MISSES:          0
L1I PREFETCH ACCESSES:          0 HITS:          0 MISSES:          0
L1I WRITEBACK ACCESSES:          0 HITS:          0 MISSES:          0
L1I RQ ACCESS:  499999995
L1I RQ TO_CACHE:  100699660
L1I RQ MERGED:  399300335
L1I RQ FORWARD:          0
L1I WQ ACCESS:          0
L1I WQ TO_CACHE:          0
L1I WQ MERGED:          0
L1I WQ FORWARD:          0
L2C TOTAL     ACCESS:    5852639  HIT:    4009457  MISS:    1843182
L2C LOAD      ACCESS:    1872469  HIT:    1061525  MISS:     810944
L2C RFO       ACCESS:     205204  HIT:     100564  MISS:     104640
L2C PREFETCH  ACCESS:    2169331  HIT:    1246153  MISS:     923178
L2C WRITEBACK ACCESS:    1605635  HIT:    1601215  MISS:       4420
L2C PREFETCH  REQUESTED:      91709  ISSUED:      91709  USEFUL:      86462  USELESS:     836739
L2C TOTAL MSHR MERGED:        980
L2C LOAD MSHR MERGED:        255
L2C RFO MSHR MERGED:          0
L2C PREFETCH MSHR MERGED:        725
L2C WRITEBACK MSHR MERGED:          0
L2C TOTAL ACCESSES:    5853935 HITS:    4009626 MISSES:    1844309
L2C LOAD ACCESSES:    1872595 HITS:    1061651 MISSES:     810944
L2C RFO ACCESSES:     205210 HITS:     100570 MISSES:     104640
L2C PREFETCH ACCESSES:    2170495 HITS:    1246190 MISSES:     924305
L2C WRITEBACK ACCESSES:    1605635 HITS:    1601215 MISSES:       4420
L2C RQ ACCESS:    2077805
L2C RQ TO_CACHE:    2077673
L2C RQ MERGED:          0
L2C RQ FORWARD:          0
L2C WQ ACCESS:    1605635
L2C WQ TO_CACHE:    1605635
L2C WQ MERGED:          0
L2C WQ FORWARD:        169
LLC TOTAL     ACCESS:    2673558  HIT:    2227255  MISS:     446303
LLC LOAD      ACCESS:     810680  HIT:     631647  MISS:     179033
LLC RFO       ACCESS:     104640  HIT:      60202  MISS:      44438
LLC PREFETCH  ACCESS:     923568  HIT:     719684  MISS:     203884
LLC WRITEBACK ACCESS:     834670  HIT:     815722  MISS:      18948
LLC PREFETCH  REQUESTED:          0  ISSUED:          0  USEFUL:      25131  USELESS:     179163
LLC TOTAL MSHR MERGED:          6
LLC LOAD MSHR MERGED:          4
LLC RFO MSHR MERGED:          0
LLC PREFETCH MSHR MERGED:          2
LLC WRITEBACK MSHR MERGED:          0
LLC TOTAL ACCESSES:    2673575 HITS:    2227266 MISSES:     446309
LLC LOAD ACCESSES:     810689 HITS:     631656 MISSES:     179033
LLC RFO ACCESSES:     104640 HITS:      60202 MISSES:      44438
LLC PREFETCH ACCESSES:     923576 HITS:     719686 MISSES:     203890
LLC WRITEBACK ACCESSES:     834670 HITS:     815722 MISSES:      18948
LLC 0 RQ ACCESS:     915329
LLC 0 RQ TO_CACHE:     915320
LLC 0 RQ MERGED:          0
LLC 0 RQ FORWARD:          0
LLC WQ ACCESS:     834670
LLC WQ TO_CACHE:     834670
LLC WQ MERGED:          0
LLC WQ FORWARD:         11
Major fault: 0 Minor fault: 11278
CPU 0 L1D next line prefetcher final stats
CPU 0 L2C PC-based stride prefetcher final stats
All Misses: 536873
All Hits: 2517703
SD Algo Stats - Switches: 0 SRR-Repls: 209208 BRR-Repls: 0

DRAM Statistics
 CHANNEL 0
 RQ ROW_BUFFER_HIT:      29068  ROW_BUFFER_MISS:     397946
 DBUS_CONGESTED:     372159
 WQ ROW_BUFFER_HIT:      16822  ROW_BUFFER_MISS:     218433  FULL:          0

 AVG_CONGESTED_CYCLE: 13
LOADS RETIRED: 121769268
INSTR RETIRED: 500000000
