
*** ChampSim Multicore Out-of-Order Simulator ***

Warmup Instructions: 100000000
Simulation Instructions: 500000000
Number of CPUs: 1
LLC sets: 2048
LLC ways: 16
Clean RRIP Policies: 2213220222132202 Dirty RRIP Policies: 1203120212031202 PSEL Width: 10 Track Set: 4294967295 PSEL Mask: 1 Demote Mask: 1043100410431004DS Algo: 0Window size: 0
Off-chip DRAM Size: 4096 MB Channels: 1 Width: 64-bit Data Rate: 1600 MT/s

CPU 0 runs /mnt/beegfs/iconst01/spec2017/Blender.trace.gz
NOT SORTED
TRACE STRING: /mnt/beegfs/iconst01/spec2017/Blender.trace.gz
SORTED
TRACE STRING: /mnt/beegfs/iconst01/spec2017/Blender.trace.gz
INITIAL
TRACE STRING: /mnt/beegfs/iconst01/spec2017/Blender.trace.gz

champsim_seed used: 700

CPU 0 L1D next line prefetcher
CPU 0 L2C IP-based stride prefetcher
Initialize DRRIP state
Assign rand_sets[0]: 454  LLC: 2048
rand_sets[0]: 454
Assign rand_sets[1]: 1662  LLC: 2048
rand_sets[1]: 1662
Assign rand_sets[2]: 1921  LLC: 2048
rand_sets[2]: 1921
Assign rand_sets[3]: 1131  LLC: 2048
rand_sets[3]: 1131
Assign rand_sets[4]: 331  LLC: 2048
rand_sets[4]: 331
Assign rand_sets[5]: 1531  LLC: 2048
rand_sets[5]: 1531
Assign rand_sets[6]: 482  LLC: 2048
rand_sets[6]: 482
Assign rand_sets[7]: 1275  LLC: 2048
rand_sets[7]: 1275
Assign rand_sets[8]: 1876  LLC: 2048
rand_sets[8]: 1876
Assign rand_sets[9]: 2038  LLC: 2048
rand_sets[9]: 2038
Assign rand_sets[10]: 701  LLC: 2048
rand_sets[10]: 701
Assign rand_sets[11]: 479  LLC: 2048
rand_sets[11]: 479
Assign rand_sets[12]: 892  LLC: 2048
rand_sets[12]: 892
Assign rand_sets[13]: 1820  LLC: 2048
rand_sets[13]: 1820
Assign rand_sets[14]: 1505  LLC: 2048
rand_sets[14]: 1505
Assign rand_sets[15]: 1159  LLC: 2048
rand_sets[15]: 1159
Assign rand_sets[16]: 513  LLC: 2048
rand_sets[16]: 513
Assign rand_sets[17]: 703  LLC: 2048
rand_sets[17]: 703
Assign rand_sets[18]: 561  LLC: 2048
rand_sets[18]: 561
Assign rand_sets[19]: 990  LLC: 2048
rand_sets[19]: 990
Assign rand_sets[20]: 342  LLC: 2048
rand_sets[20]: 342
Assign rand_sets[21]: 882  LLC: 2048
rand_sets[21]: 882
Assign rand_sets[22]: 15  LLC: 2048
rand_sets[22]: 15
Assign rand_sets[23]: 71  LLC: 2048
rand_sets[23]: 71
Assign rand_sets[24]: 1127  LLC: 2048
rand_sets[24]: 1127
Assign rand_sets[25]: 1382  LLC: 2048
rand_sets[25]: 1382
Assign rand_sets[26]: 647  LLC: 2048
rand_sets[26]: 647
Assign rand_sets[27]: 857  LLC: 2048
rand_sets[27]: 857
Assign rand_sets[28]: 1450  LLC: 2048
rand_sets[28]: 1450
Assign rand_sets[29]: 1160  LLC: 2048
rand_sets[29]: 1160
Assign rand_sets[30]: 1852  LLC: 2048
rand_sets[30]: 1852
Assign rand_sets[31]: 1881  LLC: 2048
rand_sets[31]: 1881
Assign rand_sets[32]: 1770  LLC: 2048
rand_sets[32]: 1770
Assign rand_sets[33]: 1622  LLC: 2048
rand_sets[33]: 1622
Assign rand_sets[34]: 275  LLC: 2048
rand_sets[34]: 275
Assign rand_sets[35]: 635  LLC: 2048
rand_sets[35]: 635
Assign rand_sets[36]: 466  LLC: 2048
rand_sets[36]: 466
Assign rand_sets[37]: 1413  LLC: 2048
rand_sets[37]: 1413
Assign rand_sets[38]: 417  LLC: 2048
rand_sets[38]: 417
Assign rand_sets[39]: 472  LLC: 2048
rand_sets[39]: 472
Assign rand_sets[40]: 1340  LLC: 2048
rand_sets[40]: 1340
Assign rand_sets[41]: 852  LLC: 2048
rand_sets[41]: 852
Assign rand_sets[42]: 1365  LLC: 2048
rand_sets[42]: 1365
Assign rand_sets[43]: 47  LLC: 2048
rand_sets[43]: 47
Assign rand_sets[44]: 823  LLC: 2048
rand_sets[44]: 823
Assign rand_sets[45]: 686  LLC: 2048
rand_sets[45]: 686
Assign rand_sets[46]: 1637  LLC: 2048
rand_sets[46]: 1637
Assign rand_sets[47]: 1115  LLC: 2048
rand_sets[47]: 1115
Assign rand_sets[48]: 986  LLC: 2048
rand_sets[48]: 986
Assign rand_sets[49]: 258  LLC: 2048
rand_sets[49]: 258
Assign rand_sets[50]: 633  LLC: 2048
rand_sets[50]: 633
Assign rand_sets[51]: 920  LLC: 2048
rand_sets[51]: 920
Assign rand_sets[52]: 204  LLC: 2048
rand_sets[52]: 204
Assign rand_sets[53]: 227  LLC: 2048
rand_sets[53]: 227
Assign rand_sets[54]: 1818  LLC: 2048
rand_sets[54]: 1818
Assign rand_sets[55]: 886  LLC: 2048
rand_sets[55]: 886
Assign rand_sets[56]: 1422  LLC: 2048
rand_sets[56]: 1422
Assign rand_sets[57]: 607  LLC: 2048
rand_sets[57]: 607
Assign rand_sets[58]: 217  LLC: 2048
rand_sets[58]: 217
Assign rand_sets[59]: 1945  LLC: 2048
rand_sets[59]: 1945
Assign rand_sets[60]: 143  LLC: 2048
rand_sets[60]: 143
Assign rand_sets[61]: 1311  LLC: 2048
rand_sets[61]: 1311
Assign rand_sets[62]: 319  LLC: 2048
rand_sets[62]: 319
Assign rand_sets[63]: 1846  LLC: 2048
rand_sets[63]: 1846
 CLEAN-RRIP-POLICY-1: 2-2-1-3-2-2-0-2- CLEAN-RRIP-POLICY-2: 2-2-1-3-2-2-0-2-
 DIRTY-RRIP-POLICY-1: 1-2-0-3-1-2-0-2- DIRTY-RRIP-POLICY-2: 1-2-0-3-1-2-0-2-
 PSEL width: 10
Heartbeat CPU 0 instructions: 10000002 cycles: 5480930 heartbeat IPC: 1.82451 cumulative IPC: 1.82451 (Simulation time: 0 hr 0 min 13 sec) 
Heartbeat CPU 0 instructions: 20000000 cycles: 10913521 heartbeat IPC: 1.84074 cumulative IPC: 1.83259 (Simulation time: 0 hr 0 min 26 sec) 
Heartbeat CPU 0 instructions: 30000000 cycles: 16447420 heartbeat IPC: 1.80704 cumulative IPC: 1.82399 (Simulation time: 0 hr 0 min 39 sec) 
Heartbeat CPU 0 instructions: 40000000 cycles: 21898257 heartbeat IPC: 1.83458 cumulative IPC: 1.82663 (Simulation time: 0 hr 0 min 52 sec) 
Heartbeat CPU 0 instructions: 50000000 cycles: 27400214 heartbeat IPC: 1.81754 cumulative IPC: 1.8248 (Simulation time: 0 hr 1 min 5 sec) 
Heartbeat CPU 0 instructions: 60000000 cycles: 32779056 heartbeat IPC: 1.85914 cumulative IPC: 1.83044 (Simulation time: 0 hr 1 min 18 sec) 
Heartbeat CPU 0 instructions: 70000001 cycles: 38335325 heartbeat IPC: 1.79977 cumulative IPC: 1.82599 (Simulation time: 0 hr 1 min 31 sec) 
Heartbeat CPU 0 instructions: 80000000 cycles: 43795490 heartbeat IPC: 1.83145 cumulative IPC: 1.82667 (Simulation time: 0 hr 1 min 44 sec) 
Heartbeat CPU 0 instructions: 90000000 cycles: 49242086 heartbeat IPC: 1.83601 cumulative IPC: 1.8277 (Simulation time: 0 hr 1 min 57 sec) 
Heartbeat CPU 0 instructions: 100000000 cycles: 54787148 heartbeat IPC: 1.80341 cumulative IPC: 1.82525 (Simulation time: 0 hr 2 min 10 sec) 

Warmup complete CPU 0 instructions: 100000002 cycles: 54787149 (Simulation time: 0 hr 2 min 10 sec) 

Heartbeat CPU 0 instructions: 110000001 cycles: 69149581 heartbeat IPC: 0.696261 cumulative IPC: 0.696261 (Simulation time: 0 hr 2 min 28 sec) 
Heartbeat CPU 0 instructions: 120000000 cycles: 84117505 heartbeat IPC: 0.668095 cumulative IPC: 0.681887 (Simulation time: 0 hr 2 min 47 sec) 
Heartbeat CPU 0 instructions: 130000000 cycles: 98587297 heartbeat IPC: 0.691095 cumulative IPC: 0.684929 (Simulation time: 0 hr 3 min 6 sec) 
Heartbeat CPU 0 instructions: 140000000 cycles: 112911482 heartbeat IPC: 0.69812 cumulative IPC: 0.68818 (Simulation time: 0 hr 3 min 24 sec) 
Heartbeat CPU 0 instructions: 150000000 cycles: 127574715 heartbeat IPC: 0.681978 cumulative IPC: 0.68693 (Simulation time: 0 hr 3 min 43 sec) 
Heartbeat CPU 0 instructions: 160000000 cycles: 142625253 heartbeat IPC: 0.664428 cumulative IPC: 0.683075 (Simulation time: 0 hr 4 min 2 sec) 
Heartbeat CPU 0 instructions: 170000001 cycles: 157458783 heartbeat IPC: 0.674148 cumulative IPC: 0.681785 (Simulation time: 0 hr 4 min 20 sec) 
Heartbeat CPU 0 instructions: 180000000 cycles: 172327457 heartbeat IPC: 0.672555 cumulative IPC: 0.680618 (Simulation time: 0 hr 4 min 39 sec) 
Heartbeat CPU 0 instructions: 190000002 cycles: 186763027 heartbeat IPC: 0.692733 cumulative IPC: 0.681943 (Simulation time: 0 hr 4 min 58 sec) 
Heartbeat CPU 0 instructions: 200000000 cycles: 201103606 heartbeat IPC: 0.697322 cumulative IPC: 0.68345 (Simulation time: 0 hr 5 min 16 sec) 
Heartbeat CPU 0 instructions: 210000003 cycles: 215691408 heartbeat IPC: 0.685504 cumulative IPC: 0.683636 (Simulation time: 0 hr 5 min 35 sec) 
Heartbeat CPU 0 instructions: 220000000 cycles: 230342716 heartbeat IPC: 0.682533 cumulative IPC: 0.683544 (Simulation time: 0 hr 5 min 54 sec) 
Heartbeat CPU 0 instructions: 230000001 cycles: 245394924 heartbeat IPC: 0.664354 cumulative IPC: 0.682029 (Simulation time: 0 hr 6 min 13 sec) 
Heartbeat CPU 0 instructions: 240000000 cycles: 260268293 heartbeat IPC: 0.672343 cumulative IPC: 0.681328 (Simulation time: 0 hr 6 min 31 sec) 
Heartbeat CPU 0 instructions: 250000003 cycles: 275048783 heartbeat IPC: 0.676568 cumulative IPC: 0.681008 (Simulation time: 0 hr 6 min 50 sec) 
Heartbeat CPU 0 instructions: 260000000 cycles: 290474405 heartbeat IPC: 0.648272 cumulative IPC: 0.678866 (Simulation time: 0 hr 7 min 9 sec) 
Heartbeat CPU 0 instructions: 270000003 cycles: 305047617 heartbeat IPC: 0.686191 cumulative IPC: 0.679292 (Simulation time: 0 hr 7 min 28 sec) 
Heartbeat CPU 0 instructions: 280000000 cycles: 319466857 heartbeat IPC: 0.693518 cumulative IPC: 0.680067 (Simulation time: 0 hr 7 min 46 sec) 
Heartbeat CPU 0 instructions: 290000002 cycles: 333878719 heartbeat IPC: 0.693873 cumulative IPC: 0.68078 (Simulation time: 0 hr 8 min 5 sec) 
Heartbeat CPU 0 instructions: 300000000 cycles: 349240949 heartbeat IPC: 0.650947 cumulative IPC: 0.679224 (Simulation time: 0 hr 8 min 24 sec) 
Heartbeat CPU 0 instructions: 310000000 cycles: 364157605 heartbeat IPC: 0.670392 cumulative IPC: 0.678798 (Simulation time: 0 hr 8 min 43 sec) 
Heartbeat CPU 0 instructions: 320000000 cycles: 378919141 heartbeat IPC: 0.677436 cumulative IPC: 0.678736 (Simulation time: 0 hr 9 min 1 sec) 
Heartbeat CPU 0 instructions: 330000000 cycles: 394627517 heartbeat IPC: 0.636603 cumulative IPC: 0.676788 (Simulation time: 0 hr 9 min 20 sec) 
Heartbeat CPU 0 instructions: 340000000 cycles: 409239697 heartbeat IPC: 0.684361 cumulative IPC: 0.6771 (Simulation time: 0 hr 9 min 39 sec) 
Heartbeat CPU 0 instructions: 350000000 cycles: 423807536 heartbeat IPC: 0.686444 cumulative IPC: 0.677469 (Simulation time: 0 hr 9 min 57 sec) 
Heartbeat CPU 0 instructions: 360000000 cycles: 438428019 heartbeat IPC: 0.683972 cumulative IPC: 0.677717 (Simulation time: 0 hr 10 min 16 sec) 
Heartbeat CPU 0 instructions: 370000002 cycles: 453797561 heartbeat IPC: 0.650638 cumulative IPC: 0.676674 (Simulation time: 0 hr 10 min 35 sec) 
Heartbeat CPU 0 instructions: 380000000 cycles: 468595053 heartbeat IPC: 0.67579 cumulative IPC: 0.676642 (Simulation time: 0 hr 10 min 53 sec) 
Heartbeat CPU 0 instructions: 390000003 cycles: 483488076 heartbeat IPC: 0.671456 cumulative IPC: 0.676462 (Simulation time: 0 hr 11 min 12 sec) 
Heartbeat CPU 0 instructions: 400000000 cycles: 499270848 heartbeat IPC: 0.633602 cumulative IPC: 0.67494 (Simulation time: 0 hr 11 min 31 sec) 
Heartbeat CPU 0 instructions: 410000001 cycles: 514231721 heartbeat IPC: 0.66841 cumulative IPC: 0.674728 (Simulation time: 0 hr 11 min 49 sec) 
Heartbeat CPU 0 instructions: 420000000 cycles: 528932525 heartbeat IPC: 0.680235 cumulative IPC: 0.674899 (Simulation time: 0 hr 12 min 8 sec) 
Heartbeat CPU 0 instructions: 430000000 cycles: 544284579 heartbeat IPC: 0.651379 cumulative IPC: 0.674161 (Simulation time: 0 hr 12 min 27 sec) 
Heartbeat CPU 0 instructions: 440000000 cycles: 559070457 heartbeat IPC: 0.676321 cumulative IPC: 0.674224 (Simulation time: 0 hr 12 min 45 sec) 
Heartbeat CPU 0 instructions: 450000000 cycles: 573989845 heartbeat IPC: 0.670269 cumulative IPC: 0.674111 (Simulation time: 0 hr 13 min 4 sec) 
Heartbeat CPU 0 instructions: 460000000 cycles: 589689393 heartbeat IPC: 0.636961 cumulative IPC: 0.67302 (Simulation time: 0 hr 13 min 23 sec) 
Heartbeat CPU 0 instructions: 470000000 cycles: 604717699 heartbeat IPC: 0.665411 cumulative IPC: 0.672812 (Simulation time: 0 hr 13 min 41 sec) 
Heartbeat CPU 0 instructions: 480000000 cycles: 619572462 heartbeat IPC: 0.673185 cumulative IPC: 0.672822 (Simulation time: 0 hr 14 min 0 sec) 
Heartbeat CPU 0 instructions: 490000002 cycles: 634784532 heartbeat IPC: 0.657373 cumulative IPC: 0.672417 (Simulation time: 0 hr 14 min 19 sec) 
Heartbeat CPU 0 instructions: 500000000 cycles: 649625230 heartbeat IPC: 0.673823 cumulative IPC: 0.672452 (Simulation time: 0 hr 14 min 37 sec) 
Heartbeat CPU 0 instructions: 510000001 cycles: 664682567 heartbeat IPC: 0.664128 cumulative IPC: 0.672246 (Simulation time: 0 hr 14 min 56 sec) 
Heartbeat CPU 0 instructions: 520000000 cycles: 680094840 heartbeat IPC: 0.648834 cumulative IPC: 0.671669 (Simulation time: 0 hr 15 min 15 sec) 
Heartbeat CPU 0 instructions: 530000001 cycles: 695465997 heartbeat IPC: 0.650569 cumulative IPC: 0.671163 (Simulation time: 0 hr 15 min 34 sec) 
Heartbeat CPU 0 instructions: 540000000 cycles: 710013970 heartbeat IPC: 0.687381 cumulative IPC: 0.671523 (Simulation time: 0 hr 15 min 52 sec) 
Heartbeat CPU 0 instructions: 550000001 cycles: 725232405 heartbeat IPC: 0.657098 cumulative IPC: 0.671196 (Simulation time: 0 hr 16 min 11 sec) 
Heartbeat CPU 0 instructions: 560000000 cycles: 740007561 heartbeat IPC: 0.676812 cumulative IPC: 0.671317 (Simulation time: 0 hr 16 min 30 sec) 
Heartbeat CPU 0 instructions: 570000002 cycles: 755102418 heartbeat IPC: 0.662477 cumulative IPC: 0.671126 (Simulation time: 0 hr 16 min 48 sec) 
Heartbeat CPU 0 instructions: 580000000 cycles: 770061413 heartbeat IPC: 0.668494 cumulative IPC: 0.671071 (Simulation time: 0 hr 17 min 7 sec) 
Heartbeat CPU 0 instructions: 590000001 cycles: 785013412 heartbeat IPC: 0.668807 cumulative IPC: 0.671025 (Simulation time: 0 hr 17 min 25 sec) 
Heartbeat CPU 0 instructions: 600000000 cycles: 799634570 heartbeat IPC: 0.68394 cumulative IPC: 0.671278 (Simulation time: 0 hr 17 min 44 sec) 
Finished CPU 0 instructions: 500000000 cycles: 744847429 cumulative IPC: 0.671278 (Simulation time: 0 hr 17 min 44 sec) 

CPU 0 Branch Prediction Accuracy: 93.7783% MPKI: 10.0718
Number of Branches: 80940586 Number of Mispredictions: 5035908
Number of LOAD Instructions: 184238101
Number of LOAD Instructions (ROI): 184238101
Number of STORE Instructions: 33143298
Number of STORE Instructions (ROI): 33143298
Total Destination Memory Operands: 33324321
Total Destination Memory Operands (ROI): 33324321
Total Source Memory Operands: 184238101
Total Source Memory Operands (ROI): 184238101
Number of DEPENDED LOADS: 4461437
Number of DEPENDED LOADS (ROI): 4461437
Number of SQ_ADDED: 33324292
Number of SQ_ADDED (ROI): 33324292
Number of LQ_ADDED: 184867082
Number of LQ_ADDED (ROI): 184867082
Number of Instructions read from trace: 600000256

ChampSim completed all CPUs

Region of Interest Statistics

CPU 0 cumulative IPC: 0.671278 instructions: 500000000 cycles: 744847429
ITLB TOTAL     ACCESS:   77745299  HIT:   77745299  MISS:          0
ITLB LOAD      ACCESS:   77745299  HIT:   77745299  MISS:          0
ITLB RFO       ACCESS:          0  HIT:          0  MISS:          0
ITLB PREFETCH  ACCESS:          0  HIT:          0  MISS:          0
ITLB WRITEBACK ACCESS:          0  HIT:          0  MISS:          0
ITLB PREFETCH  REQUESTED:          0  ISSUED:          0  USEFUL:          0  USELESS:          0
ITLB TOTAL MSHR MERGED:          0
ITLB LOAD MSHR MERGED:          0
ITLB RFO MSHR MERGED:          0
ITLB PREFETCH MSHR MERGED:          0
ITLB WRITEBACK MSHR MERGED:          0
ITLB TOTAL ACCESSES:   77745299 HITS:   77745299 MISSES:          0
ITLB LOAD ACCESSES:   77745299 HITS:   77745299 MISSES:          0
ITLB RFO ACCESSES:          0 HITS:          0 MISSES:          0
ITLB PREFETCH ACCESSES:          0 HITS:          0 MISSES:          0
ITLB WRITEBACK ACCESSES:          0 HITS:          0 MISSES:          0
ITLB RQ ACCESS:  500000245
ITLB RQ TO_CACHE:   77745299
ITLB RQ MERGED:  422254946
ITLB RQ FORWARD:          0
ITLB WQ ACCESS:          0
ITLB WQ TO_CACHE:          0
ITLB WQ MERGED:          0
ITLB WQ FORWARD:          0
DTLB TOTAL     ACCESS:   88436434  HIT:   87299583  MISS:    1136851
DTLB LOAD      ACCESS:   66309969  HIT:   65177358  MISS:    1132611
DTLB RFO       ACCESS:   22126465  HIT:   22122225  MISS:       4240
DTLB PREFETCH  ACCESS:          0  HIT:          0  MISS:          0
DTLB WRITEBACK ACCESS:          0  HIT:          0  MISS:          0
DTLB PREFETCH  REQUESTED:          0  ISSUED:          0  USEFUL:          0  USELESS:          0
DTLB TOTAL MSHR MERGED:     135534
DTLB LOAD MSHR MERGED:     133716
DTLB RFO MSHR MERGED:       1818
DTLB PREFETCH MSHR MERGED:          0
DTLB WRITEBACK MSHR MERGED:          0
DTLB TOTAL ACCESSES:   88571968 HITS:   87299583 MISSES:    1272385
DTLB LOAD ACCESSES:   66443685 HITS:   65177358 MISSES:    1266327
DTLB RFO ACCESSES:   22128283 HITS:   22122225 MISSES:       6058
DTLB PREFETCH ACCESSES:          0 HITS:          0 MISSES:          0
DTLB WRITEBACK ACCESSES:          0 HITS:          0 MISSES:          0
DTLB RQ ACCESS:  177579275
DTLB RQ TO_CACHE:   88571968
DTLB RQ MERGED:   89007307
DTLB RQ FORWARD:          0
DTLB WQ ACCESS:          0
DTLB WQ TO_CACHE:          0
DTLB WQ MERGED:          0
DTLB WQ FORWARD:          0
L1D TOTAL     ACCESS:  142103452  HIT:  136544402  MISS:    5559050
L1D LOAD      ACCESS:   61384518  HIT:   58281921  MISS:    3102597
L1D RFO       ACCESS:   27669008  HIT:   27587199  MISS:      81809
L1D PREFETCH  ACCESS:   53049926  HIT:   50675282  MISS:    2374644
L1D WRITEBACK ACCESS:          0  HIT:          0  MISS:          0
L1D PREFETCH  REQUESTED:   61670401  ISSUED:   60752239  USEFUL:     667754  USELESS:    1706895
L1D TOTAL MSHR MERGED:    1176262
L1D LOAD MSHR MERGED:     382846
L1D RFO MSHR MERGED:     164072
L1D PREFETCH MSHR MERGED:     629344
L1D WRITEBACK MSHR MERGED:          0
L1D TOTAL ACCESSES:  143377333 HITS:  136642021 MISSES:    6735312
L1D LOAD ACCESSES:   61670413 HITS:   58281933 MISSES:    3388480
L1D RFO ACCESSES:   27829288 HITS:   27587199 MISSES:     242089
L1D PREFETCH ACCESSES:   53877632 HITS:   50772889 MISSES:    3104743
L1D WRITEBACK ACCESSES:          0 HITS:          0 MISSES:          0
L1D RQ ACCESS:  149746309
L1D RQ TO_CACHE:   61670401
L1D RQ MERGED:   88075896
L1D RQ FORWARD:          0
L1D WQ ACCESS:   27832966
L1D WQ TO_CACHE:   27829288
L1D WQ MERGED:       3678
L1D WQ FORWARD:      97619
L1I TOTAL     ACCESS:   96222710  HIT:   96063444  MISS:     159266
L1I LOAD      ACCESS:   96222710  HIT:   96063444  MISS:     159266
L1I RFO       ACCESS:          0  HIT:          0  MISS:          0
L1I PREFETCH  ACCESS:          0  HIT:          0  MISS:          0
L1I WRITEBACK ACCESS:          0  HIT:          0  MISS:          0
L1I PREFETCH  REQUESTED:          0  ISSUED:          0  USEFUL:          0  USELESS:          0
L1I TOTAL MSHR MERGED:     130195
L1I LOAD MSHR MERGED:     130195
L1I RFO MSHR MERGED:          0
L1I PREFETCH MSHR MERGED:          0
L1I WRITEBACK MSHR MERGED:          0
L1I TOTAL ACCESSES:   96352905 HITS:   96063444 MISSES:     289461
L1I LOAD ACCESSES:   96352905 HITS:   96063444 MISSES:     289461
L1I RFO ACCESSES:          0 HITS:          0 MISSES:          0
L1I PREFETCH ACCESSES:          0 HITS:          0 MISSES:          0
L1I WRITEBACK ACCESSES:          0 HITS:          0 MISSES:          0
L1I RQ ACCESS:  500000245
L1I RQ TO_CACHE:   96352905
L1I RQ MERGED:  403647340
L1I RQ FORWARD:          0
L1I WQ ACCESS:          0
L1I WQ TO_CACHE:          0
L1I WQ MERGED:          0
L1I WQ FORWARD:          0
L2C TOTAL     ACCESS:    5911395  HIT:    3062718  MISS:    2848677
L2C LOAD      ACCESS:    3164890  HIT:    1583172  MISS:    1581718
L2C RFO       ACCESS:      77941  HIT:      45086  MISS:      32855
L2C PREFETCH  ACCESS:    2525035  HIT:    1296515  MISS:    1228520
L2C WRITEBACK ACCESS:     143529  HIT:     137945  MISS:       5584
L2C PREFETCH  REQUESTED:      52723  ISSUED:      52723  USEFUL:      18836  USELESS:    1209724
L2C TOTAL MSHR MERGED:       2157
L2C LOAD MSHR MERGED:        774
L2C RFO MSHR MERGED:          0
L2C PREFETCH MSHR MERGED:       1383
L2C WRITEBACK MSHR MERGED:          0
L2C TOTAL ACCESSES:    5913643 HITS:    3062804 MISSES:    2850839
L2C LOAD ACCESSES:    3164900 HITS:    1583182 MISSES:    1581718
L2C RFO ACCESSES:      78017 HITS:      45162 MISSES:      32855
L2C PREFETCH ACCESSES:    2527197 HITS:    1296515 MISSES:    1230682
L2C WRITEBACK ACCESSES:     143529 HITS:     137945 MISSES:       5584
L2C RQ ACCESS:    3242917
L2C RQ TO_CACHE:    3242831
L2C RQ MERGED:          0
L2C RQ FORWARD:          0
L2C WQ ACCESS:     143529
L2C WQ TO_CACHE:     143529
L2C WQ MERGED:          0
L2C WQ FORWARD:         86
LLC TOTAL     ACCESS:    2892633  HIT:    1901491  MISS:     991142
LLC LOAD      ACCESS:    1580944  HIT:    1151448  MISS:     429496
LLC RFO       ACCESS:      32845  HIT:      32520  MISS:        325
LLC PREFETCH  ACCESS:    1229299  HIT:     668519  MISS:     560780
LLC WRITEBACK ACCESS:      49545  HIT:      49004  MISS:        541
LLC PREFETCH  REQUESTED:          0  ISSUED:          0  USEFUL:       3171  USELESS:     557530
LLC TOTAL MSHR MERGED:          0
LLC LOAD MSHR MERGED:          0
LLC RFO MSHR MERGED:          0
LLC PREFETCH MSHR MERGED:          0
LLC WRITEBACK MSHR MERGED:          0
LLC TOTAL ACCESSES:    2892643 HITS:    1901501 MISSES:     991142
LLC LOAD ACCESSES:    1580944 HITS:    1151448 MISSES:     429496
LLC RFO ACCESSES:      32855 HITS:      32530 MISSES:        325
LLC PREFETCH ACCESSES:    1229299 HITS:     668519 MISSES:     560780
LLC WRITEBACK ACCESSES:      49545 HITS:      49004 MISSES:        541
LLC 0 RQ ACCESS:    1613799
LLC 0 RQ TO_CACHE:    1613789
LLC 0 RQ MERGED:          0
LLC 0 RQ FORWARD:          0
LLC WQ ACCESS:      49545
LLC WQ TO_CACHE:      49545
LLC WQ MERGED:          0
LLC WQ FORWARD:         10
Major fault: 0 Minor fault: 8460
CPU 0 L1D next line prefetcher final stats
CPU 0 L2C PC-based stride prefetcher final stats
All Misses: 1213904
All Hits: 2215324
SD Algo Stats - Switches: 0 SRR-Repls: 499803 BRR-Repls: 0

DRAM Statistics
 CHANNEL 0
 RQ ROW_BUFFER_HIT:     331518  ROW_BUFFER_MISS:     658913
 DBUS_CONGESTED:     313927
 WQ ROW_BUFFER_HIT:         97  ROW_BUFFER_MISS:        880  FULL:          0

 AVG_CONGESTED_CYCLE: 12
LOADS RETIRED: 153532848
INSTR RETIRED: 500000000
