
*** ChampSim Multicore Out-of-Order Simulator ***

Warmup Instructions: 100000000
Simulation Instructions: 500000000
Number of CPUs: 1
LLC sets: 2048
LLC ways: 16
Clean RRIP Policies: 2213220222132202 Dirty RRIP Policies: 1203120212031202 PSEL Width: 10 Track Set: 4294967295 PSEL Mask: 1 Demote Mask: 1043100410431004DS Algo: 0Window size: 0
Off-chip DRAM Size: 4096 MB Channels: 1 Width: 64-bit Data Rate: 1600 MT/s

CPU 0 runs /mnt/beegfs/iconst01/spec2017/Omnetpp.trace.gz
NOT SORTED
TRACE STRING: /mnt/beegfs/iconst01/spec2017/Omnetpp.trace.gz
SORTED
TRACE STRING: /mnt/beegfs/iconst01/spec2017/Omnetpp.trace.gz
INITIAL
TRACE STRING: /mnt/beegfs/iconst01/spec2017/Omnetpp.trace.gz

champsim_seed used: 739

CPU 0 L1D next line prefetcher
CPU 0 L2C IP-based stride prefetcher
Initialize DRRIP state
Assign rand_sets[0]: 454  LLC: 2048
rand_sets[0]: 454
Assign rand_sets[1]: 1662  LLC: 2048
rand_sets[1]: 1662
Assign rand_sets[2]: 1921  LLC: 2048
rand_sets[2]: 1921
Assign rand_sets[3]: 1131  LLC: 2048
rand_sets[3]: 1131
Assign rand_sets[4]: 331  LLC: 2048
rand_sets[4]: 331
Assign rand_sets[5]: 1531  LLC: 2048
rand_sets[5]: 1531
Assign rand_sets[6]: 482  LLC: 2048
rand_sets[6]: 482
Assign rand_sets[7]: 1275  LLC: 2048
rand_sets[7]: 1275
Assign rand_sets[8]: 1876  LLC: 2048
rand_sets[8]: 1876
Assign rand_sets[9]: 2038  LLC: 2048
rand_sets[9]: 2038
Assign rand_sets[10]: 701  LLC: 2048
rand_sets[10]: 701
Assign rand_sets[11]: 479  LLC: 2048
rand_sets[11]: 479
Assign rand_sets[12]: 892  LLC: 2048
rand_sets[12]: 892
Assign rand_sets[13]: 1820  LLC: 2048
rand_sets[13]: 1820
Assign rand_sets[14]: 1505  LLC: 2048
rand_sets[14]: 1505
Assign rand_sets[15]: 1159  LLC: 2048
rand_sets[15]: 1159
Assign rand_sets[16]: 513  LLC: 2048
rand_sets[16]: 513
Assign rand_sets[17]: 703  LLC: 2048
rand_sets[17]: 703
Assign rand_sets[18]: 561  LLC: 2048
rand_sets[18]: 561
Assign rand_sets[19]: 990  LLC: 2048
rand_sets[19]: 990
Assign rand_sets[20]: 342  LLC: 2048
rand_sets[20]: 342
Assign rand_sets[21]: 882  LLC: 2048
rand_sets[21]: 882
Assign rand_sets[22]: 15  LLC: 2048
rand_sets[22]: 15
Assign rand_sets[23]: 71  LLC: 2048
rand_sets[23]: 71
Assign rand_sets[24]: 1127  LLC: 2048
rand_sets[24]: 1127
Assign rand_sets[25]: 1382  LLC: 2048
rand_sets[25]: 1382
Assign rand_sets[26]: 647  LLC: 2048
rand_sets[26]: 647
Assign rand_sets[27]: 857  LLC: 2048
rand_sets[27]: 857
Assign rand_sets[28]: 1450  LLC: 2048
rand_sets[28]: 1450
Assign rand_sets[29]: 1160  LLC: 2048
rand_sets[29]: 1160
Assign rand_sets[30]: 1852  LLC: 2048
rand_sets[30]: 1852
Assign rand_sets[31]: 1881  LLC: 2048
rand_sets[31]: 1881
Assign rand_sets[32]: 1770  LLC: 2048
rand_sets[32]: 1770
Assign rand_sets[33]: 1622  LLC: 2048
rand_sets[33]: 1622
Assign rand_sets[34]: 275  LLC: 2048
rand_sets[34]: 275
Assign rand_sets[35]: 635  LLC: 2048
rand_sets[35]: 635
Assign rand_sets[36]: 466  LLC: 2048
rand_sets[36]: 466
Assign rand_sets[37]: 1413  LLC: 2048
rand_sets[37]: 1413
Assign rand_sets[38]: 417  LLC: 2048
rand_sets[38]: 417
Assign rand_sets[39]: 472  LLC: 2048
rand_sets[39]: 472
Assign rand_sets[40]: 1340  LLC: 2048
rand_sets[40]: 1340
Assign rand_sets[41]: 852  LLC: 2048
rand_sets[41]: 852
Assign rand_sets[42]: 1365  LLC: 2048
rand_sets[42]: 1365
Assign rand_sets[43]: 47  LLC: 2048
rand_sets[43]: 47
Assign rand_sets[44]: 823  LLC: 2048
rand_sets[44]: 823
Assign rand_sets[45]: 686  LLC: 2048
rand_sets[45]: 686
Assign rand_sets[46]: 1637  LLC: 2048
rand_sets[46]: 1637
Assign rand_sets[47]: 1115  LLC: 2048
rand_sets[47]: 1115
Assign rand_sets[48]: 986  LLC: 2048
rand_sets[48]: 986
Assign rand_sets[49]: 258  LLC: 2048
rand_sets[49]: 258
Assign rand_sets[50]: 633  LLC: 2048
rand_sets[50]: 633
Assign rand_sets[51]: 920  LLC: 2048
rand_sets[51]: 920
Assign rand_sets[52]: 204  LLC: 2048
rand_sets[52]: 204
Assign rand_sets[53]: 227  LLC: 2048
rand_sets[53]: 227
Assign rand_sets[54]: 1818  LLC: 2048
rand_sets[54]: 1818
Assign rand_sets[55]: 886  LLC: 2048
rand_sets[55]: 886
Assign rand_sets[56]: 1422  LLC: 2048
rand_sets[56]: 1422
Assign rand_sets[57]: 607  LLC: 2048
rand_sets[57]: 607
Assign rand_sets[58]: 217  LLC: 2048
rand_sets[58]: 217
Assign rand_sets[59]: 1945  LLC: 2048
rand_sets[59]: 1945
Assign rand_sets[60]: 143  LLC: 2048
rand_sets[60]: 143
Assign rand_sets[61]: 1311  LLC: 2048
rand_sets[61]: 1311
Assign rand_sets[62]: 319  LLC: 2048
rand_sets[62]: 319
Assign rand_sets[63]: 1846  LLC: 2048
rand_sets[63]: 1846
 CLEAN-RRIP-POLICY-1: 2-2-1-3-2-2-0-2- CLEAN-RRIP-POLICY-2: 2-2-1-3-2-2-0-2-
 DIRTY-RRIP-POLICY-1: 1-2-0-3-1-2-0-2- DIRTY-RRIP-POLICY-2: 1-2-0-3-1-2-0-2-
 PSEL width: 10
Heartbeat CPU 0 instructions: 10000000 cycles: 7319993 heartbeat IPC: 1.36612 cumulative IPC: 1.36612 (Simulation time: 0 hr 0 min 20 sec) 
Heartbeat CPU 0 instructions: 20000000 cycles: 14623913 heartbeat IPC: 1.36913 cumulative IPC: 1.36762 (Simulation time: 0 hr 0 min 40 sec) 
Heartbeat CPU 0 instructions: 30000003 cycles: 21925455 heartbeat IPC: 1.36957 cumulative IPC: 1.36827 (Simulation time: 0 hr 1 min 0 sec) 
Heartbeat CPU 0 instructions: 40000000 cycles: 29213722 heartbeat IPC: 1.37207 cumulative IPC: 1.36922 (Simulation time: 0 hr 1 min 21 sec) 
Heartbeat CPU 0 instructions: 50000000 cycles: 36490339 heartbeat IPC: 1.37426 cumulative IPC: 1.37023 (Simulation time: 0 hr 1 min 41 sec) 
Heartbeat CPU 0 instructions: 60000000 cycles: 43770466 heartbeat IPC: 1.3736 cumulative IPC: 1.37079 (Simulation time: 0 hr 2 min 2 sec) 
Heartbeat CPU 0 instructions: 70000001 cycles: 51055938 heartbeat IPC: 1.37259 cumulative IPC: 1.37105 (Simulation time: 0 hr 2 min 23 sec) 
Heartbeat CPU 0 instructions: 80000000 cycles: 58331074 heartbeat IPC: 1.37454 cumulative IPC: 1.37148 (Simulation time: 0 hr 2 min 43 sec) 
Heartbeat CPU 0 instructions: 90000000 cycles: 65637528 heartbeat IPC: 1.36865 cumulative IPC: 1.37117 (Simulation time: 0 hr 3 min 4 sec) 
Heartbeat CPU 0 instructions: 100000000 cycles: 72929767 heartbeat IPC: 1.37132 cumulative IPC: 1.37118 (Simulation time: 0 hr 3 min 24 sec) 

Warmup complete CPU 0 instructions: 100000002 cycles: 72929768 (Simulation time: 0 hr 3 min 24 sec) 

Heartbeat CPU 0 instructions: 110000002 cycles: 113445276 heartbeat IPC: 0.246819 cumulative IPC: 0.246819 (Simulation time: 0 hr 4 min 5 sec) 
Heartbeat CPU 0 instructions: 120000000 cycles: 153645920 heartbeat IPC: 0.248752 cumulative IPC: 0.247782 (Simulation time: 0 hr 4 min 45 sec) 
Heartbeat CPU 0 instructions: 130000002 cycles: 194068789 heartbeat IPC: 0.247385 cumulative IPC: 0.247649 (Simulation time: 0 hr 5 min 25 sec) 
Heartbeat CPU 0 instructions: 140000000 cycles: 234583728 heartbeat IPC: 0.246822 cumulative IPC: 0.247442 (Simulation time: 0 hr 6 min 5 sec) 
Heartbeat CPU 0 instructions: 150000002 cycles: 274688598 heartbeat IPC: 0.249346 cumulative IPC: 0.247821 (Simulation time: 0 hr 6 min 45 sec) 
Heartbeat CPU 0 instructions: 160000000 cycles: 314822654 heartbeat IPC: 0.249165 cumulative IPC: 0.248044 (Simulation time: 0 hr 7 min 26 sec) 
Heartbeat CPU 0 instructions: 170000001 cycles: 354189160 heartbeat IPC: 0.254023 cumulative IPC: 0.248881 (Simulation time: 0 hr 8 min 5 sec) 
Heartbeat CPU 0 instructions: 180000000 cycles: 394286895 heartbeat IPC: 0.249391 cumulative IPC: 0.248944 (Simulation time: 0 hr 8 min 45 sec) 
Heartbeat CPU 0 instructions: 190000002 cycles: 434372597 heartbeat IPC: 0.249466 cumulative IPC: 0.249002 (Simulation time: 0 hr 9 min 25 sec) 
Heartbeat CPU 0 instructions: 200000000 cycles: 475690031 heartbeat IPC: 0.242029 cumulative IPC: 0.248287 (Simulation time: 0 hr 10 min 5 sec) 
Heartbeat CPU 0 instructions: 210000003 cycles: 515858160 heartbeat IPC: 0.248954 cumulative IPC: 0.248347 (Simulation time: 0 hr 10 min 45 sec) 
Heartbeat CPU 0 instructions: 220000000 cycles: 556213285 heartbeat IPC: 0.2478 cumulative IPC: 0.248301 (Simulation time: 0 hr 11 min 26 sec) 
Heartbeat CPU 0 instructions: 230000000 cycles: 596573108 heartbeat IPC: 0.247771 cumulative IPC: 0.248261 (Simulation time: 0 hr 12 min 6 sec) 
Heartbeat CPU 0 instructions: 240000000 cycles: 636654917 heartbeat IPC: 0.24949 cumulative IPC: 0.248348 (Simulation time: 0 hr 12 min 45 sec) 
Heartbeat CPU 0 instructions: 250000000 cycles: 676756615 heartbeat IPC: 0.249366 cumulative IPC: 0.248416 (Simulation time: 0 hr 13 min 25 sec) 
Heartbeat CPU 0 instructions: 260000000 cycles: 716966266 heartbeat IPC: 0.248697 cumulative IPC: 0.248433 (Simulation time: 0 hr 14 min 4 sec) 
Heartbeat CPU 0 instructions: 270000000 cycles: 757238113 heartbeat IPC: 0.248312 cumulative IPC: 0.248426 (Simulation time: 0 hr 14 min 44 sec) 
Heartbeat CPU 0 instructions: 280000000 cycles: 797880689 heartbeat IPC: 0.246047 cumulative IPC: 0.248293 (Simulation time: 0 hr 15 min 23 sec) 
Heartbeat CPU 0 instructions: 290000001 cycles: 837731673 heartbeat IPC: 0.250935 cumulative IPC: 0.24843 (Simulation time: 0 hr 16 min 2 sec) 
Heartbeat CPU 0 instructions: 300000000 cycles: 878244861 heartbeat IPC: 0.246833 cumulative IPC: 0.24835 (Simulation time: 0 hr 16 min 41 sec) 
Heartbeat CPU 0 instructions: 310000000 cycles: 918729112 heartbeat IPC: 0.24701 cumulative IPC: 0.248286 (Simulation time: 0 hr 17 min 20 sec) 
Heartbeat CPU 0 instructions: 320000000 cycles: 958930131 heartbeat IPC: 0.24875 cumulative IPC: 0.248307 (Simulation time: 0 hr 17 min 57 sec) 
Heartbeat CPU 0 instructions: 330000000 cycles: 999105114 heartbeat IPC: 0.248911 cumulative IPC: 0.248333 (Simulation time: 0 hr 18 min 34 sec) 
Heartbeat CPU 0 instructions: 340000000 cycles: 1039916219 heartbeat IPC: 0.245031 cumulative IPC: 0.248194 (Simulation time: 0 hr 19 min 12 sec) 
Heartbeat CPU 0 instructions: 350000001 cycles: 1080195051 heartbeat IPC: 0.248269 cumulative IPC: 0.248197 (Simulation time: 0 hr 19 min 48 sec) 
Heartbeat CPU 0 instructions: 360000000 cycles: 1120748520 heartbeat IPC: 0.246588 cumulative IPC: 0.248135 (Simulation time: 0 hr 20 min 25 sec) 
Heartbeat CPU 0 instructions: 370000000 cycles: 1160338180 heartbeat IPC: 0.252591 cumulative IPC: 0.248297 (Simulation time: 0 hr 21 min 2 sec) 
Heartbeat CPU 0 instructions: 380000000 cycles: 1200860387 heartbeat IPC: 0.246778 cumulative IPC: 0.248242 (Simulation time: 0 hr 21 min 39 sec) 
Heartbeat CPU 0 instructions: 390000001 cycles: 1240939955 heartbeat IPC: 0.249504 cumulative IPC: 0.248286 (Simulation time: 0 hr 22 min 15 sec) 
Heartbeat CPU 0 instructions: 400000000 cycles: 1281089352 heartbeat IPC: 0.24907 cumulative IPC: 0.248312 (Simulation time: 0 hr 22 min 52 sec) 
Heartbeat CPU 0 instructions: 410000000 cycles: 1321070961 heartbeat IPC: 0.250115 cumulative IPC: 0.248369 (Simulation time: 0 hr 23 min 29 sec) 
Heartbeat CPU 0 instructions: 420000000 cycles: 1361114845 heartbeat IPC: 0.249726 cumulative IPC: 0.248412 (Simulation time: 0 hr 24 min 5 sec) 
Heartbeat CPU 0 instructions: 430000000 cycles: 1401189851 heartbeat IPC: 0.249532 cumulative IPC: 0.248445 (Simulation time: 0 hr 24 min 42 sec) 
Heartbeat CPU 0 instructions: 440000000 cycles: 1441331043 heartbeat IPC: 0.249121 cumulative IPC: 0.248465 (Simulation time: 0 hr 25 min 18 sec) 
Heartbeat CPU 0 instructions: 450000002 cycles: 1481327191 heartbeat IPC: 0.250024 cumulative IPC: 0.248509 (Simulation time: 0 hr 25 min 55 sec) 
Heartbeat CPU 0 instructions: 460000000 cycles: 1520781618 heartbeat IPC: 0.253457 cumulative IPC: 0.248644 (Simulation time: 0 hr 26 min 31 sec) 
Heartbeat CPU 0 instructions: 470000000 cycles: 1561070062 heartbeat IPC: 0.24821 cumulative IPC: 0.248632 (Simulation time: 0 hr 27 min 8 sec) 
Heartbeat CPU 0 instructions: 480000000 cycles: 1601037402 heartbeat IPC: 0.250204 cumulative IPC: 0.248674 (Simulation time: 0 hr 27 min 44 sec) 
Heartbeat CPU 0 instructions: 490000001 cycles: 1641129837 heartbeat IPC: 0.249424 cumulative IPC: 0.248693 (Simulation time: 0 hr 28 min 21 sec) 
Heartbeat CPU 0 instructions: 500000000 cycles: 1681445772 heartbeat IPC: 0.248041 cumulative IPC: 0.248676 (Simulation time: 0 hr 28 min 57 sec) 
Heartbeat CPU 0 instructions: 510000000 cycles: 1721184648 heartbeat IPC: 0.251643 cumulative IPC: 0.248748 (Simulation time: 0 hr 29 min 32 sec) 
Heartbeat CPU 0 instructions: 520000000 cycles: 1761704546 heartbeat IPC: 0.246792 cumulative IPC: 0.248701 (Simulation time: 0 hr 30 min 8 sec) 
Heartbeat CPU 0 instructions: 530000000 cycles: 1801681684 heartbeat IPC: 0.250143 cumulative IPC: 0.248734 (Simulation time: 0 hr 30 min 42 sec) 
Heartbeat CPU 0 instructions: 540000000 cycles: 1841420329 heartbeat IPC: 0.251644 cumulative IPC: 0.2488 (Simulation time: 0 hr 31 min 16 sec) 
Heartbeat CPU 0 instructions: 550000001 cycles: 1881891707 heartbeat IPC: 0.247088 cumulative IPC: 0.248761 (Simulation time: 0 hr 31 min 51 sec) 
Heartbeat CPU 0 instructions: 560000000 cycles: 1922449133 heartbeat IPC: 0.246564 cumulative IPC: 0.248713 (Simulation time: 0 hr 32 min 25 sec) 
Heartbeat CPU 0 instructions: 570000003 cycles: 1962976506 heartbeat IPC: 0.246747 cumulative IPC: 0.248671 (Simulation time: 0 hr 33 min 0 sec) 
Heartbeat CPU 0 instructions: 580000000 cycles: 2003298192 heartbeat IPC: 0.248005 cumulative IPC: 0.248657 (Simulation time: 0 hr 33 min 34 sec) 
Heartbeat CPU 0 instructions: 590000001 cycles: 2044054258 heartbeat IPC: 0.245362 cumulative IPC: 0.248589 (Simulation time: 0 hr 34 min 9 sec) 
Heartbeat CPU 0 instructions: 600000000 cycles: 2084607836 heartbeat IPC: 0.246587 cumulative IPC: 0.248549 (Simulation time: 0 hr 34 min 43 sec) 
Finished CPU 0 instructions: 500000000 cycles: 2011678076 cumulative IPC: 0.248549 (Simulation time: 0 hr 34 min 43 sec) 

CPU 0 Branch Prediction Accuracy: 96.2429% MPKI: 5.85335
Number of Branches: 77897976 Number of Mispredictions: 2926674
Number of LOAD Instructions: 193081861
Number of LOAD Instructions (ROI): 193081861
Number of STORE Instructions: 97310749
Number of STORE Instructions (ROI): 97310749
Total Destination Memory Operands: 106368027
Total Destination Memory Operands (ROI): 106368027
Total Source Memory Operands: 193081861
Total Source Memory Operands (ROI): 193081861
Number of DEPENDED LOADS: 6434902
Number of DEPENDED LOADS (ROI): 6434902
Number of SQ_ADDED: 106367982
Number of SQ_ADDED (ROI): 106367982
Number of LQ_ADDED: 427308478
Number of LQ_ADDED (ROI): 427308478
Number of Instructions read from trace: 600000256

ChampSim completed all CPUs

Region of Interest Statistics

CPU 0 cumulative IPC: 0.248549 instructions: 500000000 cycles: 2011678076
ITLB TOTAL     ACCESS:  151279434  HIT:  151263603  MISS:      15831
ITLB LOAD      ACCESS:  151279434  HIT:  151263603  MISS:      15831
ITLB RFO       ACCESS:          0  HIT:          0  MISS:          0
ITLB PREFETCH  ACCESS:          0  HIT:          0  MISS:          0
ITLB WRITEBACK ACCESS:          0  HIT:          0  MISS:          0
ITLB PREFETCH  REQUESTED:          0  ISSUED:          0  USEFUL:          0  USELESS:          0
ITLB TOTAL MSHR MERGED:      17453
ITLB LOAD MSHR MERGED:      17453
ITLB RFO MSHR MERGED:          0
ITLB PREFETCH MSHR MERGED:          0
ITLB WRITEBACK MSHR MERGED:          0
ITLB TOTAL ACCESSES:  151296887 HITS:  151263603 MISSES:      33284
ITLB LOAD ACCESSES:  151296887 HITS:  151263603 MISSES:      33284
ITLB RFO ACCESSES:          0 HITS:          0 MISSES:          0
ITLB PREFETCH ACCESSES:          0 HITS:          0 MISSES:          0
ITLB WRITEBACK ACCESSES:          0 HITS:          0 MISSES:          0
ITLB RQ ACCESS:  500000242
ITLB RQ TO_CACHE:  151296887
ITLB RQ MERGED:  348703355
ITLB RQ FORWARD:          0
ITLB WQ ACCESS:          0
ITLB WQ TO_CACHE:          0
ITLB WQ MERGED:          0
ITLB WQ FORWARD:          0
DTLB TOTAL     ACCESS:  199567336  HIT:  194188282  MISS:    5379054
DTLB LOAD      ACCESS:  123141286  HIT:  118122714  MISS:    5018572
DTLB RFO       ACCESS:   76426050  HIT:   76065568  MISS:     360482
DTLB PREFETCH  ACCESS:          0  HIT:          0  MISS:          0
DTLB WRITEBACK ACCESS:          0  HIT:          0  MISS:          0
DTLB PREFETCH  REQUESTED:          0  ISSUED:          0  USEFUL:          0  USELESS:          0
DTLB TOTAL MSHR MERGED:     917523
DTLB LOAD MSHR MERGED:     807622
DTLB RFO MSHR MERGED:     109901
DTLB PREFETCH MSHR MERGED:          0
DTLB WRITEBACK MSHR MERGED:          0
DTLB TOTAL ACCESSES:  200484859 HITS:  194188282 MISSES:    6296577
DTLB LOAD ACCESSES:  123948908 HITS:  118122714 MISSES:    5826194
DTLB RFO ACCESSES:   76535951 HITS:   76065568 MISSES:     470383
DTLB PREFETCH ACCESSES:          0 HITS:          0 MISSES:          0
DTLB WRITEBACK ACCESSES:          0 HITS:          0 MISSES:          0
DTLB RQ ACCESS:  243890525
DTLB RQ TO_CACHE:  200484859
DTLB RQ MERGED:   43405666
DTLB RQ FORWARD:          0
DTLB WQ ACCESS:          0
DTLB WQ TO_CACHE:          0
DTLB WQ MERGED:          0
DTLB WQ FORWARD:          0
L1D TOTAL     ACCESS:  335635893  HIT:  317539590  MISS:   18096303
L1D LOAD      ACCESS:  127704129  HIT:  118761856  MISS:    8942273
L1D RFO       ACCESS:   87076302  HIT:   86296519  MISS:     779783
L1D PREFETCH  ACCESS:  120855462  HIT:  112481215  MISS:    8374247
L1D WRITEBACK ACCESS:          0  HIT:          0  MISS:          0
L1D PREFETCH  REQUESTED:  128483272  ISSUED:  126885239  USEFUL:    1743851  USELESS:    6630407
L1D TOTAL MSHR MERGED:    3830968
L1D LOAD MSHR MERGED:     942105
L1D RFO MSHR MERGED:    1065948
L1D PREFETCH MSHR MERGED:    1822915
L1D WRITEBACK MSHR MERGED:          0
L1D TOTAL ACCESSES:  339553493 HITS:  317626222 MISSES:   21927271
L1D LOAD ACCESSES:  128483741 HITS:  118762325 MISSES:    9721416
L1D RFO ACCESSES:   88082844 HITS:   86296519 MISSES:    1786325
L1D PREFETCH ACCESSES:  122986908 HITS:  112567378 MISSES:   10419530
L1D WRITEBACK ACCESSES:          0 HITS:          0 MISSES:          0
L1D RQ ACCESS:  155259140
L1D RQ TO_CACHE:  128483272
L1D RQ MERGED:   26775399
L1D RQ FORWARD:          0
L1D WQ ACCESS:   88631385
L1D WQ TO_CACHE:   88082843
L1D WQ MERGED:     548542
L1D WQ FORWARD:      86632
L1I TOTAL     ACCESS:  175580557  HIT:  175314092  MISS:     266465
L1I LOAD      ACCESS:  175580557  HIT:  175314092  MISS:     266465
L1I RFO       ACCESS:          0  HIT:          0  MISS:          0
L1I PREFETCH  ACCESS:          0  HIT:          0  MISS:          0
L1I WRITEBACK ACCESS:          0  HIT:          0  MISS:          0
L1I PREFETCH  REQUESTED:          0  ISSUED:          0  USEFUL:          0  USELESS:          0
L1I TOTAL MSHR MERGED:     213072
L1I LOAD MSHR MERGED:     213072
L1I RFO MSHR MERGED:          0
L1I PREFETCH MSHR MERGED:          0
L1I WRITEBACK MSHR MERGED:          0
L1I TOTAL ACCESSES:  175793629 HITS:  175314092 MISSES:     479537
L1I LOAD ACCESSES:  175793629 HITS:  175314092 MISSES:     479537
L1I RFO ACCESSES:          0 HITS:          0 MISSES:          0
L1I PREFETCH ACCESSES:          0 HITS:          0 MISSES:          0
L1I WRITEBACK ACCESSES:          0 HITS:          0 MISSES:          0
L1I RQ ACCESS:  500000242
L1I RQ TO_CACHE:  175793629
L1I RQ MERGED:  324206613
L1I RQ FORWARD:          0
L1I WQ ACCESS:          0
L1I WQ TO_CACHE:          0
L1I WQ MERGED:          0
L1I WQ FORWARD:          0
L2C TOTAL     ACCESS:   23738847  HIT:   12113092  MISS:   11625755
L2C LOAD      ACCESS:    9044596  HIT:    3564997  MISS:    5479599
L2C RFO       ACCESS:     720321  HIT:     130147  MISS:     590174
L2C PREFETCH  ACCESS:    8613610  HIT:    3086326  MISS:    5527284
L2C WRITEBACK ACCESS:    5360320  HIT:    5331622  MISS:      28698
L2C PREFETCH  REQUESTED:      18042  ISSUED:      18042  USEFUL:     323006  USELESS:    5204452
L2C TOTAL MSHR MERGED:         24
L2C LOAD MSHR MERGED:          3
L2C RFO MSHR MERGED:          0
L2C PREFETCH MSHR MERGED:         21
L2C WRITEBACK MSHR MERGED:          0
L2C TOTAL ACCESSES:   23740669 HITS:   12114884 MISSES:   11625785
L2C LOAD ACCESSES:    9045776 HITS:    3566177 MISSES:    5479599
L2C RFO ACCESSES:     720377 HITS:     130203 MISSES:     590174
L2C PREFETCH ACCESSES:    8614196 HITS:    3086882 MISSES:    5527314
L2C WRITEBACK ACCESSES:    5360320 HITS:    5331622 MISSES:      28698
L2C RQ ACCESS:    9766153
L2C RQ TO_CACHE:    9764917
L2C RQ MERGED:          0
L2C RQ FORWARD:          0
L2C WQ ACCESS:    5360320
L2C WQ TO_CACHE:    5360320
L2C WQ MERGED:          0
L2C WQ FORWARD:       1792
LLC TOTAL     ACCESS:   15448668  HIT:    6671444  MISS:    8777224
LLC LOAD      ACCESS:    5479566  HIT:    2035625  MISS:    3443941
LLC RFO       ACCESS:     590172  HIT:     284057  MISS:     306115
LLC PREFETCH  ACCESS:    5527276  HIT:    1117320  MISS:    4409956
LLC WRITEBACK ACCESS:    3851654  HIT:    3234442  MISS:     617212
LLC PREFETCH  REQUESTED:          0  ISSUED:          0  USEFUL:      25083  USELESS:    4385421
LLC TOTAL MSHR MERGED:          0
LLC LOAD MSHR MERGED:          0
LLC RFO MSHR MERGED:          0
LLC PREFETCH MSHR MERGED:          0
LLC WRITEBACK MSHR MERGED:          0
LLC TOTAL ACCESSES:   15448717 HITS:    6671493 MISSES:    8777224
LLC LOAD ACCESSES:    5479596 HITS:    2035655 MISSES:    3443941
LLC RFO ACCESSES:     590174 HITS:     284059 MISSES:     306115
LLC PREFETCH ACCESSES:    5527293 HITS:    1117337 MISSES:    4409956
LLC WRITEBACK ACCESSES:    3851654 HITS:    3234442 MISSES:     617212
LLC 0 RQ ACCESS:    6069770
LLC 0 RQ TO_CACHE:    6069738
LLC 0 RQ MERGED:          0
LLC 0 RQ FORWARD:          0
LLC WQ ACCESS:    3851654
LLC WQ TO_CACHE:    3851654
LLC WQ MERGED:          0
LLC WQ FORWARD:         49
Major fault: 0 Minor fault: 44814
CPU 0 L1D next line prefetcher final stats
CPU 0 L2C PC-based stride prefetcher final stats
All Misses: 10614405
All Hits: 8006760
SD Algo Stats - Switches: 0 SRR-Repls: 3930846 BRR-Repls: 0

DRAM Statistics
 CHANNEL 0
 RQ ROW_BUFFER_HIT:    1447254  ROW_BUFFER_MISS:    6711426
 DBUS_CONGESTED:    5451407
 WQ ROW_BUFFER_HIT:     171099  ROW_BUFFER_MISS:    2061931  FULL:          0

 AVG_CONGESTED_CYCLE: 13
LOADS RETIRED: 160808997
INSTR RETIRED: 500000000
