
*** ChampSim Multicore Out-of-Order Simulator ***

Warmup Instructions: 100000000
Simulation Instructions: 500000000
Number of CPUs: 1
LLC sets: 2048
LLC ways: 16
Clean RRIP Policies: 122112101221121 Dirty RRIP Policies: 2102110121021101 PSEL Width: 10 Track Set: 4294967295 PSEL Mask: 1 Demote Mask: 1442321214423212DS Algo: 0Window size: 0
Off-chip DRAM Size: 4096 MB Channels: 1 Width: 64-bit Data Rate: 1600 MT/s

CPU 0 runs /mnt/beegfs/iconst01/spec2017/Gcc.trace.gz
NOT SORTED
TRACE STRING: /mnt/beegfs/iconst01/spec2017/Gcc.trace.gz
SORTED
TRACE STRING: /mnt/beegfs/iconst01/spec2017/Gcc.trace.gz
INITIAL
TRACE STRING: /mnt/beegfs/iconst01/spec2017/Gcc.trace.gz

champsim_seed used: 269

CPU 0 L1D next line prefetcher
CPU 0 L2C IP-based stride prefetcher
Initialize DRRIP state
Assign rand_sets[0]: 454  LLC: 2048
rand_sets[0]: 454
Assign rand_sets[1]: 1662  LLC: 2048
rand_sets[1]: 1662
Assign rand_sets[2]: 1921  LLC: 2048
rand_sets[2]: 1921
Assign rand_sets[3]: 1131  LLC: 2048
rand_sets[3]: 1131
Assign rand_sets[4]: 331  LLC: 2048
rand_sets[4]: 331
Assign rand_sets[5]: 1531  LLC: 2048
rand_sets[5]: 1531
Assign rand_sets[6]: 482  LLC: 2048
rand_sets[6]: 482
Assign rand_sets[7]: 1275  LLC: 2048
rand_sets[7]: 1275
Assign rand_sets[8]: 1876  LLC: 2048
rand_sets[8]: 1876
Assign rand_sets[9]: 2038  LLC: 2048
rand_sets[9]: 2038
Assign rand_sets[10]: 701  LLC: 2048
rand_sets[10]: 701
Assign rand_sets[11]: 479  LLC: 2048
rand_sets[11]: 479
Assign rand_sets[12]: 892  LLC: 2048
rand_sets[12]: 892
Assign rand_sets[13]: 1820  LLC: 2048
rand_sets[13]: 1820
Assign rand_sets[14]: 1505  LLC: 2048
rand_sets[14]: 1505
Assign rand_sets[15]: 1159  LLC: 2048
rand_sets[15]: 1159
Assign rand_sets[16]: 513  LLC: 2048
rand_sets[16]: 513
Assign rand_sets[17]: 703  LLC: 2048
rand_sets[17]: 703
Assign rand_sets[18]: 561  LLC: 2048
rand_sets[18]: 561
Assign rand_sets[19]: 990  LLC: 2048
rand_sets[19]: 990
Assign rand_sets[20]: 342  LLC: 2048
rand_sets[20]: 342
Assign rand_sets[21]: 882  LLC: 2048
rand_sets[21]: 882
Assign rand_sets[22]: 15  LLC: 2048
rand_sets[22]: 15
Assign rand_sets[23]: 71  LLC: 2048
rand_sets[23]: 71
Assign rand_sets[24]: 1127  LLC: 2048
rand_sets[24]: 1127
Assign rand_sets[25]: 1382  LLC: 2048
rand_sets[25]: 1382
Assign rand_sets[26]: 647  LLC: 2048
rand_sets[26]: 647
Assign rand_sets[27]: 857  LLC: 2048
rand_sets[27]: 857
Assign rand_sets[28]: 1450  LLC: 2048
rand_sets[28]: 1450
Assign rand_sets[29]: 1160  LLC: 2048
rand_sets[29]: 1160
Assign rand_sets[30]: 1852  LLC: 2048
rand_sets[30]: 1852
Assign rand_sets[31]: 1881  LLC: 2048
rand_sets[31]: 1881
Assign rand_sets[32]: 1770  LLC: 2048
rand_sets[32]: 1770
Assign rand_sets[33]: 1622  LLC: 2048
rand_sets[33]: 1622
Assign rand_sets[34]: 275  LLC: 2048
rand_sets[34]: 275
Assign rand_sets[35]: 635  LLC: 2048
rand_sets[35]: 635
Assign rand_sets[36]: 466  LLC: 2048
rand_sets[36]: 466
Assign rand_sets[37]: 1413  LLC: 2048
rand_sets[37]: 1413
Assign rand_sets[38]: 417  LLC: 2048
rand_sets[38]: 417
Assign rand_sets[39]: 472  LLC: 2048
rand_sets[39]: 472
Assign rand_sets[40]: 1340  LLC: 2048
rand_sets[40]: 1340
Assign rand_sets[41]: 852  LLC: 2048
rand_sets[41]: 852
Assign rand_sets[42]: 1365  LLC: 2048
rand_sets[42]: 1365
Assign rand_sets[43]: 47  LLC: 2048
rand_sets[43]: 47
Assign rand_sets[44]: 823  LLC: 2048
rand_sets[44]: 823
Assign rand_sets[45]: 686  LLC: 2048
rand_sets[45]: 686
Assign rand_sets[46]: 1637  LLC: 2048
rand_sets[46]: 1637
Assign rand_sets[47]: 1115  LLC: 2048
rand_sets[47]: 1115
Assign rand_sets[48]: 986  LLC: 2048
rand_sets[48]: 986
Assign rand_sets[49]: 258  LLC: 2048
rand_sets[49]: 258
Assign rand_sets[50]: 633  LLC: 2048
rand_sets[50]: 633
Assign rand_sets[51]: 920  LLC: 2048
rand_sets[51]: 920
Assign rand_sets[52]: 204  LLC: 2048
rand_sets[52]: 204
Assign rand_sets[53]: 227  LLC: 2048
rand_sets[53]: 227
Assign rand_sets[54]: 1818  LLC: 2048
rand_sets[54]: 1818
Assign rand_sets[55]: 886  LLC: 2048
rand_sets[55]: 886
Assign rand_sets[56]: 1422  LLC: 2048
rand_sets[56]: 1422
Assign rand_sets[57]: 607  LLC: 2048
rand_sets[57]: 607
Assign rand_sets[58]: 217  LLC: 2048
rand_sets[58]: 217
Assign rand_sets[59]: 1945  LLC: 2048
rand_sets[59]: 1945
Assign rand_sets[60]: 143  LLC: 2048
rand_sets[60]: 143
Assign rand_sets[61]: 1311  LLC: 2048
rand_sets[61]: 1311
Assign rand_sets[62]: 319  LLC: 2048
rand_sets[62]: 319
Assign rand_sets[63]: 1846  LLC: 2048
rand_sets[63]: 1846
 CLEAN-RRIP-POLICY-1: 0-1-2-2-1-1-2-1- CLEAN-RRIP-POLICY-2: 0-1-2-2-1-1-2-1-
 DIRTY-RRIP-POLICY-1: 2-1-0-2-1-1-0-1- DIRTY-RRIP-POLICY-2: 2-1-0-2-1-1-0-1-
 PSEL width: 10
Heartbeat CPU 0 instructions: 10000001 cycles: 7315924 heartbeat IPC: 1.36688 cumulative IPC: 1.36688 (Simulation time: 0 hr 0 min 15 sec) 
Heartbeat CPU 0 instructions: 20000000 cycles: 14309292 heartbeat IPC: 1.42993 cumulative IPC: 1.39769 (Simulation time: 0 hr 0 min 30 sec) 
Heartbeat CPU 0 instructions: 30000001 cycles: 21023780 heartbeat IPC: 1.48932 cumulative IPC: 1.42696 (Simulation time: 0 hr 0 min 46 sec) 
Heartbeat CPU 0 instructions: 40000000 cycles: 27484875 heartbeat IPC: 1.54773 cumulative IPC: 1.45535 (Simulation time: 0 hr 1 min 2 sec) 
Heartbeat CPU 0 instructions: 50000001 cycles: 33586599 heartbeat IPC: 1.63888 cumulative IPC: 1.48869 (Simulation time: 0 hr 1 min 18 sec) 
Heartbeat CPU 0 instructions: 60000000 cycles: 40067985 heartbeat IPC: 1.54288 cumulative IPC: 1.49745 (Simulation time: 0 hr 1 min 34 sec) 
Heartbeat CPU 0 instructions: 70000000 cycles: 47108127 heartbeat IPC: 1.42043 cumulative IPC: 1.48594 (Simulation time: 0 hr 1 min 49 sec) 
Heartbeat CPU 0 instructions: 80000000 cycles: 54200534 heartbeat IPC: 1.40996 cumulative IPC: 1.476 (Simulation time: 0 hr 2 min 4 sec) 
Heartbeat CPU 0 instructions: 90000003 cycles: 61207485 heartbeat IPC: 1.42715 cumulative IPC: 1.47041 (Simulation time: 0 hr 2 min 19 sec) 
Heartbeat CPU 0 instructions: 100000000 cycles: 68377839 heartbeat IPC: 1.39463 cumulative IPC: 1.46246 (Simulation time: 0 hr 2 min 34 sec) 

Warmup complete CPU 0 instructions: 100000004 cycles: 68377840 (Simulation time: 0 hr 2 min 34 sec) 

Heartbeat CPU 0 instructions: 110000003 cycles: 96823067 heartbeat IPC: 0.351553 cumulative IPC: 0.351553 (Simulation time: 0 hr 3 min 4 sec) 
Heartbeat CPU 0 instructions: 120000000 cycles: 124425863 heartbeat IPC: 0.362282 cumulative IPC: 0.356837 (Simulation time: 0 hr 3 min 34 sec) 
Heartbeat CPU 0 instructions: 130000000 cycles: 149480198 heartbeat IPC: 0.399133 cumulative IPC: 0.369903 (Simulation time: 0 hr 4 min 3 sec) 
Heartbeat CPU 0 instructions: 140000000 cycles: 179812701 heartbeat IPC: 0.329679 cumulative IPC: 0.358954 (Simulation time: 0 hr 4 min 32 sec) 
Heartbeat CPU 0 instructions: 150000000 cycles: 210541734 heartbeat IPC: 0.325425 cumulative IPC: 0.351707 (Simulation time: 0 hr 5 min 2 sec) 
Heartbeat CPU 0 instructions: 160000000 cycles: 238113035 heartbeat IPC: 0.362696 cumulative IPC: 0.353492 (Simulation time: 0 hr 5 min 30 sec) 
Heartbeat CPU 0 instructions: 170000001 cycles: 266423919 heartbeat IPC: 0.353221 cumulative IPC: 0.353453 (Simulation time: 0 hr 6 min 1 sec) 
Heartbeat CPU 0 instructions: 180000000 cycles: 295341457 heartbeat IPC: 0.345811 cumulative IPC: 0.352479 (Simulation time: 0 hr 6 min 31 sec) 
Heartbeat CPU 0 instructions: 190000002 cycles: 323675256 heartbeat IPC: 0.352935 cumulative IPC: 0.35253 (Simulation time: 0 hr 7 min 1 sec) 
Heartbeat CPU 0 instructions: 200000000 cycles: 352583424 heartbeat IPC: 0.345923 cumulative IPC: 0.351858 (Simulation time: 0 hr 7 min 31 sec) 
Heartbeat CPU 0 instructions: 210000002 cycles: 380677197 heartbeat IPC: 0.355951 cumulative IPC: 0.352226 (Simulation time: 0 hr 8 min 0 sec) 
Heartbeat CPU 0 instructions: 220000000 cycles: 410686375 heartbeat IPC: 0.333231 cumulative IPC: 0.350561 (Simulation time: 0 hr 8 min 29 sec) 
Heartbeat CPU 0 instructions: 230000000 cycles: 438940184 heartbeat IPC: 0.353935 cumulative IPC: 0.350818 (Simulation time: 0 hr 8 min 58 sec) 
Heartbeat CPU 0 instructions: 240000000 cycles: 465795162 heartbeat IPC: 0.37237 cumulative IPC: 0.352275 (Simulation time: 0 hr 9 min 26 sec) 
Heartbeat CPU 0 instructions: 250000000 cycles: 496262880 heartbeat IPC: 0.328216 cumulative IPC: 0.350561 (Simulation time: 0 hr 9 min 57 sec) 
Heartbeat CPU 0 instructions: 260000000 cycles: 523537262 heartbeat IPC: 0.366644 cumulative IPC: 0.351525 (Simulation time: 0 hr 10 min 26 sec) 
Heartbeat CPU 0 instructions: 270000003 cycles: 552250230 heartbeat IPC: 0.348275 cumulative IPC: 0.351332 (Simulation time: 0 hr 10 min 56 sec) 
Heartbeat CPU 0 instructions: 280000000 cycles: 580992463 heartbeat IPC: 0.34792 cumulative IPC: 0.351141 (Simulation time: 0 hr 11 min 27 sec) 
Heartbeat CPU 0 instructions: 290000000 cycles: 610007568 heartbeat IPC: 0.344648 cumulative IPC: 0.350793 (Simulation time: 0 hr 11 min 57 sec) 
Heartbeat CPU 0 instructions: 300000000 cycles: 640667716 heartbeat IPC: 0.326156 cumulative IPC: 0.349473 (Simulation time: 0 hr 12 min 27 sec) 
Heartbeat CPU 0 instructions: 310000001 cycles: 670871985 heartbeat IPC: 0.331079 cumulative IPC: 0.348551 (Simulation time: 0 hr 12 min 56 sec) 
Heartbeat CPU 0 instructions: 320000000 cycles: 699835481 heartbeat IPC: 0.345262 cumulative IPC: 0.3484 (Simulation time: 0 hr 13 min 25 sec) 
Heartbeat CPU 0 instructions: 330000000 cycles: 728796271 heartbeat IPC: 0.345294 cumulative IPC: 0.348264 (Simulation time: 0 hr 13 min 54 sec) 
Heartbeat CPU 0 instructions: 340000000 cycles: 758971751 heartbeat IPC: 0.331395 cumulative IPC: 0.347527 (Simulation time: 0 hr 14 min 24 sec) 
Heartbeat CPU 0 instructions: 350000003 cycles: 786225161 heartbeat IPC: 0.366927 cumulative IPC: 0.348263 (Simulation time: 0 hr 14 min 53 sec) 
Heartbeat CPU 0 instructions: 360000000 cycles: 815576314 heartbeat IPC: 0.340702 cumulative IPC: 0.347966 (Simulation time: 0 hr 15 min 22 sec) 
Heartbeat CPU 0 instructions: 370000000 cycles: 844950774 heartbeat IPC: 0.340432 cumulative IPC: 0.347681 (Simulation time: 0 hr 15 min 50 sec) 
Heartbeat CPU 0 instructions: 380000000 cycles: 874737154 heartbeat IPC: 0.335724 cumulative IPC: 0.34724 (Simulation time: 0 hr 16 min 19 sec) 
Heartbeat CPU 0 instructions: 390000001 cycles: 903459365 heartbeat IPC: 0.348163 cumulative IPC: 0.347271 (Simulation time: 0 hr 16 min 47 sec) 
Heartbeat CPU 0 instructions: 400000000 cycles: 933302621 heartbeat IPC: 0.335084 cumulative IPC: 0.346851 (Simulation time: 0 hr 17 min 16 sec) 
Heartbeat CPU 0 instructions: 410000001 cycles: 961714773 heartbeat IPC: 0.351962 cumulative IPC: 0.347014 (Simulation time: 0 hr 17 min 44 sec) 
Heartbeat CPU 0 instructions: 420000000 cycles: 989968666 heartbeat IPC: 0.353933 cumulative IPC: 0.347226 (Simulation time: 0 hr 18 min 12 sec) 
Heartbeat CPU 0 instructions: 430000002 cycles: 1018816789 heartbeat IPC: 0.346643 cumulative IPC: 0.347208 (Simulation time: 0 hr 18 min 41 sec) 
Heartbeat CPU 0 instructions: 440000000 cycles: 1049428334 heartbeat IPC: 0.326674 cumulative IPC: 0.346567 (Simulation time: 0 hr 19 min 10 sec) 
Heartbeat CPU 0 instructions: 450000002 cycles: 1079890082 heartbeat IPC: 0.328281 cumulative IPC: 0.346017 (Simulation time: 0 hr 19 min 38 sec) 
Heartbeat CPU 0 instructions: 460000000 cycles: 1108555128 heartbeat IPC: 0.348857 cumulative IPC: 0.346095 (Simulation time: 0 hr 20 min 7 sec) 
Heartbeat CPU 0 instructions: 470000000 cycles: 1137148324 heartbeat IPC: 0.349734 cumulative IPC: 0.346192 (Simulation time: 0 hr 20 min 35 sec) 
Heartbeat CPU 0 instructions: 480000000 cycles: 1165931203 heartbeat IPC: 0.347429 cumulative IPC: 0.346225 (Simulation time: 0 hr 21 min 4 sec) 
Heartbeat CPU 0 instructions: 490000000 cycles: 1194422275 heartbeat IPC: 0.350987 cumulative IPC: 0.346345 (Simulation time: 0 hr 21 min 32 sec) 
Heartbeat CPU 0 instructions: 500000000 cycles: 1223510117 heartbeat IPC: 0.343786 cumulative IPC: 0.346281 (Simulation time: 0 hr 22 min 0 sec) 
Heartbeat CPU 0 instructions: 510000000 cycles: 1258843273 heartbeat IPC: 0.28302 cumulative IPC: 0.344403 (Simulation time: 0 hr 22 min 32 sec) 
Heartbeat CPU 0 instructions: 520000000 cycles: 1286668979 heartbeat IPC: 0.35938 cumulative IPC: 0.344745 (Simulation time: 0 hr 23 min 1 sec) 
Heartbeat CPU 0 instructions: 530000001 cycles: 1316812231 heartbeat IPC: 0.331749 cumulative IPC: 0.344431 (Simulation time: 0 hr 23 min 31 sec) 
Heartbeat CPU 0 instructions: 540000000 cycles: 1345834227 heartbeat IPC: 0.344566 cumulative IPC: 0.344434 (Simulation time: 0 hr 24 min 0 sec) 
Heartbeat CPU 0 instructions: 550000001 cycles: 1375354099 heartbeat IPC: 0.338755 cumulative IPC: 0.344306 (Simulation time: 0 hr 24 min 31 sec) 
Heartbeat CPU 0 instructions: 560000000 cycles: 1400936421 heartbeat IPC: 0.390895 cumulative IPC: 0.345201 (Simulation time: 0 hr 25 min 0 sec) 
Heartbeat CPU 0 instructions: 570000000 cycles: 1431219639 heartbeat IPC: 0.330216 cumulative IPC: 0.344868 (Simulation time: 0 hr 25 min 30 sec) 
Heartbeat CPU 0 instructions: 580000000 cycles: 1459893858 heartbeat IPC: 0.348745 cumulative IPC: 0.344948 (Simulation time: 0 hr 25 min 59 sec) 
Heartbeat CPU 0 instructions: 590000001 cycles: 1485308745 heartbeat IPC: 0.39347 cumulative IPC: 0.345818 (Simulation time: 0 hr 26 min 27 sec) 
Heartbeat CPU 0 instructions: 600000000 cycles: 1512748861 heartbeat IPC: 0.36443 cumulative IPC: 0.346171 (Simulation time: 0 hr 26 min 56 sec) 
Finished CPU 0 instructions: 500000000 cycles: 1444371043 cumulative IPC: 0.346171 (Simulation time: 0 hr 26 min 56 sec) 

CPU 0 Branch Prediction Accuracy: 86.4311% MPKI: 26.2662
Number of Branches: 96788573 Number of Mispredictions: 13133102
Number of LOAD Instructions: 164682285
Number of LOAD Instructions (ROI): 164682285
Number of STORE Instructions: 78194750
Number of STORE Instructions (ROI): 78194750
Total Destination Memory Operands: 83268534
Total Destination Memory Operands (ROI): 83268534
Total Source Memory Operands: 164712438
Total Source Memory Operands (ROI): 164712438
Number of DEPENDED LOADS: 7061747
Number of DEPENDED LOADS (ROI): 7061747
Number of SQ_ADDED: 83268522
Number of SQ_ADDED (ROI): 83268522
Number of LQ_ADDED: 236614817
Number of LQ_ADDED (ROI): 236614817
Number of Instructions read from trace: 600000066

ChampSim completed all CPUs

Region of Interest Statistics

CPU 0 cumulative IPC: 0.346171 instructions: 500000000 cycles: 1444371043
ITLB TOTAL     ACCESS:  100518069  HIT:  100313623  MISS:     204446
ITLB LOAD      ACCESS:  100518069  HIT:  100313623  MISS:     204446
ITLB RFO       ACCESS:          0  HIT:          0  MISS:          0
ITLB PREFETCH  ACCESS:          0  HIT:          0  MISS:          0
ITLB WRITEBACK ACCESS:          0  HIT:          0  MISS:          0
ITLB PREFETCH  REQUESTED:          0  ISSUED:          0  USEFUL:          0  USELESS:          0
ITLB TOTAL MSHR MERGED:     172423
ITLB LOAD MSHR MERGED:     172423
ITLB RFO MSHR MERGED:          0
ITLB PREFETCH MSHR MERGED:          0
ITLB WRITEBACK MSHR MERGED:          0
ITLB TOTAL ACCESSES:  100690492 HITS:  100313623 MISSES:     376869
ITLB LOAD ACCESSES:  100690492 HITS:  100313623 MISSES:     376869
ITLB RFO ACCESSES:          0 HITS:          0 MISSES:          0
ITLB PREFETCH ACCESSES:          0 HITS:          0 MISSES:          0
ITLB WRITEBACK ACCESSES:          0 HITS:          0 MISSES:          0
ITLB RQ ACCESS:  500000057
ITLB RQ TO_CACHE:  100690492
ITLB RQ MERGED:  399309565
ITLB RQ FORWARD:          0
ITLB WQ ACCESS:          0
ITLB WQ TO_CACHE:          0
ITLB WQ MERGED:          0
ITLB WQ FORWARD:          0
DTLB TOTAL     ACCESS:  165342437  HIT:  164708090  MISS:     634347
DTLB LOAD      ACCESS:  106294860  HIT:  105724877  MISS:     569983
DTLB RFO       ACCESS:   59047577  HIT:   58983213  MISS:      64364
DTLB PREFETCH  ACCESS:          0  HIT:          0  MISS:          0
DTLB WRITEBACK ACCESS:          0  HIT:          0  MISS:          0
DTLB PREFETCH  REQUESTED:          0  ISSUED:          0  USEFUL:          0  USELESS:          0
DTLB TOTAL MSHR MERGED:      99662
DTLB LOAD MSHR MERGED:      59193
DTLB RFO MSHR MERGED:      40469
DTLB PREFETCH MSHR MERGED:          0
DTLB WRITEBACK MSHR MERGED:          0
DTLB TOTAL ACCESSES:  165442099 HITS:  164708090 MISSES:     734009
DTLB LOAD ACCESSES:  106354053 HITS:  105724877 MISSES:     629176
DTLB RFO ACCESSES:   59088046 HITS:   58983213 MISSES:     104833
DTLB PREFETCH ACCESSES:          0 HITS:          0 MISSES:          0
DTLB WRITEBACK ACCESSES:          0 HITS:          0 MISSES:          0
DTLB RQ ACCESS:  200309212
DTLB RQ TO_CACHE:  165442099
DTLB RQ MERGED:   34867113
DTLB RQ FORWARD:          0
DTLB WQ ACCESS:          0
DTLB WQ TO_CACHE:          0
DTLB WQ MERGED:          0
DTLB WQ FORWARD:          0
L1D TOTAL     ACCESS:  281837006  HIT:  273927589  MISS:    7909417
L1D LOAD      ACCESS:  110428515  HIT:  107151597  MISS:    3276918
L1D RFO       ACCESS:   67107404  HIT:   66215997  MISS:     891407
L1D PREFETCH  ACCESS:  104301087  HIT:  100559995  MISS:    3741092
L1D WRITEBACK ACCESS:          0  HIT:          0  MISS:          0
L1D PREFETCH  REQUESTED:  110822664  ISSUED:  109123378  USEFUL:    1661841  USELESS:    2079215
L1D TOTAL MSHR MERGED:    2881840
L1D LOAD MSHR MERGED:     490836
L1D RFO MSHR MERGED:    1879023
L1D PREFETCH MSHR MERGED:     511981
L1D WRITEBACK MSHR MERGED:          0
L1D TOTAL ACCESSES:  284746448 HITS:  273955191 MISSES:   10791257
L1D LOAD ACCESSES:  110824271 HITS:  107153204 MISSES:    3671067
L1D RFO ACCESSES:   68973831 HITS:   66215997 MISSES:    2757834
L1D PREFETCH ACCESSES:  104948346 HITS:  100585990 MISSES:    4362356
L1D WRITEBACK ACCESSES:          0 HITS:          0 MISSES:          0
L1D RQ ACCESS:  130756609
L1D RQ TO_CACHE:  110822667
L1D RQ MERGED:   19932335
L1D RQ FORWARD:          0
L1D WQ ACCESS:   69552603
L1D WQ TO_CACHE:   68973832
L1D WQ MERGED:     578771
L1D WQ FORWARD:      27602
L1I TOTAL     ACCESS:  126563989  HIT:  122325444  MISS:    4238545
L1I LOAD      ACCESS:  126563989  HIT:  122325444  MISS:    4238545
L1I RFO       ACCESS:          0  HIT:          0  MISS:          0
L1I PREFETCH  ACCESS:          0  HIT:          0  MISS:          0
L1I WRITEBACK ACCESS:          0  HIT:          0  MISS:          0
L1I PREFETCH  REQUESTED:          0  ISSUED:          0  USEFUL:          0  USELESS:          0
L1I TOTAL MSHR MERGED:    1835955
L1I LOAD MSHR MERGED:    1835955
L1I RFO MSHR MERGED:          0
L1I PREFETCH MSHR MERGED:          0
L1I WRITEBACK MSHR MERGED:          0
L1I TOTAL ACCESSES:  128399947 HITS:  122325444 MISSES:    6074503
L1I LOAD ACCESSES:  128399947 HITS:  122325444 MISSES:    6074503
L1I RFO ACCESSES:          0 HITS:          0 MISSES:          0
L1I PREFETCH ACCESSES:          0 HITS:          0 MISSES:          0
L1I WRITEBACK ACCESSES:          0 HITS:          0 MISSES:          0
L1I RQ ACCESS:  500000057
L1I RQ TO_CACHE:  128399947
L1I RQ MERGED:  371600110
L1I RQ FORWARD:          0
L1I WQ ACCESS:          0
L1I WQ TO_CACHE:          0
L1I WQ MERGED:          0
L1I WQ FORWARD:          0
L2C TOTAL     ACCESS:   14905221  HIT:   11158886  MISS:    3746335
L2C LOAD      ACCESS:    7418569  HIT:    5098715  MISS:    2319854
L2C RFO       ACCESS:     878711  HIT:     409951  MISS:     468760
L2C PREFETCH  ACCESS:    4568683  HIT:    3628225  MISS:     940458
L2C WRITEBACK ACCESS:    2039258  HIT:    2021995  MISS:      17263
L2C PREFETCH  REQUESTED:     842626  ISSUED:     842626  USEFUL:     203366  USELESS:     736797
L2C TOTAL MSHR MERGED:       7008
L2C LOAD MSHR MERGED:        818
L2C RFO MSHR MERGED:          0
L2C PREFETCH MSHR MERGED:       6190
L2C WRITEBACK MSHR MERGED:          0
L2C TOTAL ACCESSES:   14913172 HITS:   11159336 MISSES:    3753836
L2C LOAD ACCESSES:    7418776 HITS:    5098922 MISSES:    2319854
L2C RFO ACCESSES:     878811 HITS:     410051 MISSES:     468760
L2C PREFETCH ACCESSES:    4576327 HITS:    3628368 MISSES:     947959
L2C WRITEBACK ACCESSES:    2039258 HITS:    2021995 MISSES:      17263
L2C RQ ACCESS:    8297590
L2C RQ TO_CACHE:    8297283
L2C RQ MERGED:          0
L2C RQ FORWARD:          0
L2C WQ ACCESS:    2039258
L2C WQ TO_CACHE:    2039258
L2C WQ MERGED:          0
L2C WQ FORWARD:        450
LLC TOTAL     ACCESS:    4609649  HIT:    3610173  MISS:     999476
LLC LOAD      ACCESS:    2319022  HIT:    1796789  MISS:     522233
LLC RFO       ACCESS:     468749  HIT:     381930  MISS:      86819
LLC PREFETCH  ACCESS:     941639  HIT:     621940  MISS:     319699
LLC WRITEBACK ACCESS:     880239  HIT:     809514  MISS:      70725
LLC PREFETCH  REQUESTED:          0  ISSUED:          0  USEFUL:      18813  USELESS:     301162
LLC TOTAL MSHR MERGED:        112
LLC LOAD MSHR MERGED:         39
LLC RFO MSHR MERGED:          0
LLC PREFETCH MSHR MERGED:         73
LLC WRITEBACK MSHR MERGED:          0
LLC TOTAL ACCESSES:    4609795 HITS:    3610207 MISSES:     999588
LLC LOAD ACCESSES:    2319036 HITS:    1796803 MISSES:     522233
LLC RFO ACCESSES:     468760 HITS:     381941 MISSES:      86819
LLC PREFETCH ACCESSES:     941760 HITS:     621949 MISSES:     319811
LLC WRITEBACK ACCESSES:     880239 HITS:     809514 MISSES:      70725
LLC 0 RQ ACCESS:    2787796
LLC 0 RQ TO_CACHE:    2787771
LLC 0 RQ MERGED:          0
LLC 0 RQ FORWARD:          0
LLC WQ ACCESS:     880239
LLC WQ TO_CACHE:     880239
LLC WQ MERGED:          0
LLC WQ FORWARD:         34
Major fault: 0 Minor fault: 12862
CPU 0 L1D next line prefetcher final stats
CPU 0 L2C PC-based stride prefetcher final stats
All Misses: 1149304
All Hits: 4277349
SD Algo Stats - Switches: 0 SRR-Repls: 586563 BRR-Repls: 0

DRAM Statistics
 CHANNEL 0
 RQ ROW_BUFFER_HIT:     175581  ROW_BUFFER_MISS:     749587
 DBUS_CONGESTED:     442360
 WQ ROW_BUFFER_HIT:      17325  ROW_BUFFER_MISS:     214374  FULL:          0

 AVG_CONGESTED_CYCLE: 13
LOADS RETIRED: 136549171
INSTR RETIRED: 500000000
