
*** ChampSim Multicore Out-of-Order Simulator ***

Warmup Instructions: 100000000
Simulation Instructions: 150000000
Number of CPUs: 1
LLC sets: 2048
LLC ways: 16
Clean RRIP Policies: 0 Dirty RRIP Policies: 0 PSEL Width: 10 Track Set: 4294967295 PSEL Mask: 15 Demote Mask: 0DS Algo: 0Window size: 64
Off-chip DRAM Size: 4096 MB Channels: 1 Width: 64-bit Data Rate: 1600 MT/s

CPU 0 runs /mnt/beegfs/pchatz06/traces/500.perlbench_r.refrate.input2.region_8.w_0.17544.trace.gz
NOT SORTED
TRACE STRING: /mnt/beegfs/pchatz06/traces/500.perlbench_r.refrate.input2.region_8.w_0.17544.trace.gz
SORTED
TRACE STRING: /mnt/beegfs/pchatz06/traces/500.perlbench_r.refrate.input2.region_8.w_0.17544.trace.gz
INITIAL
TRACE STRING: /mnt/beegfs/pchatz06/traces/500.perlbench_r.refrate.input2.region_8.w_0.17544.trace.gz

champsim_seed used: 261

CPU 0 L1D next line prefetcher
CPU 0 L2C IP-based stride prefetcher
Heartbeat CPU 0 instructions: 10000003 cycles: 6217562 heartbeat IPC: 1.60835 cumulative IPC: 1.60835 (Simulation time: 0 hr 0 min 21 sec) 
Heartbeat CPU 0 instructions: 20000000 cycles: 12403520 heartbeat IPC: 1.61656 cumulative IPC: 1.61245 (Simulation time: 0 hr 0 min 42 sec) 
Heartbeat CPU 0 instructions: 30000000 cycles: 18528361 heartbeat IPC: 1.6327 cumulative IPC: 1.61914 (Simulation time: 0 hr 1 min 3 sec) 
Heartbeat CPU 0 instructions: 40000000 cycles: 24650475 heartbeat IPC: 1.63342 cumulative IPC: 1.62269 (Simulation time: 0 hr 1 min 25 sec) 
Heartbeat CPU 0 instructions: 50000001 cycles: 30864330 heartbeat IPC: 1.60931 cumulative IPC: 1.61999 (Simulation time: 0 hr 1 min 46 sec) 
Heartbeat CPU 0 instructions: 60000000 cycles: 37072512 heartbeat IPC: 1.61078 cumulative IPC: 1.61845 (Simulation time: 0 hr 2 min 7 sec) 
Heartbeat CPU 0 instructions: 70000000 cycles: 43225918 heartbeat IPC: 1.62512 cumulative IPC: 1.6194 (Simulation time: 0 hr 2 min 29 sec) 
Heartbeat CPU 0 instructions: 80000000 cycles: 49413363 heartbeat IPC: 1.61618 cumulative IPC: 1.619 (Simulation time: 0 hr 2 min 50 sec) 
Heartbeat CPU 0 instructions: 90000002 cycles: 55597336 heartbeat IPC: 1.61708 cumulative IPC: 1.61878 (Simulation time: 0 hr 3 min 12 sec) 
Heartbeat CPU 0 instructions: 100000000 cycles: 61775544 heartbeat IPC: 1.61859 cumulative IPC: 1.61876 (Simulation time: 0 hr 3 min 34 sec) 

Warmup complete CPU 0 instructions: 100000001 cycles: 61775545 (Simulation time: 0 hr 3 min 34 sec) 

Heartbeat CPU 0 instructions: 110000000 cycles: 83343656 heartbeat IPC: 0.463647 cumulative IPC: 0.463647 (Simulation time: 0 hr 4 min 9 sec) 
Heartbeat CPU 0 instructions: 120000000 cycles: 104424065 heartbeat IPC: 0.474374 cumulative IPC: 0.468949 (Simulation time: 0 hr 4 min 44 sec) 
Heartbeat CPU 0 instructions: 130000000 cycles: 125753104 heartbeat IPC: 0.468844 cumulative IPC: 0.468914 (Simulation time: 0 hr 5 min 19 sec) 
Heartbeat CPU 0 instructions: 140000000 cycles: 146892285 heartbeat IPC: 0.473055 cumulative IPC: 0.469943 (Simulation time: 0 hr 5 min 54 sec) 
Heartbeat CPU 0 instructions: 150000001 cycles: 168306856 heartbeat IPC: 0.466972 cumulative IPC: 0.469346 (Simulation time: 0 hr 6 min 29 sec) 
Heartbeat CPU 0 instructions: 160000000 cycles: 189339700 heartbeat IPC: 0.475447 cumulative IPC: 0.470352 (Simulation time: 0 hr 7 min 4 sec) 
Heartbeat CPU 0 instructions: 170000000 cycles: 210587824 heartbeat IPC: 0.47063 cumulative IPC: 0.470391 (Simulation time: 0 hr 7 min 39 sec) 
Heartbeat CPU 0 instructions: 180000000 cycles: 231926959 heartbeat IPC: 0.468623 cumulative IPC: 0.470169 (Simulation time: 0 hr 8 min 14 sec) 
Heartbeat CPU 0 instructions: 190000000 cycles: 253824775 heartbeat IPC: 0.456667 cumulative IPC: 0.46863 (Simulation time: 0 hr 8 min 49 sec) 
Heartbeat CPU 0 instructions: 200000000 cycles: 274928207 heartbeat IPC: 0.473857 cumulative IPC: 0.469147 (Simulation time: 0 hr 9 min 24 sec) 
Heartbeat CPU 0 instructions: 210000000 cycles: 296234175 heartbeat IPC: 0.469352 cumulative IPC: 0.469166 (Simulation time: 0 hr 9 min 59 sec) 
Heartbeat CPU 0 instructions: 220000000 cycles: 317525815 heartbeat IPC: 0.469668 cumulative IPC: 0.469208 (Simulation time: 0 hr 10 min 34 sec) 
Heartbeat CPU 0 instructions: 230000000 cycles: 338540929 heartbeat IPC: 0.475848 cumulative IPC: 0.469712 (Simulation time: 0 hr 11 min 8 sec) 
Heartbeat CPU 0 instructions: 240000000 cycles: 359887819 heartbeat IPC: 0.468452 cumulative IPC: 0.469622 (Simulation time: 0 hr 11 min 43 sec) 
*** Reached end of trace for Core: 0 Repeating trace: /mnt/beegfs/pchatz06/traces/500.perlbench_r.refrate.input2.region_8.w_0.17544.trace.gz
Heartbeat CPU 0 instructions: 250000001 cycles: 381411115 heartbeat IPC: 0.464613 cumulative IPC: 0.469284 (Simulation time: 0 hr 12 min 18 sec) 
Finished CPU 0 instructions: 150000000 cycles: 319635570 cumulative IPC: 0.469284 (Simulation time: 0 hr 12 min 18 sec) 

CPU 0 Branch Prediction Accuracy: 97.8392% MPKI: 3.86734
Number of Branches: 26847104 Number of Mispredictions: 580101
Number of LOAD Instructions: 77139525
Number of LOAD Instructions (ROI): 77139525
Number of STORE Instructions: 37839767
Number of STORE Instructions (ROI): 37839767
Total Destination Memory Operands: 40566160
Total Destination Memory Operands (ROI): 40566160
Total Source Memory Operands: 77139525
Total Source Memory Operands (ROI): 77139525
Number of DEPENDED LOADS: 3940974
Number of DEPENDED LOADS (ROI): 3940974
Number of SQ_ADDED: 40566156
Number of SQ_ADDED (ROI): 40566156
Number of LQ_ADDED: 93300856
Number of LQ_ADDED (ROI): 93300856
Number of Instructions read from trace: 250000014

ChampSim completed all CPUs

Region of Interest Statistics

CPU 0 cumulative IPC: 0.469284 instructions: 150000000 cycles: 319635570
ITLB TOTAL     ACCESS:   40767458  HIT:   40764453  MISS:       3005
ITLB LOAD      ACCESS:   40767458  HIT:   40764453  MISS:       3005
ITLB RFO       ACCESS:          0  HIT:          0  MISS:          0
ITLB PREFETCH  ACCESS:          0  HIT:          0  MISS:          0
ITLB WRITEBACK ACCESS:          0  HIT:          0  MISS:          0
ITLB PREFETCH  REQUESTED:          0  ISSUED:          0  USEFUL:          0  USELESS:          0
ITLB TOTAL MSHR MERGED:       3841
ITLB LOAD MSHR MERGED:       3841
ITLB RFO MSHR MERGED:          0
ITLB PREFETCH MSHR MERGED:          0
ITLB WRITEBACK MSHR MERGED:          0
ITLB TOTAL ACCESSES:   40771299 HITS:   40764453 MISSES:       6846
ITLB LOAD ACCESSES:   40771299 HITS:   40764453 MISSES:       6846
ITLB RFO ACCESSES:          0 HITS:          0 MISSES:          0
ITLB PREFETCH ACCESSES:          0 HITS:          0 MISSES:          0
ITLB WRITEBACK ACCESSES:          0 HITS:          0 MISSES:          0
ITLB RQ ACCESS:  149999883
ITLB RQ TO_CACHE:   40771299
ITLB RQ MERGED:  109228584
ITLB RQ FORWARD:          0
ITLB WQ ACCESS:          0
ITLB WQ TO_CACHE:          0
ITLB WQ MERGED:          0
ITLB WQ FORWARD:          0
DTLB TOTAL     ACCESS:   52012353  HIT:   51852079  MISS:     160274
DTLB LOAD      ACCESS:   31943667  HIT:   31804152  MISS:     139515
DTLB RFO       ACCESS:   20068686  HIT:   20047927  MISS:      20759
DTLB PREFETCH  ACCESS:          0  HIT:          0  MISS:          0
DTLB WRITEBACK ACCESS:          0  HIT:          0  MISS:          0
DTLB PREFETCH  REQUESTED:          0  ISSUED:          0  USEFUL:          0  USELESS:          0
DTLB TOTAL MSHR MERGED:      13821
DTLB LOAD MSHR MERGED:      10115
DTLB RFO MSHR MERGED:       3706
DTLB PREFETCH MSHR MERGED:          0
DTLB WRITEBACK MSHR MERGED:          0
DTLB TOTAL ACCESSES:   52026174 HITS:   51852079 MISSES:     174095
DTLB LOAD ACCESSES:   31953782 HITS:   31804152 MISSES:     149630
DTLB RFO ACCESSES:   20072392 HITS:   20047927 MISSES:      24465
DTLB PREFETCH ACCESSES:          0 HITS:          0 MISSES:          0
DTLB WRITEBACK ACCESSES:          0 HITS:          0 MISSES:          0
DTLB RQ ACCESS:   68258723
DTLB RQ TO_CACHE:   52026174
DTLB RQ MERGED:   16232549
DTLB RQ FORWARD:          0
DTLB WQ ACCESS:          0
DTLB WQ TO_CACHE:          0
DTLB WQ MERGED:          0
DTLB WQ FORWARD:          0
L1D TOTAL     ACCESS:   93284218  HIT:   91550545  MISS:    1733673
L1D LOAD      ACCESS:   35428623  HIT:   34578683  MISS:     849940
L1D RFO       ACCESS:   24047005  HIT:   23969518  MISS:      77487
L1D PREFETCH  ACCESS:   33808590  HIT:   33002344  MISS:     806246
L1D WRITEBACK ACCESS:          0  HIT:          0  MISS:          0
L1D PREFETCH  REQUESTED:   35447593  ISSUED:   35137731  USEFUL:     284506  USELESS:     521708
L1D TOTAL MSHR MERGED:     136280
L1D LOAD MSHR MERGED:      22209
L1D RFO MSHR MERGED:      67526
L1D PREFETCH MSHR MERGED:      46545
L1D WRITEBACK MSHR MERGED:          0
L1D TOTAL ACCESSES:   93422401 HITS:   91552448 MISSES:    1869953
L1D LOAD ACCESSES:   35447605 HITS:   34578695 MISSES:     868910
L1D RFO ACCESSES:   24114078 HITS:   23969518 MISSES:     144560
L1D PREFETCH ACCESSES:   33860718 HITS:   33004235 MISSES:     856483
L1D WRITEBACK ACCESSES:          0 HITS:          0 MISSES:          0
L1D RQ ACCESS:   43918375
L1D RQ TO_CACHE:   35447593
L1D RQ MERGED:    8470770
L1D RQ FORWARD:          0
L1D WQ ACCESS:   24340350
L1D WQ TO_CACHE:   24114078
L1D WQ MERGED:     226272
L1D WQ FORWARD:       1903
L1I TOTAL     ACCESS:   48026109  HIT:   46747995  MISS:    1278114
L1I LOAD      ACCESS:   48026109  HIT:   46747995  MISS:    1278114
L1I RFO       ACCESS:          0  HIT:          0  MISS:          0
L1I PREFETCH  ACCESS:          0  HIT:          0  MISS:          0
L1I WRITEBACK ACCESS:          0  HIT:          0  MISS:          0
L1I PREFETCH  REQUESTED:          0  ISSUED:          0  USEFUL:          0  USELESS:          0
L1I TOTAL MSHR MERGED:     788424
L1I LOAD MSHR MERGED:     788424
L1I RFO MSHR MERGED:          0
L1I PREFETCH MSHR MERGED:          0
L1I WRITEBACK MSHR MERGED:          0
L1I TOTAL ACCESSES:   48814533 HITS:   46747995 MISSES:    2066538
L1I LOAD ACCESSES:   48814533 HITS:   46747995 MISSES:    2066538
L1I RFO ACCESSES:          0 HITS:          0 MISSES:          0
L1I PREFETCH ACCESSES:          0 HITS:          0 MISSES:          0
L1I WRITEBACK ACCESSES:          0 HITS:          0 MISSES:          0
L1I RQ ACCESS:  149999887
L1I RQ TO_CACHE:   48814533
L1I RQ MERGED:  101185354
L1I RQ FORWARD:          0
L1I WQ ACCESS:          0
L1I WQ TO_CACHE:          0
L1I WQ MERGED:          0
L1I WQ FORWARD:          0
L2C TOTAL     ACCESS:    3363848  HIT:    3156355  MISS:     207493
L2C LOAD      ACCESS:    2124808  HIT:    1996923  MISS:     127885
L2C RFO       ACCESS:      77030  HIT:      73359  MISS:       3671
L2C PREFETCH  ACCESS:     911970  HIT:     836668  MISS:      75302
L2C WRITEBACK ACCESS:     250040  HIT:     249405  MISS:        635
L2C PREFETCH  REQUESTED:     102786  ISSUED:     102786  USEFUL:       5707  USELESS:      69629
L2C TOTAL MSHR MERGED:        108
L2C LOAD MSHR MERGED:          0
L2C RFO MSHR MERGED:          0
L2C PREFETCH MSHR MERGED:        108
L2C WRITEBACK MSHR MERGED:          0
L2C TOTAL ACCESSES:    3364083 HITS:    3156482 MISSES:     207601
L2C LOAD ACCESSES:    2124815 HITS:    1996930 MISSES:     127885
L2C RFO ACCESSES:      77034 HITS:      73363 MISSES:       3671
L2C PREFETCH ACCESSES:     912194 HITS:     836784 MISSES:      75410
L2C WRITEBACK ACCESSES:     250040 HITS:     249405 MISSES:        635
L2C RQ ACCESS:    2201849
L2C RQ TO_CACHE:    2201838
L2C RQ MERGED:          0
L2C RQ FORWARD:          0
L2C WQ ACCESS:     250040
L2C WQ TO_CACHE:     250040
L2C WQ MERGED:          0
L2C WQ FORWARD:        127
LLC TOTAL     ACCESS:     227245  HIT:     219704  MISS:       7541
LLC LOAD      ACCESS:     127885  HIT:     125996  MISS:       1889
LLC RFO       ACCESS:       3671  HIT:       3467  MISS:        204
LLC PREFETCH  ACCESS:      75301  HIT:      69853  MISS:       5448
LLC WRITEBACK ACCESS:      20388  HIT:      20388  MISS:          0
LLC PREFETCH  REQUESTED:          0  ISSUED:          0  USEFUL:        139  USELESS:          0
LLC TOTAL MSHR MERGED:          0
LLC LOAD MSHR MERGED:          0
LLC RFO MSHR MERGED:          0
LLC PREFETCH MSHR MERGED:          0
LLC WRITEBACK MSHR MERGED:          0
LLC TOTAL ACCESSES:     227246 HITS:     219705 MISSES:       7541
LLC LOAD ACCESSES:     127885 HITS:     125996 MISSES:       1889
LLC RFO ACCESSES:       3671 HITS:       3467 MISSES:        204
LLC PREFETCH ACCESSES:      75302 HITS:      69854 MISSES:       5448
LLC WRITEBACK ACCESSES:      20388 HITS:      20388 MISSES:          0
LLC 0 RQ ACCESS:     131556
LLC 0 RQ TO_CACHE:     131556
LLC 0 RQ MERGED:          0
LLC 0 RQ FORWARD:          0
LLC WQ ACCESS:      20388
LLC WQ TO_CACHE:      20388
LLC WQ MERGED:          0
LLC WQ FORWARD:          1
Major fault: 0 Minor fault: 700
CPU 0 L1D next line prefetcher final stats
CPU 0 L2C PC-based stride prefetcher final stats

DRAM Statistics
 CHANNEL 0
 RQ ROW_BUFFER_HIT:       6729  ROW_BUFFER_MISS:        812
 DBUS_CONGESTED:       2117
 WQ ROW_BUFFER_HIT:          0  ROW_BUFFER_MISS:          0  FULL:          0

 AVG_CONGESTED_CYCLE: 12
LOADS RETIRED: 46289915
INSTR RETIRED: 150000000
