
*** ChampSim Multicore Out-of-Order Simulator ***

Warmup Instructions: 100000000
Simulation Instructions: 150000000
Number of CPUs: 1
LLC sets: 2048
LLC ways: 16
Clean RRIP Policies: 0 Dirty RRIP Policies: 0 PSEL Width: 10 Track Set: 4294967295 PSEL Mask: 15 Demote Mask: 0DS Algo: 0Window size: 64
Off-chip DRAM Size: 4096 MB Channels: 1 Width: 64-bit Data Rate: 1600 MT/s

CPU 0 runs /mnt/beegfs/pchatz06/traces/500.perlbench_r.refrate.input1.region_3.w_0.06817.trace.gz
NOT SORTED
TRACE STRING: /mnt/beegfs/pchatz06/traces/500.perlbench_r.refrate.input1.region_3.w_0.06817.trace.gz
SORTED
TRACE STRING: /mnt/beegfs/pchatz06/traces/500.perlbench_r.refrate.input1.region_3.w_0.06817.trace.gz
INITIAL
TRACE STRING: /mnt/beegfs/pchatz06/traces/500.perlbench_r.refrate.input1.region_3.w_0.06817.trace.gz

champsim_seed used: 262

CPU 0 L1D next line prefetcher
CPU 0 L2C IP-based stride prefetcher
Heartbeat CPU 0 instructions: 10000003 cycles: 5848599 heartbeat IPC: 1.70981 cumulative IPC: 1.70981 (Simulation time: 0 hr 0 min 18 sec) 
Heartbeat CPU 0 instructions: 20000000 cycles: 11715485 heartbeat IPC: 1.70448 cumulative IPC: 1.70714 (Simulation time: 0 hr 0 min 36 sec) 
Heartbeat CPU 0 instructions: 30000002 cycles: 17602785 heartbeat IPC: 1.69857 cumulative IPC: 1.70428 (Simulation time: 0 hr 0 min 53 sec) 
Heartbeat CPU 0 instructions: 40000000 cycles: 23506320 heartbeat IPC: 1.6939 cumulative IPC: 1.70167 (Simulation time: 0 hr 1 min 11 sec) 
Heartbeat CPU 0 instructions: 50000003 cycles: 29471824 heartbeat IPC: 1.6763 cumulative IPC: 1.69654 (Simulation time: 0 hr 1 min 29 sec) 
Heartbeat CPU 0 instructions: 60000000 cycles: 35467378 heartbeat IPC: 1.6679 cumulative IPC: 1.6917 (Simulation time: 0 hr 1 min 47 sec) 
Heartbeat CPU 0 instructions: 70000001 cycles: 41612013 heartbeat IPC: 1.62744 cumulative IPC: 1.68221 (Simulation time: 0 hr 2 min 4 sec) 
Heartbeat CPU 0 instructions: 80000000 cycles: 47891812 heartbeat IPC: 1.59241 cumulative IPC: 1.67043 (Simulation time: 0 hr 2 min 21 sec) 
Heartbeat CPU 0 instructions: 90000001 cycles: 53973217 heartbeat IPC: 1.64436 cumulative IPC: 1.66749 (Simulation time: 0 hr 2 min 38 sec) 
Heartbeat CPU 0 instructions: 100000000 cycles: 59846812 heartbeat IPC: 1.70253 cumulative IPC: 1.67093 (Simulation time: 0 hr 2 min 56 sec) 

Warmup complete CPU 0 instructions: 100000002 cycles: 59846813 (Simulation time: 0 hr 2 min 56 sec) 

Heartbeat CPU 0 instructions: 110000000 cycles: 74373789 heartbeat IPC: 0.688374 cumulative IPC: 0.688374 (Simulation time: 0 hr 3 min 21 sec) 
Heartbeat CPU 0 instructions: 120000000 cycles: 88871326 heartbeat IPC: 0.689772 cumulative IPC: 0.689073 (Simulation time: 0 hr 3 min 47 sec) 
Heartbeat CPU 0 instructions: 130000001 cycles: 106447027 heartbeat IPC: 0.568967 cumulative IPC: 0.643774 (Simulation time: 0 hr 4 min 14 sec) 
Heartbeat CPU 0 instructions: 140000000 cycles: 122292190 heartbeat IPC: 0.631107 cumulative IPC: 0.64056 (Simulation time: 0 hr 4 min 39 sec) 
Heartbeat CPU 0 instructions: 150000000 cycles: 138464492 heartbeat IPC: 0.618341 cumulative IPC: 0.635989 (Simulation time: 0 hr 5 min 6 sec) 
Heartbeat CPU 0 instructions: 160000000 cycles: 154289702 heartbeat IPC: 0.631903 cumulative IPC: 0.635305 (Simulation time: 0 hr 5 min 32 sec) 
Heartbeat CPU 0 instructions: 170000002 cycles: 170065551 heartbeat IPC: 0.63388 cumulative IPC: 0.635101 (Simulation time: 0 hr 5 min 58 sec) 
Heartbeat CPU 0 instructions: 180000000 cycles: 181490351 heartbeat IPC: 0.875289 cumulative IPC: 0.657659 (Simulation time: 0 hr 6 min 22 sec) 
Heartbeat CPU 0 instructions: 190000003 cycles: 196771223 heartbeat IPC: 0.654413 cumulative IPC: 0.657297 (Simulation time: 0 hr 6 min 48 sec) 
Heartbeat CPU 0 instructions: 200000000 cycles: 212895143 heartbeat IPC: 0.620196 cumulative IPC: 0.653388 (Simulation time: 0 hr 7 min 14 sec) 
Heartbeat CPU 0 instructions: 210000001 cycles: 228308352 heartbeat IPC: 0.648794 cumulative IPC: 0.652968 (Simulation time: 0 hr 7 min 42 sec) 
Heartbeat CPU 0 instructions: 220000000 cycles: 245108573 heartbeat IPC: 0.59523 cumulative IPC: 0.647732 (Simulation time: 0 hr 8 min 7 sec) 
Heartbeat CPU 0 instructions: 230000000 cycles: 260843166 heartbeat IPC: 0.635542 cumulative IPC: 0.646778 (Simulation time: 0 hr 8 min 31 sec) 
Heartbeat CPU 0 instructions: 240000000 cycles: 275151050 heartbeat IPC: 0.698915 cumulative IPC: 0.650243 (Simulation time: 0 hr 8 min 55 sec) 
*** Reached end of trace for Core: 0 Repeating trace: /mnt/beegfs/pchatz06/traces/500.perlbench_r.refrate.input1.region_3.w_0.06817.trace.gz
Heartbeat CPU 0 instructions: 250000000 cycles: 290281329 heartbeat IPC: 0.660926 cumulative IPC: 0.650944 (Simulation time: 0 hr 9 min 20 sec) 
Finished CPU 0 instructions: 150000002 cycles: 230434525 cumulative IPC: 0.650944 (Simulation time: 0 hr 9 min 20 sec) 

CPU 0 Branch Prediction Accuracy: 98.5901% MPKI: 2.27433
Number of Branches: 24196896 Number of Mispredictions: 341149
Number of LOAD Instructions: 68311736
Number of LOAD Instructions (ROI): 68311736
Number of STORE Instructions: 46742644
Number of STORE Instructions (ROI): 46742644
Total Destination Memory Operands: 47909120
Total Destination Memory Operands (ROI): 47909120
Total Source Memory Operands: 68311743
Total Source Memory Operands (ROI): 68311743
Number of DEPENDED LOADS: 5943485
Number of DEPENDED LOADS (ROI): 5943485
Number of SQ_ADDED: 47909120
Number of SQ_ADDED (ROI): 47909120
Number of LQ_ADDED: 74023148
Number of LQ_ADDED (ROI): 74023148
Number of Instructions read from trace: 250000019

ChampSim completed all CPUs

Region of Interest Statistics

CPU 0 cumulative IPC: 0.650944 instructions: 150000002 cycles: 230434525
ITLB TOTAL     ACCESS:   35631150  HIT:   35631149  MISS:          1
ITLB LOAD      ACCESS:   35631150  HIT:   35631149  MISS:          1
ITLB RFO       ACCESS:          0  HIT:          0  MISS:          0
ITLB PREFETCH  ACCESS:          0  HIT:          0  MISS:          0
ITLB WRITEBACK ACCESS:          0  HIT:          0  MISS:          0
ITLB PREFETCH  REQUESTED:          0  ISSUED:          0  USEFUL:          0  USELESS:          0
ITLB TOTAL MSHR MERGED:          1
ITLB LOAD MSHR MERGED:          1
ITLB RFO MSHR MERGED:          0
ITLB PREFETCH MSHR MERGED:          0
ITLB WRITEBACK MSHR MERGED:          0
ITLB TOTAL ACCESSES:   35631151 HITS:   35631149 MISSES:          2
ITLB LOAD ACCESSES:   35631151 HITS:   35631149 MISSES:          2
ITLB RFO ACCESSES:          0 HITS:          0 MISSES:          0
ITLB PREFETCH ACCESSES:          0 HITS:          0 MISSES:          0
ITLB WRITEBACK ACCESSES:          0 HITS:          0 MISSES:          0
ITLB RQ ACCESS:  149999966
ITLB RQ TO_CACHE:   35631151
ITLB RQ MERGED:  114368815
ITLB RQ FORWARD:          0
ITLB WQ ACCESS:          0
ITLB WQ TO_CACHE:          0
ITLB WQ MERGED:          0
ITLB WQ FORWARD:          0
DTLB TOTAL     ACCESS:   46907342  HIT:   46905055  MISS:       2287
DTLB LOAD      ACCESS:   26826471  HIT:   26824399  MISS:       2072
DTLB RFO       ACCESS:   20080871  HIT:   20080656  MISS:        215
DTLB PREFETCH  ACCESS:          0  HIT:          0  MISS:          0
DTLB WRITEBACK ACCESS:          0  HIT:          0  MISS:          0
DTLB PREFETCH  REQUESTED:          0  ISSUED:          0  USEFUL:          0  USELESS:          0
DTLB TOTAL MSHR MERGED:        664
DTLB LOAD MSHR MERGED:        240
DTLB RFO MSHR MERGED:        424
DTLB PREFETCH MSHR MERGED:          0
DTLB WRITEBACK MSHR MERGED:          0
DTLB TOTAL ACCESSES:   46908006 HITS:   46905055 MISSES:       2951
DTLB LOAD ACCESSES:   26826711 HITS:   26824399 MISSES:       2312
DTLB RFO ACCESSES:   20081295 HITS:   20080656 MISSES:        639
DTLB PREFETCH ACCESSES:          0 HITS:          0 MISSES:          0
DTLB WRITEBACK ACCESSES:          0 HITS:          0 MISSES:          0
DTLB RQ ACCESS:   66348532
DTLB RQ TO_CACHE:   46908006
DTLB RQ MERGED:   19440526
DTLB RQ FORWARD:          0
DTLB WQ ACCESS:          0
DTLB WQ TO_CACHE:          0
DTLB WQ MERGED:          0
DTLB WQ FORWARD:          0
L1D TOTAL     ACCESS:   85382719  HIT:   85352853  MISS:      29866
L1D LOAD      ACCESS:   30050831  HIT:   30040409  MISS:      10422
L1D RFO       ACCESS:   28948380  HIT:   28947770  MISS:        610
L1D PREFETCH  ACCESS:   26383508  HIT:   26364674  MISS:      18834
L1D WRITEBACK ACCESS:          0  HIT:          0  MISS:          0
L1D PREFETCH  REQUESTED:   30052359  ISSUED:   28542725  USEFUL:      12240  USELESS:       6591
L1D TOTAL MSHR MERGED:       5722
L1D LOAD MSHR MERGED:       1913
L1D RFO MSHR MERGED:       1060
L1D PREFETCH MSHR MERGED:       2749
L1D WRITEBACK MSHR MERGED:          0
L1D TOTAL ACCESSES:   85521418 HITS:   85485828 MISSES:      35590
L1D LOAD ACCESSES:   30052359 HITS:   30040409 MISSES:      11950
L1D RFO ACCESSES:   28949438 HITS:   28947770 MISSES:       1668
L1D PREFETCH ACCESSES:   26519621 HITS:   26497649 MISSES:      21972
L1D WRITEBACK ACCESSES:          0 HITS:          0 MISSES:          0
L1D RQ ACCESS:   37085132
L1D RQ TO_CACHE:   30052359
L1D RQ MERGED:    7032773
L1D RQ FORWARD:          0
L1D WQ ACCESS:   29263402
L1D WQ TO_CACHE:   28949439
L1D WQ MERGED:     313963
L1D WQ FORWARD:     132975
L1I TOTAL     ACCESS:   43189114  HIT:   43186578  MISS:       2536
L1I LOAD      ACCESS:   43189114  HIT:   43186578  MISS:       2536
L1I RFO       ACCESS:          0  HIT:          0  MISS:          0
L1I PREFETCH  ACCESS:          0  HIT:          0  MISS:          0
L1I WRITEBACK ACCESS:          0  HIT:          0  MISS:          0
L1I PREFETCH  REQUESTED:          0  ISSUED:          0  USEFUL:          0  USELESS:          0
L1I TOTAL MSHR MERGED:       1782
L1I LOAD MSHR MERGED:       1782
L1I RFO MSHR MERGED:          0
L1I PREFETCH MSHR MERGED:          0
L1I WRITEBACK MSHR MERGED:          0
L1I TOTAL ACCESSES:   43190896 HITS:   43186578 MISSES:       4318
L1I LOAD ACCESSES:   43190896 HITS:   43186578 MISSES:       4318
L1I RFO ACCESSES:          0 HITS:          0 MISSES:          0
L1I PREFETCH ACCESSES:          0 HITS:          0 MISSES:          0
L1I WRITEBACK ACCESSES:          0 HITS:          0 MISSES:          0
L1I RQ ACCESS:  149999972
L1I RQ TO_CACHE:   43190896
L1I RQ MERGED:  106809076
L1I RQ FORWARD:          0
L1I WQ ACCESS:          0
L1I WQ TO_CACHE:          0
L1I WQ MERGED:          0
L1I WQ FORWARD:          0
L2C TOTAL     ACCESS:      35848  HIT:      23611  MISS:      12237
L2C LOAD      ACCESS:      12571  HIT:       6518  MISS:       6053
L2C RFO       ACCESS:        608  HIT:        288  MISS:        320
L2C PREFETCH  ACCESS:      20611  HIT:      14772  MISS:       5839
L2C WRITEBACK ACCESS:       2058  HIT:       2033  MISS:         25
L2C PREFETCH  REQUESTED:       1466  ISSUED:       1466  USEFUL:        513  USELESS:       4772
L2C TOTAL MSHR MERGED:          1
L2C LOAD MSHR MERGED:          0
L2C RFO MSHR MERGED:          0
L2C PREFETCH MSHR MERGED:          1
L2C WRITEBACK MSHR MERGED:          0
L2C TOTAL ACCESSES:      35852 HITS:      23612 MISSES:      12240
L2C LOAD ACCESSES:      12573 HITS:       6519 MISSES:       6054
L2C RFO ACCESSES:        608 HITS:        288 MISSES:        320
L2C PREFETCH ACCESSES:      20613 HITS:      14772 MISSES:       5841
L2C WRITEBACK ACCESSES:       2058 HITS:       2033 MISSES:         25
L2C RQ ACCESS:      13181
L2C RQ TO_CACHE:      13180
L2C RQ MERGED:          0
L2C RQ FORWARD:          0
L2C WQ ACCESS:       2058
L2C WQ TO_CACHE:       2058
L2C WQ MERGED:          0
L2C WQ FORWARD:          1
LLC TOTAL     ACCESS:      13891  HIT:       2614  MISS:      11277
LLC LOAD      ACCESS:       6053  HIT:        674  MISS:       5379
LLC RFO       ACCESS:        320  HIT:         16  MISS:        304
LLC PREFETCH  ACCESS:       5839  HIT:        268  MISS:       5571
LLC WRITEBACK ACCESS:       1679  HIT:       1656  MISS:         23
LLC PREFETCH  REQUESTED:          0  ISSUED:          0  USEFUL:         69  USELESS:       4992
LLC TOTAL MSHR MERGED:          0
LLC LOAD MSHR MERGED:          0
LLC RFO MSHR MERGED:          0
LLC PREFETCH MSHR MERGED:          0
LLC WRITEBACK MSHR MERGED:          0
LLC TOTAL ACCESSES:      13893 HITS:       2614 MISSES:      11279
LLC LOAD ACCESSES:       6054 HITS:        674 MISSES:       5380
LLC RFO ACCESSES:        320 HITS:         16 MISSES:        304
LLC PREFETCH ACCESSES:       5840 HITS:        268 MISSES:       5572
LLC WRITEBACK ACCESSES:       1679 HITS:       1656 MISSES:         23
LLC 0 RQ ACCESS:       6374
LLC 0 RQ TO_CACHE:       6374
LLC 0 RQ MERGED:          0
LLC 0 RQ FORWARD:          0
LLC WQ ACCESS:       1679
LLC WQ TO_CACHE:       1679
LLC WQ MERGED:          0
LLC WQ FORWARD:          0
Major fault: 0 Minor fault: 5765
CPU 0 L1D next line prefetcher final stats
CPU 0 L2C PC-based stride prefetcher final stats

DRAM Statistics
 CHANNEL 0
 RQ ROW_BUFFER_HIT:       5471  ROW_BUFFER_MISS:       5783
 DBUS_CONGESTED:       6084
 WQ ROW_BUFFER_HIT:        188  ROW_BUFFER_MISS:       1997  FULL:          0

 AVG_CONGESTED_CYCLE: 13
LOADS RETIRED: 41022175
INSTR RETIRED: 150000000
