
*** ChampSim Multicore Out-of-Order Simulator ***

Warmup Instructions: 100000000
Simulation Instructions: 150000000
Number of CPUs: 1
LLC sets: 2048
LLC ways: 16
Clean RRIP Policies: 0 Dirty RRIP Policies: 0 PSEL Width: 10 Track Set: 4294967295 PSEL Mask: 15 Demote Mask: 0DS Algo: 0Window size: 64
Off-chip DRAM Size: 4096 MB Channels: 1 Width: 64-bit Data Rate: 1600 MT/s

CPU 0 runs /mnt/beegfs/pchatz06/traces/500.perlbench_r.train.input3.region_3.w_0.21154.trace.gz
NOT SORTED
TRACE STRING: /mnt/beegfs/pchatz06/traces/500.perlbench_r.train.input3.region_3.w_0.21154.trace.gz
SORTED
TRACE STRING: /mnt/beegfs/pchatz06/traces/500.perlbench_r.train.input3.region_3.w_0.21154.trace.gz
INITIAL
TRACE STRING: /mnt/beegfs/pchatz06/traces/500.perlbench_r.train.input3.region_3.w_0.21154.trace.gz

champsim_seed used: 253

CPU 0 L1D next line prefetcher
CPU 0 L2C IP-based stride prefetcher
Heartbeat CPU 0 instructions: 10000000 cycles: 6122327 heartbeat IPC: 1.63337 cumulative IPC: 1.63337 (Simulation time: 0 hr 0 min 19 sec) 
Heartbeat CPU 0 instructions: 20000000 cycles: 12237253 heartbeat IPC: 1.63534 cumulative IPC: 1.63435 (Simulation time: 0 hr 0 min 39 sec) 
Heartbeat CPU 0 instructions: 30000000 cycles: 18353351 heartbeat IPC: 1.63503 cumulative IPC: 1.63458 (Simulation time: 0 hr 0 min 58 sec) 
Heartbeat CPU 0 instructions: 40000000 cycles: 24472454 heartbeat IPC: 1.63423 cumulative IPC: 1.63449 (Simulation time: 0 hr 1 min 17 sec) 
Heartbeat CPU 0 instructions: 50000002 cycles: 30593777 heartbeat IPC: 1.63363 cumulative IPC: 1.63432 (Simulation time: 0 hr 1 min 36 sec) 
Heartbeat CPU 0 instructions: 60000000 cycles: 36717146 heartbeat IPC: 1.63309 cumulative IPC: 1.63411 (Simulation time: 0 hr 1 min 56 sec) 
Heartbeat CPU 0 instructions: 70000000 cycles: 42838285 heartbeat IPC: 1.63368 cumulative IPC: 1.63405 (Simulation time: 0 hr 2 min 16 sec) 
Heartbeat CPU 0 instructions: 80000000 cycles: 48961163 heartbeat IPC: 1.63322 cumulative IPC: 1.63395 (Simulation time: 0 hr 2 min 37 sec) 
Heartbeat CPU 0 instructions: 90000001 cycles: 55080663 heartbeat IPC: 1.63412 cumulative IPC: 1.63397 (Simulation time: 0 hr 2 min 56 sec) 
Heartbeat CPU 0 instructions: 100000000 cycles: 61198298 heartbeat IPC: 1.63462 cumulative IPC: 1.63403 (Simulation time: 0 hr 3 min 16 sec) 

Warmup complete CPU 0 instructions: 100000001 cycles: 61198305 (Simulation time: 0 hr 3 min 16 sec) 

Heartbeat CPU 0 instructions: 110000001 cycles: 83983042 heartbeat IPC: 0.43889 cumulative IPC: 0.43889 (Simulation time: 0 hr 3 min 52 sec) 
Heartbeat CPU 0 instructions: 120000000 cycles: 106765138 heartbeat IPC: 0.438941 cumulative IPC: 0.438916 (Simulation time: 0 hr 4 min 27 sec) 
Heartbeat CPU 0 instructions: 130000002 cycles: 129552189 heartbeat IPC: 0.438846 cumulative IPC: 0.438892 (Simulation time: 0 hr 5 min 1 sec) 
Heartbeat CPU 0 instructions: 140000000 cycles: 152333364 heartbeat IPC: 0.438959 cumulative IPC: 0.438909 (Simulation time: 0 hr 5 min 37 sec) 
Heartbeat CPU 0 instructions: 150000001 cycles: 175141023 heartbeat IPC: 0.438449 cumulative IPC: 0.438817 (Simulation time: 0 hr 6 min 12 sec) 
Heartbeat CPU 0 instructions: 160000000 cycles: 197926477 heartbeat IPC: 0.438876 cumulative IPC: 0.438827 (Simulation time: 0 hr 6 min 48 sec) 
Heartbeat CPU 0 instructions: 170000001 cycles: 220714755 heartbeat IPC: 0.438822 cumulative IPC: 0.438826 (Simulation time: 0 hr 7 min 24 sec) 
Heartbeat CPU 0 instructions: 180000000 cycles: 243503130 heartbeat IPC: 0.43882 cumulative IPC: 0.438825 (Simulation time: 0 hr 8 min 1 sec) 
Heartbeat CPU 0 instructions: 190000000 cycles: 266289461 heartbeat IPC: 0.43886 cumulative IPC: 0.438829 (Simulation time: 0 hr 8 min 37 sec) 
Heartbeat CPU 0 instructions: 200000000 cycles: 289067123 heartbeat IPC: 0.439027 cumulative IPC: 0.438849 (Simulation time: 0 hr 9 min 13 sec) 
Heartbeat CPU 0 instructions: 210000000 cycles: 311885573 heartbeat IPC: 0.438242 cumulative IPC: 0.438794 (Simulation time: 0 hr 9 min 47 sec) 
Heartbeat CPU 0 instructions: 220000000 cycles: 334703050 heartbeat IPC: 0.438261 cumulative IPC: 0.438749 (Simulation time: 0 hr 10 min 22 sec) 
Heartbeat CPU 0 instructions: 230000000 cycles: 357492133 heartbeat IPC: 0.438807 cumulative IPC: 0.438754 (Simulation time: 0 hr 10 min 58 sec) 
Heartbeat CPU 0 instructions: 240000000 cycles: 380289113 heartbeat IPC: 0.438655 cumulative IPC: 0.438747 (Simulation time: 0 hr 11 min 34 sec) 
*** Reached end of trace for Core: 0 Repeating trace: /mnt/beegfs/pchatz06/traces/500.perlbench_r.train.input3.region_3.w_0.21154.trace.gz
Heartbeat CPU 0 instructions: 250000003 cycles: 403081838 heartbeat IPC: 0.438737 cumulative IPC: 0.438746 (Simulation time: 0 hr 12 min 11 sec) 
Finished CPU 0 instructions: 150000002 cycles: 341883533 cumulative IPC: 0.438746 (Simulation time: 0 hr 12 min 11 sec) 

CPU 0 Branch Prediction Accuracy: 99.458% MPKI: 1.04229
Number of Branches: 28842944 Number of Mispredictions: 156343
Number of LOAD Instructions: 71423680
Number of LOAD Instructions (ROI): 71423680
Number of STORE Instructions: 35772257
Number of STORE Instructions (ROI): 35772257
Total Destination Memory Operands: 39424964
Total Destination Memory Operands (ROI): 39424964
Total Source Memory Operands: 71435475
Total Source Memory Operands (ROI): 71435475
Number of DEPENDED LOADS: 4248833
Number of DEPENDED LOADS (ROI): 4248833
Number of SQ_ADDED: 39424964
Number of SQ_ADDED (ROI): 39424964
Number of LQ_ADDED: 119104142
Number of LQ_ADDED (ROI): 119104142
Number of Instructions read from trace: 250000014

ChampSim completed all CPUs

Region of Interest Statistics

CPU 0 cumulative IPC: 0.438746 instructions: 150000002 cycles: 341883533
ITLB TOTAL     ACCESS:   50812898  HIT:   50812898  MISS:          0
ITLB LOAD      ACCESS:   50812898  HIT:   50812898  MISS:          0
ITLB RFO       ACCESS:          0  HIT:          0  MISS:          0
ITLB PREFETCH  ACCESS:          0  HIT:          0  MISS:          0
ITLB WRITEBACK ACCESS:          0  HIT:          0  MISS:          0
ITLB PREFETCH  REQUESTED:          0  ISSUED:          0  USEFUL:          0  USELESS:          0
ITLB TOTAL MSHR MERGED:          0
ITLB LOAD MSHR MERGED:          0
ITLB RFO MSHR MERGED:          0
ITLB PREFETCH MSHR MERGED:          0
ITLB WRITEBACK MSHR MERGED:          0
ITLB TOTAL ACCESSES:   50812898 HITS:   50812898 MISSES:          0
ITLB LOAD ACCESSES:   50812898 HITS:   50812898 MISSES:          0
ITLB RFO ACCESSES:          0 HITS:          0 MISSES:          0
ITLB PREFETCH ACCESSES:          0 HITS:          0 MISSES:          0
ITLB WRITEBACK ACCESSES:          0 HITS:          0 MISSES:          0
ITLB RQ ACCESS:  149999758
ITLB RQ TO_CACHE:   50812898
ITLB RQ MERGED:   99186860
ITLB RQ FORWARD:          0
ITLB WQ ACCESS:          0
ITLB WQ TO_CACHE:          0
ITLB WQ MERGED:          0
ITLB WQ FORWARD:          0
DTLB TOTAL     ACCESS:   52579049  HIT:   52573881  MISS:       5168
DTLB LOAD      ACCESS:   30822892  HIT:   30817724  MISS:       5168
DTLB RFO       ACCESS:   21756157  HIT:   21756157  MISS:          0
DTLB PREFETCH  ACCESS:          0  HIT:          0  MISS:          0
DTLB WRITEBACK ACCESS:          0  HIT:          0  MISS:          0
DTLB PREFETCH  REQUESTED:          0  ISSUED:          0  USEFUL:          0  USELESS:          0
DTLB TOTAL MSHR MERGED:          2
DTLB LOAD MSHR MERGED:          2
DTLB RFO MSHR MERGED:          0
DTLB PREFETCH MSHR MERGED:          0
DTLB WRITEBACK MSHR MERGED:          0
DTLB TOTAL ACCESSES:   52579051 HITS:   52573881 MISSES:       5170
DTLB LOAD ACCESSES:   30822894 HITS:   30817724 MISSES:       5170
DTLB RFO ACCESSES:   21756157 HITS:   21756157 MISSES:          0
DTLB PREFETCH ACCESSES:          0 HITS:          0 MISSES:          0
DTLB WRITEBACK ACCESSES:          0 HITS:          0 MISSES:          0
DTLB RQ ACCESS:   64003665
DTLB RQ TO_CACHE:   52579051
DTLB RQ MERGED:   11424614
DTLB RQ FORWARD:          0
DTLB WQ ACCESS:          0
DTLB WQ TO_CACHE:          0
DTLB WQ MERGED:          0
DTLB WQ FORWARD:          0
L1D TOTAL     ACCESS:   88035414  HIT:   87724595  MISS:     310819
L1D LOAD      ACCESS:   33186211  HIT:   33031243  MISS:     154968
L1D RFO       ACCESS:   23573011  HIT:   23562613  MISS:      10398
L1D PREFETCH  ACCESS:   31276192  HIT:   31130739  MISS:     145453
L1D WRITEBACK ACCESS:          0  HIT:          0  MISS:          0
L1D PREFETCH  REQUESTED:   33187151  ISSUED:   31811940  USEFUL:      59527  USELESS:      85920
L1D TOTAL MSHR MERGED:      27246
L1D LOAD MSHR MERGED:        951
L1D RFO MSHR MERGED:      22310
L1D PREFETCH MSHR MERGED:       3985
L1D WRITEBACK MSHR MERGED:          0
L1D TOTAL ACCESSES:   88063114 HITS:   87725049 MISSES:     338065
L1D LOAD ACCESSES:   33187151 HITS:   33031243 MISSES:     155908
L1D RFO ACCESSES:   23595275 HITS:   23562613 MISSES:      32662
L1D PREFETCH ACCESSES:   31280688 HITS:   31131193 MISSES:     149495
L1D WRITEBACK ACCESSES:          0 HITS:          0 MISSES:          0
L1D RQ ACCESS:   40348331
L1D RQ TO_CACHE:   33187151
L1D RQ MERGED:    7161180
L1D RQ FORWARD:          0
L1D WQ ACCESS:   23655344
L1D WQ TO_CACHE:   23595276
L1D WQ MERGED:      60068
L1D WQ FORWARD:        454
L1I TOTAL     ACCESS:   58718358  HIT:   58478940  MISS:     239418
L1I LOAD      ACCESS:   58718358  HIT:   58478940  MISS:     239418
L1I RFO       ACCESS:          0  HIT:          0  MISS:          0
L1I PREFETCH  ACCESS:          0  HIT:          0  MISS:          0
L1I WRITEBACK ACCESS:          0  HIT:          0  MISS:          0
L1I PREFETCH  REQUESTED:          0  ISSUED:          0  USEFUL:          0  USELESS:          0
L1I TOTAL MSHR MERGED:     147293
L1I LOAD MSHR MERGED:     147293
L1I RFO MSHR MERGED:          0
L1I PREFETCH MSHR MERGED:          0
L1I WRITEBACK MSHR MERGED:          0
L1I TOTAL ACCESSES:   58865651 HITS:   58478940 MISSES:     386711
L1I LOAD ACCESSES:   58865651 HITS:   58478940 MISSES:     386711
L1I RFO ACCESSES:          0 HITS:          0 MISSES:          0
L1I PREFETCH ACCESSES:          0 HITS:          0 MISSES:          0
L1I WRITEBACK ACCESSES:          0 HITS:          0 MISSES:          0
L1I RQ ACCESS:  149999758
L1I RQ TO_CACHE:   58865651
L1I RQ MERGED:   91134107
L1I RQ FORWARD:          0
L1I WQ ACCESS:          0
L1I WQ TO_CACHE:          0
L1I WQ MERGED:          0
L1I WQ FORWARD:          0
L2C TOTAL     ACCESS:     627651  HIT:     621092  MISS:       6559
L2C LOAD      ACCESS:     394371  HIT:     391026  MISS:       3345
L2C RFO       ACCESS:      10352  HIT:      10349  MISS:          3
L2C PREFETCH  ACCESS:     150647  HIT:     147467  MISS:       3180
L2C WRITEBACK ACCESS:      72281  HIT:      72250  MISS:         31
L2C PREFETCH  REQUESTED:       5138  ISSUED:       5138  USEFUL:         60  USELESS:       3080
L2C TOTAL MSHR MERGED:          0
L2C LOAD MSHR MERGED:          0
L2C RFO MSHR MERGED:          0
L2C PREFETCH MSHR MERGED:          0
L2C WRITEBACK MSHR MERGED:          0
L2C TOTAL ACCESSES:     627655 HITS:     621096 MISSES:       6559
L2C LOAD ACCESSES:     394375 HITS:     391030 MISSES:       3345
L2C RFO ACCESSES:      10352 HITS:      10349 MISSES:          3
L2C PREFETCH ACCESSES:     150647 HITS:     147467 MISSES:       3180
L2C WRITEBACK ACCESSES:      72281 HITS:      72250 MISSES:         31
L2C RQ ACCESS:     404727
L2C RQ TO_CACHE:     404723
L2C RQ MERGED:          0
L2C RQ FORWARD:          0
L2C WQ ACCESS:      72281
L2C WQ TO_CACHE:      72281
L2C WQ MERGED:          0
L2C WQ FORWARD:          4
LLC TOTAL     ACCESS:       6557  HIT:        254  MISS:       6303
LLC LOAD      ACCESS:       3345  HIT:        111  MISS:       3234
LLC RFO       ACCESS:          3  HIT:          2  MISS:          1
LLC PREFETCH  ACCESS:       3180  HIT:        112  MISS:       3068
LLC WRITEBACK ACCESS:         29  HIT:         29  MISS:          0
LLC PREFETCH  REQUESTED:          0  ISSUED:          0  USEFUL:         45  USELESS:          0
LLC TOTAL MSHR MERGED:          0
LLC LOAD MSHR MERGED:          0
LLC RFO MSHR MERGED:          0
LLC PREFETCH MSHR MERGED:          0
LLC WRITEBACK MSHR MERGED:          0
LLC TOTAL ACCESSES:       6557 HITS:        254 MISSES:       6303
LLC LOAD ACCESSES:       3345 HITS:        111 MISSES:       3234
LLC RFO ACCESSES:          3 HITS:          2 MISSES:          1
LLC PREFETCH ACCESSES:       3180 HITS:        112 MISSES:       3068
LLC WRITEBACK ACCESSES:         29 HITS:         29 MISSES:          0
LLC 0 RQ ACCESS:       3348
LLC 0 RQ TO_CACHE:       3348
LLC 0 RQ MERGED:          0
LLC 0 RQ FORWARD:          0
LLC WQ ACCESS:         29
LLC WQ TO_CACHE:         29
LLC WQ MERGED:          0
LLC WQ FORWARD:          0
Major fault: 0 Minor fault: 3075
CPU 0 L1D next line prefetcher final stats
CPU 0 L2C PC-based stride prefetcher final stats

DRAM Statistics
 CHANNEL 0
 RQ ROW_BUFFER_HIT:        873  ROW_BUFFER_MISS:       5430
 DBUS_CONGESTED:       2748
 WQ ROW_BUFFER_HIT:          0  ROW_BUFFER_MISS:          0  FULL:          0

 AVG_CONGESTED_CYCLE: 11
LOADS RETIRED: 42856196
INSTR RETIRED: 150000000
