
*** ChampSim Multicore Out-of-Order Simulator ***

Warmup Instructions: 100000000
Simulation Instructions: 150000000
Number of CPUs: 1
LLC sets: 2048
LLC ways: 16
Clean RRIP Policies: 0 Dirty RRIP Policies: 0 PSEL Width: 10 Track Set: 4294967295 PSEL Mask: 15 Demote Mask: 0DS Algo: 0Window size: 64
Off-chip DRAM Size: 4096 MB Channels: 1 Width: 64-bit Data Rate: 1600 MT/s

CPU 0 runs /mnt/beegfs/pchatz06/traces/500.perlbench_r.train.input1.region_4.w_0.05639.trace.gz
NOT SORTED
TRACE STRING: /mnt/beegfs/pchatz06/traces/500.perlbench_r.train.input1.region_4.w_0.05639.trace.gz
SORTED
TRACE STRING: /mnt/beegfs/pchatz06/traces/500.perlbench_r.train.input1.region_4.w_0.05639.trace.gz
INITIAL
TRACE STRING: /mnt/beegfs/pchatz06/traces/500.perlbench_r.train.input1.region_4.w_0.05639.trace.gz

champsim_seed used: 263

CPU 0 L1D next line prefetcher
CPU 0 L2C IP-based stride prefetcher
Heartbeat CPU 0 instructions: 10000001 cycles: 6254990 heartbeat IPC: 1.59872 cumulative IPC: 1.59872 (Simulation time: 0 hr 0 min 18 sec) 
Heartbeat CPU 0 instructions: 20000000 cycles: 12411206 heartbeat IPC: 1.62437 cumulative IPC: 1.61145 (Simulation time: 0 hr 0 min 35 sec) 
Heartbeat CPU 0 instructions: 30000000 cycles: 18433679 heartbeat IPC: 1.66045 cumulative IPC: 1.62746 (Simulation time: 0 hr 0 min 52 sec) 
Heartbeat CPU 0 instructions: 40000000 cycles: 24606344 heartbeat IPC: 1.62005 cumulative IPC: 1.6256 (Simulation time: 0 hr 1 min 10 sec) 
Heartbeat CPU 0 instructions: 50000000 cycles: 30765619 heartbeat IPC: 1.62357 cumulative IPC: 1.62519 (Simulation time: 0 hr 1 min 27 sec) 
Heartbeat CPU 0 instructions: 60000000 cycles: 36923866 heartbeat IPC: 1.62384 cumulative IPC: 1.62497 (Simulation time: 0 hr 1 min 45 sec) 
Heartbeat CPU 0 instructions: 70000003 cycles: 43123274 heartbeat IPC: 1.61306 cumulative IPC: 1.62325 (Simulation time: 0 hr 2 min 2 sec) 
Heartbeat CPU 0 instructions: 80000000 cycles: 49364329 heartbeat IPC: 1.60229 cumulative IPC: 1.6206 (Simulation time: 0 hr 2 min 20 sec) 
Heartbeat CPU 0 instructions: 90000002 cycles: 55497727 heartbeat IPC: 1.63042 cumulative IPC: 1.62169 (Simulation time: 0 hr 2 min 38 sec) 
Heartbeat CPU 0 instructions: 100000000 cycles: 61636406 heartbeat IPC: 1.62901 cumulative IPC: 1.62242 (Simulation time: 0 hr 2 min 55 sec) 

Warmup complete CPU 0 instructions: 100000003 cycles: 61636407 (Simulation time: 0 hr 2 min 55 sec) 

Heartbeat CPU 0 instructions: 110000003 cycles: 83095517 heartbeat IPC: 0.466003 cumulative IPC: 0.466003 (Simulation time: 0 hr 3 min 24 sec) 
Heartbeat CPU 0 instructions: 120000000 cycles: 104597981 heartbeat IPC: 0.465063 cumulative IPC: 0.465532 (Simulation time: 0 hr 3 min 53 sec) 
Heartbeat CPU 0 instructions: 130000001 cycles: 125759039 heartbeat IPC: 0.472566 cumulative IPC: 0.467854 (Simulation time: 0 hr 4 min 21 sec) 
Heartbeat CPU 0 instructions: 140000000 cycles: 146912355 heartbeat IPC: 0.472739 cumulative IPC: 0.469065 (Simulation time: 0 hr 4 min 49 sec) 
Heartbeat CPU 0 instructions: 150000000 cycles: 168310157 heartbeat IPC: 0.467338 cumulative IPC: 0.468719 (Simulation time: 0 hr 5 min 18 sec) 
Heartbeat CPU 0 instructions: 160000000 cycles: 189121695 heartbeat IPC: 0.480503 cumulative IPC: 0.470643 (Simulation time: 0 hr 5 min 46 sec) 
Heartbeat CPU 0 instructions: 170000001 cycles: 210062145 heartbeat IPC: 0.477545 cumulative IPC: 0.471616 (Simulation time: 0 hr 6 min 15 sec) 
Heartbeat CPU 0 instructions: 180000000 cycles: 231125291 heartbeat IPC: 0.474763 cumulative IPC: 0.472007 (Simulation time: 0 hr 6 min 43 sec) 
Heartbeat CPU 0 instructions: 190000000 cycles: 252510248 heartbeat IPC: 0.467618 cumulative IPC: 0.471516 (Simulation time: 0 hr 7 min 12 sec) 
Heartbeat CPU 0 instructions: 200000000 cycles: 273624720 heartbeat IPC: 0.473609 cumulative IPC: 0.471724 (Simulation time: 0 hr 7 min 40 sec) 
Heartbeat CPU 0 instructions: 210000001 cycles: 295000306 heartbeat IPC: 0.467823 cumulative IPC: 0.471367 (Simulation time: 0 hr 8 min 8 sec) 
Heartbeat CPU 0 instructions: 220000000 cycles: 316393632 heartbeat IPC: 0.467435 cumulative IPC: 0.471037 (Simulation time: 0 hr 8 min 37 sec) 
Heartbeat CPU 0 instructions: 230000000 cycles: 338125109 heartbeat IPC: 0.460162 cumulative IPC: 0.470182 (Simulation time: 0 hr 9 min 5 sec) 
Heartbeat CPU 0 instructions: 240000000 cycles: 359568439 heartbeat IPC: 0.466345 cumulative IPC: 0.469906 (Simulation time: 0 hr 9 min 34 sec) 
*** Reached end of trace for Core: 0 Repeating trace: /mnt/beegfs/pchatz06/traces/500.perlbench_r.train.input1.region_4.w_0.05639.trace.gz
Heartbeat CPU 0 instructions: 250000000 cycles: 381152274 heartbeat IPC: 0.46331 cumulative IPC: 0.46946 (Simulation time: 0 hr 10 min 2 sec) 
Finished CPU 0 instructions: 150000001 cycles: 319515868 cumulative IPC: 0.46946 (Simulation time: 0 hr 10 min 2 sec) 

CPU 0 Branch Prediction Accuracy: 97.8334% MPKI: 3.89541
Number of Branches: 26969079 Number of Mispredictions: 584311
Number of LOAD Instructions: 76795071
Number of LOAD Instructions (ROI): 76795071
Number of STORE Instructions: 37767742
Number of STORE Instructions (ROI): 37767742
Total Destination Memory Operands: 40448283
Total Destination Memory Operands (ROI): 40448283
Total Source Memory Operands: 76795071
Total Source Memory Operands (ROI): 76795071
Number of DEPENDED LOADS: 3918724
Number of DEPENDED LOADS (ROI): 3918724
Number of SQ_ADDED: 40448283
Number of SQ_ADDED (ROI): 40448283
Number of LQ_ADDED: 93266241
Number of LQ_ADDED (ROI): 93266241
Number of Instructions read from trace: 250000013

ChampSim completed all CPUs

Region of Interest Statistics

CPU 0 cumulative IPC: 0.46946 instructions: 150000001 cycles: 319515868
ITLB TOTAL     ACCESS:   40379066  HIT:   40376547  MISS:       2519
ITLB LOAD      ACCESS:   40379066  HIT:   40376547  MISS:       2519
ITLB RFO       ACCESS:          0  HIT:          0  MISS:          0
ITLB PREFETCH  ACCESS:          0  HIT:          0  MISS:          0
ITLB WRITEBACK ACCESS:          0  HIT:          0  MISS:          0
ITLB PREFETCH  REQUESTED:          0  ISSUED:          0  USEFUL:          0  USELESS:          0
ITLB TOTAL MSHR MERGED:       3304
ITLB LOAD MSHR MERGED:       3304
ITLB RFO MSHR MERGED:          0
ITLB PREFETCH MSHR MERGED:          0
ITLB WRITEBACK MSHR MERGED:          0
ITLB TOTAL ACCESSES:   40382370 HITS:   40376547 MISSES:       5823
ITLB LOAD ACCESSES:   40382370 HITS:   40376547 MISSES:       5823
ITLB RFO ACCESSES:          0 HITS:          0 MISSES:          0
ITLB PREFETCH ACCESSES:          0 HITS:          0 MISSES:          0
ITLB WRITEBACK ACCESSES:          0 HITS:          0 MISSES:          0
ITLB RQ ACCESS:  149999834
ITLB RQ TO_CACHE:   40382370
ITLB RQ MERGED:  109617464
ITLB RQ FORWARD:          0
ITLB WQ ACCESS:          0
ITLB WQ TO_CACHE:          0
ITLB WQ MERGED:          0
ITLB WQ FORWARD:          0
DTLB TOTAL     ACCESS:   52138266  HIT:   51966297  MISS:     171969
DTLB LOAD      ACCESS:   32067914  HIT:   31916804  MISS:     151110
DTLB RFO       ACCESS:   20070352  HIT:   20049493  MISS:      20859
DTLB PREFETCH  ACCESS:          0  HIT:          0  MISS:          0
DTLB WRITEBACK ACCESS:          0  HIT:          0  MISS:          0
DTLB PREFETCH  REQUESTED:          0  ISSUED:          0  USEFUL:          0  USELESS:          0
DTLB TOTAL MSHR MERGED:      19100
DTLB LOAD MSHR MERGED:      12324
DTLB RFO MSHR MERGED:       6776
DTLB PREFETCH MSHR MERGED:          0
DTLB WRITEBACK MSHR MERGED:          0
DTLB TOTAL ACCESSES:   52157366 HITS:   51966297 MISSES:     191069
DTLB LOAD ACCESSES:   32080238 HITS:   31916804 MISSES:     163434
DTLB RFO ACCESSES:   20077128 HITS:   20049493 MISSES:      27635
DTLB PREFETCH ACCESSES:          0 HITS:          0 MISSES:          0
DTLB WRITEBACK ACCESSES:          0 HITS:          0 MISSES:          0
DTLB RQ ACCESS:   68001792
DTLB RQ TO_CACHE:   52157366
DTLB RQ MERGED:   15844426
DTLB RQ FORWARD:          0
DTLB WQ ACCESS:          0
DTLB WQ TO_CACHE:          0
DTLB WQ MERGED:          0
DTLB WQ FORWARD:          0
L1D TOTAL     ACCESS:   93211146  HIT:   91382406  MISS:    1828740
L1D LOAD      ACCESS:   35477084  HIT:   34580984  MISS:     896100
L1D RFO       ACCESS:   23984851  HIT:   23902098  MISS:      82753
L1D PREFETCH  ACCESS:   33749211  HIT:   32899324  MISS:     849887
L1D WRITEBACK ACCESS:          0  HIT:          0  MISS:          0
L1D PREFETCH  REQUESTED:   35498071  ISSUED:   35052880  USEFUL:     307041  USELESS:     542834
L1D TOTAL MSHR MERGED:     142298
L1D LOAD MSHR MERGED:      24115
L1D RFO MSHR MERGED:      67926
L1D PREFETCH MSHR MERGED:      50257
L1D WRITEBACK MSHR MERGED:          0
L1D TOTAL ACCESSES:   93386838 HITS:   91415800 MISSES:    1971038
L1D LOAD ACCESSES:   35498081 HITS:   34580994 MISSES:     917087
L1D RFO ACCESSES:   24052515 HITS:   23902098 MISSES:     150417
L1D PREFETCH ACCESSES:   33836242 HITS:   32932708 MISSES:     903534
L1D WRITEBACK ACCESSES:          0 HITS:          0 MISSES:          0
L1D RQ ACCESS:   43723712
L1D RQ TO_CACHE:   35498071
L1D RQ MERGED:    8225631
L1D RQ FORWARD:          0
L1D WQ ACCESS:   24278079
L1D WQ TO_CACHE:   24052515
L1D WQ MERGED:     225564
L1D WQ FORWARD:      33394
L1I TOTAL     ACCESS:   47632484  HIT:   46288761  MISS:    1343723
L1I LOAD      ACCESS:   47632484  HIT:   46288761  MISS:    1343723
L1I RFO       ACCESS:          0  HIT:          0  MISS:          0
L1I PREFETCH  ACCESS:          0  HIT:          0  MISS:          0
L1I WRITEBACK ACCESS:          0  HIT:          0  MISS:          0
L1I PREFETCH  REQUESTED:          0  ISSUED:          0  USEFUL:          0  USELESS:          0
L1I TOTAL MSHR MERGED:     825510
L1I LOAD MSHR MERGED:     825510
L1I RFO MSHR MERGED:          0
L1I PREFETCH MSHR MERGED:          0
L1I WRITEBACK MSHR MERGED:          0
L1I TOTAL ACCESSES:   48457994 HITS:   46288761 MISSES:    2169233
L1I LOAD ACCESSES:   48457994 HITS:   46288761 MISSES:    2169233
L1I RFO ACCESSES:          0 HITS:          0 MISSES:          0
L1I PREFETCH ACCESSES:          0 HITS:          0 MISSES:          0
L1I WRITEBACK ACCESSES:          0 HITS:          0 MISSES:          0
L1I RQ ACCESS:  149999834
L1I RQ TO_CACHE:   48457994
L1I RQ MERGED:  101541840
L1I RQ FORWARD:          0
L1I WQ ACCESS:          0
L1I WQ TO_CACHE:          0
L1I WQ MERGED:          0
L1I WQ FORWARD:          0
L2C TOTAL     ACCESS:    3530294  HIT:    3267632  MISS:     262662
L2C LOAD      ACCESS:    2236684  HIT:    2068654  MISS:     168030
L2C RFO       ACCESS:      82491  HIT:      78407  MISS:       4084
L2C PREFETCH  ACCESS:     953318  HIT:     863495  MISS:      89823
L2C WRITEBACK ACCESS:     257801  HIT:     257076  MISS:        725
L2C PREFETCH  REQUESTED:     100428  ISSUED:     100428  USEFUL:       8415  USELESS:      81454
L2C TOTAL MSHR MERGED:         25
L2C LOAD MSHR MERGED:          0
L2C RFO MSHR MERGED:          0
L2C PREFETCH MSHR MERGED:         25
L2C WRITEBACK MSHR MERGED:          0
L2C TOTAL ACCESSES:    3530360 HITS:    3267673 MISSES:     262687
L2C LOAD ACCESSES:    2236695 HITS:    2068665 MISSES:     168030
L2C RFO ACCESSES:      82491 HITS:      78407 MISSES:       4084
L2C PREFETCH ACCESSES:     953373 HITS:     863525 MISSES:      89848
L2C WRITEBACK ACCESSES:     257801 HITS:     257076 MISSES:        725
L2C RQ ACCESS:    2319186
L2C RQ TO_CACHE:    2319175
L2C RQ MERGED:          0
L2C RQ FORWARD:          0
L2C WQ ACCESS:     257801
L2C WQ TO_CACHE:     257801
L2C WQ MERGED:          0
L2C WQ FORWARD:         41
LLC TOTAL     ACCESS:     282245  HIT:     277991  MISS:       4254
LLC LOAD      ACCESS:     168030  HIT:     167919  MISS:        111
LLC RFO       ACCESS:       4071  HIT:       3142  MISS:        929
LLC PREFETCH  ACCESS:      89823  HIT:      86609  MISS:       3214
LLC WRITEBACK ACCESS:      20321  HIT:      20321  MISS:          0
LLC PREFETCH  REQUESTED:          0  ISSUED:          0  USEFUL:        124  USELESS:          0
LLC TOTAL MSHR MERGED:          0
LLC LOAD MSHR MERGED:          0
LLC RFO MSHR MERGED:          0
LLC PREFETCH MSHR MERGED:          0
LLC WRITEBACK MSHR MERGED:          0
LLC TOTAL ACCESSES:     282258 HITS:     278004 MISSES:       4254
LLC LOAD ACCESSES:     168030 HITS:     167919 MISSES:        111
LLC RFO ACCESSES:       4084 HITS:       3155 MISSES:        929
LLC PREFETCH ACCESSES:      89823 HITS:      86609 MISSES:       3214
LLC WRITEBACK ACCESSES:      20321 HITS:      20321 MISSES:          0
LLC 0 RQ ACCESS:     172114
LLC 0 RQ TO_CACHE:     172101
LLC 0 RQ MERGED:          0
LLC 0 RQ FORWARD:          0
LLC WQ ACCESS:      20321
LLC WQ TO_CACHE:      20321
LLC WQ MERGED:          0
LLC WQ FORWARD:         13
Major fault: 0 Minor fault: 495
CPU 0 L1D next line prefetcher final stats
CPU 0 L2C PC-based stride prefetcher final stats

DRAM Statistics
 CHANNEL 0
 RQ ROW_BUFFER_HIT:       3963  ROW_BUFFER_MISS:        291
 DBUS_CONGESTED:        796
 WQ ROW_BUFFER_HIT:          0  ROW_BUFFER_MISS:          0  FULL:          0

 AVG_CONGESTED_CYCLE: 13
LOADS RETIRED: 46078722
INSTR RETIRED: 150000000
