
*** ChampSim Multicore Out-of-Order Simulator ***

Warmup Instructions: 100000000
Simulation Instructions: 150000000
Number of CPUs: 1
LLC sets: 2048
LLC ways: 16
Clean RRIP Policies: 0 Dirty RRIP Policies: 0 PSEL Width: 10 Track Set: 4294967295 PSEL Mask: 15 Demote Mask: 0DS Algo: 0Window size: 64
Off-chip DRAM Size: 4096 MB Channels: 1 Width: 64-bit Data Rate: 1600 MT/s

CPU 0 runs /mnt/beegfs/pchatz06/traces/500.perlbench_r.refrate.input1.region_6.w_0.09893.trace.gz
NOT SORTED
TRACE STRING: /mnt/beegfs/pchatz06/traces/500.perlbench_r.refrate.input1.region_6.w_0.09893.trace.gz
SORTED
TRACE STRING: /mnt/beegfs/pchatz06/traces/500.perlbench_r.refrate.input1.region_6.w_0.09893.trace.gz
INITIAL
TRACE STRING: /mnt/beegfs/pchatz06/traces/500.perlbench_r.refrate.input1.region_6.w_0.09893.trace.gz

champsim_seed used: 269

CPU 0 L1D next line prefetcher
CPU 0 L2C IP-based stride prefetcher
Heartbeat CPU 0 instructions: 10000003 cycles: 5507599 heartbeat IPC: 1.81567 cumulative IPC: 1.81567 (Simulation time: 0 hr 0 min 18 sec) 
Heartbeat CPU 0 instructions: 20000000 cycles: 10982803 heartbeat IPC: 1.82642 cumulative IPC: 1.82103 (Simulation time: 0 hr 0 min 35 sec) 
Heartbeat CPU 0 instructions: 30000003 cycles: 16848907 heartbeat IPC: 1.70471 cumulative IPC: 1.78053 (Simulation time: 0 hr 0 min 54 sec) 
Heartbeat CPU 0 instructions: 40000000 cycles: 22738071 heartbeat IPC: 1.69803 cumulative IPC: 1.75916 (Simulation time: 0 hr 1 min 14 sec) 
Heartbeat CPU 0 instructions: 50000001 cycles: 28676257 heartbeat IPC: 1.68402 cumulative IPC: 1.7436 (Simulation time: 0 hr 1 min 32 sec) 
Heartbeat CPU 0 instructions: 60000000 cycles: 34369562 heartbeat IPC: 1.75645 cumulative IPC: 1.74573 (Simulation time: 0 hr 1 min 49 sec) 
Heartbeat CPU 0 instructions: 70000001 cycles: 40144526 heartbeat IPC: 1.73161 cumulative IPC: 1.7437 (Simulation time: 0 hr 2 min 7 sec) 
Heartbeat CPU 0 instructions: 80000000 cycles: 45786231 heartbeat IPC: 1.77251 cumulative IPC: 1.74725 (Simulation time: 0 hr 2 min 26 sec) 
Heartbeat CPU 0 instructions: 90000000 cycles: 51800456 heartbeat IPC: 1.66272 cumulative IPC: 1.73744 (Simulation time: 0 hr 2 min 45 sec) 
Heartbeat CPU 0 instructions: 100000000 cycles: 57725070 heartbeat IPC: 1.68787 cumulative IPC: 1.73235 (Simulation time: 0 hr 3 min 2 sec) 

Warmup complete CPU 0 instructions: 100000001 cycles: 57725071 (Simulation time: 0 hr 3 min 2 sec) 

Heartbeat CPU 0 instructions: 110000000 cycles: 73861668 heartbeat IPC: 0.619709 cumulative IPC: 0.619709 (Simulation time: 0 hr 3 min 28 sec) 
Heartbeat CPU 0 instructions: 120000000 cycles: 90988953 heartbeat IPC: 0.583864 cumulative IPC: 0.601253 (Simulation time: 0 hr 3 min 55 sec) 
Heartbeat CPU 0 instructions: 130000000 cycles: 105301354 heartbeat IPC: 0.698695 cumulative IPC: 0.630566 (Simulation time: 0 hr 4 min 20 sec) 
Heartbeat CPU 0 instructions: 140000000 cycles: 121718447 heartbeat IPC: 0.609121 cumulative IPC: 0.625065 (Simulation time: 0 hr 4 min 46 sec) 
Heartbeat CPU 0 instructions: 150000000 cycles: 138357283 heartbeat IPC: 0.601004 cumulative IPC: 0.6201 (Simulation time: 0 hr 5 min 13 sec) 
Heartbeat CPU 0 instructions: 160000000 cycles: 155986666 heartbeat IPC: 0.567235 cumulative IPC: 0.610615 (Simulation time: 0 hr 5 min 39 sec) 
Heartbeat CPU 0 instructions: 170000000 cycles: 172908588 heartbeat IPC: 0.590949 cumulative IPC: 0.607726 (Simulation time: 0 hr 6 min 5 sec) 
Heartbeat CPU 0 instructions: 180000000 cycles: 187760393 heartbeat IPC: 0.673319 cumulative IPC: 0.615217 (Simulation time: 0 hr 6 min 31 sec) 
Heartbeat CPU 0 instructions: 190000001 cycles: 202353345 heartbeat IPC: 0.685262 cumulative IPC: 0.622285 (Simulation time: 0 hr 6 min 57 sec) 
Heartbeat CPU 0 instructions: 200000000 cycles: 219252349 heartbeat IPC: 0.591751 cumulative IPC: 0.61909 (Simulation time: 0 hr 7 min 23 sec) 
Heartbeat CPU 0 instructions: 210000003 cycles: 235131693 heartbeat IPC: 0.629749 cumulative IPC: 0.620045 (Simulation time: 0 hr 7 min 49 sec) 
Heartbeat CPU 0 instructions: 220000000 cycles: 252802072 heartbeat IPC: 0.565919 cumulative IPC: 0.615142 (Simulation time: 0 hr 8 min 15 sec) 
Heartbeat CPU 0 instructions: 230000000 cycles: 270570689 heartbeat IPC: 0.56279 cumulative IPC: 0.610771 (Simulation time: 0 hr 8 min 40 sec) 
Heartbeat CPU 0 instructions: 240000000 cycles: 285178325 heartbeat IPC: 0.684573 cumulative IPC: 0.615511 (Simulation time: 0 hr 9 min 4 sec) 
*** Reached end of trace for Core: 0 Repeating trace: /mnt/beegfs/pchatz06/traces/500.perlbench_r.refrate.input1.region_6.w_0.09893.trace.gz
Heartbeat CPU 0 instructions: 250000003 cycles: 300739499 heartbeat IPC: 0.642625 cumulative IPC: 0.617247 (Simulation time: 0 hr 9 min 29 sec) 
Finished CPU 0 instructions: 150000002 cycles: 243014428 cumulative IPC: 0.617247 (Simulation time: 0 hr 9 min 29 sec) 

CPU 0 Branch Prediction Accuracy: 98.3356% MPKI: 2.63739
Number of Branches: 23768511 Number of Mispredictions: 395609
Number of LOAD Instructions: 67694829
Number of LOAD Instructions (ROI): 67694829
Number of STORE Instructions: 48039411
Number of STORE Instructions (ROI): 48039411
Total Destination Memory Operands: 49112536
Total Destination Memory Operands (ROI): 49112536
Total Source Memory Operands: 67694829
Total Source Memory Operands (ROI): 67694829
Number of DEPENDED LOADS: 6169615
Number of DEPENDED LOADS (ROI): 6169615
Number of SQ_ADDED: 49112524
Number of SQ_ADDED (ROI): 49112524
Number of LQ_ADDED: 73886853
Number of LQ_ADDED (ROI): 73886853
Number of Instructions read from trace: 250000058

ChampSim completed all CPUs

Region of Interest Statistics

CPU 0 cumulative IPC: 0.617247 instructions: 150000002 cycles: 243014428
ITLB TOTAL     ACCESS:   34620542  HIT:   34620542  MISS:          0
ITLB LOAD      ACCESS:   34620542  HIT:   34620542  MISS:          0
ITLB RFO       ACCESS:          0  HIT:          0  MISS:          0
ITLB PREFETCH  ACCESS:          0  HIT:          0  MISS:          0
ITLB WRITEBACK ACCESS:          0  HIT:          0  MISS:          0
ITLB PREFETCH  REQUESTED:          0  ISSUED:          0  USEFUL:          0  USELESS:          0
ITLB TOTAL MSHR MERGED:          0
ITLB LOAD MSHR MERGED:          0
ITLB RFO MSHR MERGED:          0
ITLB PREFETCH MSHR MERGED:          0
ITLB WRITEBACK MSHR MERGED:          0
ITLB TOTAL ACCESSES:   34620542 HITS:   34620542 MISSES:          0
ITLB LOAD ACCESSES:   34620542 HITS:   34620542 MISSES:          0
ITLB RFO ACCESSES:          0 HITS:          0 MISSES:          0
ITLB PREFETCH ACCESSES:          0 HITS:          0 MISSES:          0
ITLB WRITEBACK ACCESSES:          0 HITS:          0 MISSES:          0
ITLB RQ ACCESS:  150000057
ITLB RQ TO_CACHE:   34620542
ITLB RQ MERGED:  115379515
ITLB RQ FORWARD:          0
ITLB WQ ACCESS:          0
ITLB WQ TO_CACHE:          0
ITLB WQ MERGED:          0
ITLB WQ FORWARD:          0
DTLB TOTAL     ACCESS:   46927437  HIT:   46924538  MISS:       2899
DTLB LOAD      ACCESS:   26198149  HIT:   26195407  MISS:       2742
DTLB RFO       ACCESS:   20729288  HIT:   20729131  MISS:        157
DTLB PREFETCH  ACCESS:          0  HIT:          0  MISS:          0
DTLB WRITEBACK ACCESS:          0  HIT:          0  MISS:          0
DTLB PREFETCH  REQUESTED:          0  ISSUED:          0  USEFUL:          0  USELESS:          0
DTLB TOTAL MSHR MERGED:        440
DTLB LOAD MSHR MERGED:        174
DTLB RFO MSHR MERGED:        266
DTLB PREFETCH MSHR MERGED:          0
DTLB WRITEBACK MSHR MERGED:          0
DTLB TOTAL ACCESSES:   46927877 HITS:   46924538 MISSES:       3339
DTLB LOAD ACCESSES:   26198323 HITS:   26195407 MISSES:       2916
DTLB RFO ACCESSES:   20729554 HITS:   20729131 MISSES:        423
DTLB PREFETCH ACCESSES:          0 HITS:          0 MISSES:          0
DTLB WRITEBACK ACCESSES:          0 HITS:          0 MISSES:          0
DTLB RQ ACCESS:   66235323
DTLB RQ TO_CACHE:   46927877
DTLB RQ MERGED:   19307446
DTLB RQ FORWARD:          0
DTLB WQ ACCESS:          0
DTLB WQ TO_CACHE:          0
DTLB WQ MERGED:          0
DTLB WQ FORWARD:          0
L1D TOTAL     ACCESS:   83983997  HIT:   83944673  MISS:      39324
L1D LOAD      ACCESS:   28399726  HIT:   28386078  MISS:      13648
L1D RFO       ACCESS:   29263112  HIT:   29262054  MISS:       1058
L1D PREFETCH  ACCESS:   26321159  HIT:   26296541  MISS:      24618
L1D WRITEBACK ACCESS:          0  HIT:          0  MISS:          0
L1D PREFETCH  REQUESTED:   28401100  ISSUED:   28320653  USEFUL:      15255  USELESS:       9365
L1D TOTAL MSHR MERGED:       6541
L1D LOAD MSHR MERGED:       1788
L1D RFO MSHR MERGED:       1394
L1D PREFETCH MSHR MERGED:       3359
L1D WRITEBACK MSHR MERGED:          0
L1D TOTAL ACCESSES:   84035747 HITS:   83989882 MISSES:      45865
L1D LOAD ACCESSES:   28401100 HITS:   28386078 MISSES:      15022
L1D RFO ACCESSES:   29264504 HITS:   29262054 MISSES:       2450
L1D PREFETCH ACCESSES:   26370143 HITS:   26341750 MISSES:      28393
L1D WRITEBACK ACCESSES:          0 HITS:          0 MISSES:          0
L1D RQ ACCESS:   36587543
L1D RQ TO_CACHE:   28401100
L1D RQ MERGED:    8186443
L1D RQ FORWARD:          0
L1D WQ ACCESS:   29647779
L1D WQ TO_CACHE:   29264506
L1D WQ MERGED:     383273
L1D WQ FORWARD:      45209
L1I TOTAL     ACCESS:   41751603  HIT:   41748365  MISS:       3238
L1I LOAD      ACCESS:   41751603  HIT:   41748365  MISS:       3238
L1I RFO       ACCESS:          0  HIT:          0  MISS:          0
L1I PREFETCH  ACCESS:          0  HIT:          0  MISS:          0
L1I WRITEBACK ACCESS:          0  HIT:          0  MISS:          0
L1I PREFETCH  REQUESTED:          0  ISSUED:          0  USEFUL:          0  USELESS:          0
L1I TOTAL MSHR MERGED:       2487
L1I LOAD MSHR MERGED:       2487
L1I RFO MSHR MERGED:          0
L1I PREFETCH MSHR MERGED:          0
L1I WRITEBACK MSHR MERGED:          0
L1I TOTAL ACCESSES:   41754090 HITS:   41748365 MISSES:       5725
L1I LOAD ACCESSES:   41754090 HITS:   41748365 MISSES:       5725
L1I RFO ACCESSES:          0 HITS:          0 MISSES:          0
L1I PREFETCH ACCESSES:          0 HITS:          0 MISSES:          0
L1I WRITEBACK ACCESSES:          0 HITS:          0 MISSES:          0
L1I RQ ACCESS:  150000057
L1I RQ TO_CACHE:   41754090
L1I RQ MERGED:  108245967
L1I RQ FORWARD:          0
L1I WQ ACCESS:          0
L1I WQ TO_CACHE:          0
L1I WQ MERGED:          0
L1I WQ FORWARD:          0
L2C TOTAL     ACCESS:      47456  HIT:      32094  MISS:      15362
L2C LOAD      ACCESS:      16470  HIT:       8921  MISS:       7549
L2C RFO       ACCESS:       1056  HIT:        695  MISS:        361
L2C PREFETCH  ACCESS:      26727  HIT:      19301  MISS:       7426
L2C WRITEBACK ACCESS:       3203  HIT:       3177  MISS:         26
L2C PREFETCH  REQUESTED:       1741  ISSUED:       1741  USEFUL:        780  USELESS:       6728
L2C TOTAL MSHR MERGED:          1
L2C LOAD MSHR MERGED:          0
L2C RFO MSHR MERGED:          0
L2C PREFETCH MSHR MERGED:          1
L2C WRITEBACK MSHR MERGED:          0
L2C TOTAL ACCESSES:      47459 HITS:      32096 MISSES:      15363
L2C LOAD ACCESSES:      16472 HITS:       8923 MISSES:       7549
L2C RFO ACCESSES:       1056 HITS:        695 MISSES:        361
L2C PREFETCH ACCESSES:      26728 HITS:      19301 MISSES:       7427
L2C WRITEBACK ACCESSES:       3203 HITS:       3177 MISSES:         26
L2C RQ ACCESS:      17528
L2C RQ TO_CACHE:      17526
L2C RQ MERGED:          0
L2C RQ FORWARD:          0
L2C WQ ACCESS:       3203
L2C WQ TO_CACHE:       3203
L2C WQ MERGED:          0
L2C WQ FORWARD:          2
LLC TOTAL     ACCESS:      16669  HIT:       1981  MISS:      14688
LLC LOAD      ACCESS:       7549  HIT:        488  MISS:       7061
LLC RFO       ACCESS:        361  HIT:         20  MISS:        341
LLC PREFETCH  ACCESS:       7426  HIT:        140  MISS:       7286
LLC WRITEBACK ACCESS:       1333  HIT:       1333  MISS:          0
LLC PREFETCH  REQUESTED:          0  ISSUED:          0  USEFUL:         41  USELESS:         97
LLC TOTAL MSHR MERGED:          0
LLC LOAD MSHR MERGED:          0
LLC RFO MSHR MERGED:          0
LLC PREFETCH MSHR MERGED:          0
LLC WRITEBACK MSHR MERGED:          0
LLC TOTAL ACCESSES:      16669 HITS:       1981 MISSES:      14688
LLC LOAD ACCESSES:       7549 HITS:        488 MISSES:       7061
LLC RFO ACCESSES:        361 HITS:         20 MISSES:        341
LLC PREFETCH ACCESSES:       7426 HITS:        140 MISSES:       7286
LLC WRITEBACK ACCESSES:       1333 HITS:       1333 MISSES:          0
LLC 0 RQ ACCESS:       7910
LLC 0 RQ TO_CACHE:       7910
LLC 0 RQ MERGED:          0
LLC 0 RQ FORWARD:          0
LLC WQ ACCESS:       1333
LLC WQ TO_CACHE:       1333
LLC WQ MERGED:          0
LLC WQ FORWARD:          0
Major fault: 0 Minor fault: 1413
CPU 0 L1D next line prefetcher final stats
CPU 0 L2C PC-based stride prefetcher final stats

DRAM Statistics
 CHANNEL 0
 RQ ROW_BUFFER_HIT:       9321  ROW_BUFFER_MISS:       5367
 DBUS_CONGESTED:       5623
 WQ ROW_BUFFER_HIT:          0  ROW_BUFFER_MISS:          0  FULL:          0

 AVG_CONGESTED_CYCLE: 12
LOADS RETIRED: 40322029
INSTR RETIRED: 150000000
