
*** ChampSim Multicore Out-of-Order Simulator ***

Warmup Instructions: 100000000
Simulation Instructions: 150000000
Number of CPUs: 1
LLC sets: 2048
LLC ways: 16
Clean RRIP Policies: 0 Dirty RRIP Policies: 0 PSEL Width: 10 Track Set: 4294967295 PSEL Mask: 15 Demote Mask: 0DS Algo: 0Window size: 64
Off-chip DRAM Size: 4096 MB Channels: 1 Width: 64-bit Data Rate: 1600 MT/s

CPU 0 runs /mnt/beegfs/pchatz06/traces/502.gcc_r.refrate.input2.region_11.w_0.14465.trace.gz
NOT SORTED
TRACE STRING: /mnt/beegfs/pchatz06/traces/502.gcc_r.refrate.input2.region_11.w_0.14465.trace.gz
SORTED
TRACE STRING: /mnt/beegfs/pchatz06/traces/502.gcc_r.refrate.input2.region_11.w_0.14465.trace.gz
INITIAL
TRACE STRING: /mnt/beegfs/pchatz06/traces/502.gcc_r.refrate.input2.region_11.w_0.14465.trace.gz

champsim_seed used: 260

CPU 0 L1D next line prefetcher
CPU 0 L2C IP-based stride prefetcher
Heartbeat CPU 0 instructions: 10000000 cycles: 6739024 heartbeat IPC: 1.48389 cumulative IPC: 1.48389 (Simulation time: 0 hr 0 min 18 sec) 
Heartbeat CPU 0 instructions: 20000000 cycles: 13547162 heartbeat IPC: 1.46883 cumulative IPC: 1.47632 (Simulation time: 0 hr 0 min 36 sec) 
Heartbeat CPU 0 instructions: 30000003 cycles: 20360144 heartbeat IPC: 1.46779 cumulative IPC: 1.47347 (Simulation time: 0 hr 0 min 55 sec) 
Heartbeat CPU 0 instructions: 40000000 cycles: 27090926 heartbeat IPC: 1.48571 cumulative IPC: 1.47651 (Simulation time: 0 hr 1 min 13 sec) 
Heartbeat CPU 0 instructions: 50000003 cycles: 33821157 heartbeat IPC: 1.48583 cumulative IPC: 1.47836 (Simulation time: 0 hr 1 min 32 sec) 
Heartbeat CPU 0 instructions: 60000000 cycles: 40558540 heartbeat IPC: 1.48426 cumulative IPC: 1.47934 (Simulation time: 0 hr 1 min 51 sec) 
Heartbeat CPU 0 instructions: 70000003 cycles: 47294733 heartbeat IPC: 1.48452 cumulative IPC: 1.48008 (Simulation time: 0 hr 2 min 9 sec) 
Heartbeat CPU 0 instructions: 80000000 cycles: 54057001 heartbeat IPC: 1.47879 cumulative IPC: 1.47992 (Simulation time: 0 hr 2 min 28 sec) 
Heartbeat CPU 0 instructions: 90000001 cycles: 60870109 heartbeat IPC: 1.46776 cumulative IPC: 1.47856 (Simulation time: 0 hr 2 min 47 sec) 
Heartbeat CPU 0 instructions: 100000000 cycles: 67753749 heartbeat IPC: 1.45272 cumulative IPC: 1.47593 (Simulation time: 0 hr 3 min 6 sec) 

Warmup complete CPU 0 instructions: 100000001 cycles: 67753750 (Simulation time: 0 hr 3 min 6 sec) 

Heartbeat CPU 0 instructions: 110000002 cycles: 97629161 heartbeat IPC: 0.334723 cumulative IPC: 0.334723 (Simulation time: 0 hr 3 min 41 sec) 
Heartbeat CPU 0 instructions: 120000000 cycles: 129459199 heartbeat IPC: 0.314169 cumulative IPC: 0.32412 (Simulation time: 0 hr 4 min 17 sec) 
Heartbeat CPU 0 instructions: 130000003 cycles: 161040556 heartbeat IPC: 0.316643 cumulative IPC: 0.321589 (Simulation time: 0 hr 4 min 52 sec) 
Heartbeat CPU 0 instructions: 140000000 cycles: 191558872 heartbeat IPC: 0.327672 cumulative IPC: 0.323088 (Simulation time: 0 hr 5 min 28 sec) 
Heartbeat CPU 0 instructions: 150000000 cycles: 225697540 heartbeat IPC: 0.292923 cumulative IPC: 0.316568 (Simulation time: 0 hr 6 min 5 sec) 
Heartbeat CPU 0 instructions: 160000000 cycles: 257968267 heartbeat IPC: 0.309878 cumulative IPC: 0.315433 (Simulation time: 0 hr 6 min 42 sec) 
Heartbeat CPU 0 instructions: 170000000 cycles: 287354718 heartbeat IPC: 0.340293 cumulative IPC: 0.31876 (Simulation time: 0 hr 7 min 16 sec) 
Heartbeat CPU 0 instructions: 180000000 cycles: 320712766 heartbeat IPC: 0.299778 cumulative IPC: 0.316257 (Simulation time: 0 hr 7 min 52 sec) 
Heartbeat CPU 0 instructions: 190000000 cycles: 352254862 heartbeat IPC: 0.317037 cumulative IPC: 0.316343 (Simulation time: 0 hr 8 min 27 sec) 
Heartbeat CPU 0 instructions: 200000000 cycles: 382509763 heartbeat IPC: 0.330525 cumulative IPC: 0.317706 (Simulation time: 0 hr 9 min 1 sec) 
Heartbeat CPU 0 instructions: 210000000 cycles: 416746804 heartbeat IPC: 0.292081 cumulative IPC: 0.315193 (Simulation time: 0 hr 9 min 37 sec) 
Heartbeat CPU 0 instructions: 220000000 cycles: 448932796 heartbeat IPC: 0.310694 cumulative IPC: 0.314813 (Simulation time: 0 hr 10 min 12 sec) 
Heartbeat CPU 0 instructions: 230000000 cycles: 481141581 heartbeat IPC: 0.310474 cumulative IPC: 0.314475 (Simulation time: 0 hr 10 min 47 sec) 
Heartbeat CPU 0 instructions: 240000000 cycles: 515860115 heartbeat IPC: 0.288031 cumulative IPC: 0.312426 (Simulation time: 0 hr 11 min 23 sec) 
*** Reached end of trace for Core: 0 Repeating trace: /mnt/beegfs/pchatz06/traces/502.gcc_r.refrate.input2.region_11.w_0.14465.trace.gz
Heartbeat CPU 0 instructions: 250000002 cycles: 547737999 heartbeat IPC: 0.313697 cumulative IPC: 0.31251 (Simulation time: 0 hr 11 min 58 sec) 
Finished CPU 0 instructions: 150000001 cycles: 479984249 cumulative IPC: 0.31251 (Simulation time: 0 hr 11 min 58 sec) 

CPU 0 Branch Prediction Accuracy: 98.759% MPKI: 2.59664
Number of Branches: 31384617 Number of Mispredictions: 389496
Number of LOAD Instructions: 75381515
Number of LOAD Instructions (ROI): 75381515
Number of STORE Instructions: 33119142
Number of STORE Instructions (ROI): 33119142
Total Destination Memory Operands: 33623556
Total Destination Memory Operands (ROI): 33623556
Total Source Memory Operands: 75381515
Total Source Memory Operands (ROI): 75381515
Number of DEPENDED LOADS: 1107007
Number of DEPENDED LOADS (ROI): 1107007
Number of SQ_ADDED: 33623556
Number of SQ_ADDED (ROI): 33623556
Number of LQ_ADDED: 76491775
Number of LQ_ADDED (ROI): 76491775
Number of Instructions read from trace: 250000020

ChampSim completed all CPUs

Region of Interest Statistics

CPU 0 cumulative IPC: 0.31251 instructions: 150000001 cycles: 479984249
ITLB TOTAL     ACCESS:   50521461  HIT:   50521446  MISS:         15
ITLB LOAD      ACCESS:   50521461  HIT:   50521446  MISS:         15
ITLB RFO       ACCESS:          0  HIT:          0  MISS:          0
ITLB PREFETCH  ACCESS:          0  HIT:          0  MISS:          0
ITLB WRITEBACK ACCESS:          0  HIT:          0  MISS:          0
ITLB PREFETCH  REQUESTED:          0  ISSUED:          0  USEFUL:          0  USELESS:          0
ITLB TOTAL MSHR MERGED:         10
ITLB LOAD MSHR MERGED:         10
ITLB RFO MSHR MERGED:          0
ITLB PREFETCH MSHR MERGED:          0
ITLB WRITEBACK MSHR MERGED:          0
ITLB TOTAL ACCESSES:   50521471 HITS:   50521446 MISSES:         25
ITLB LOAD ACCESSES:   50521471 HITS:   50521446 MISSES:         25
ITLB RFO ACCESSES:          0 HITS:          0 MISSES:          0
ITLB PREFETCH ACCESSES:          0 HITS:          0 MISSES:          0
ITLB WRITEBACK ACCESSES:          0 HITS:          0 MISSES:          0
ITLB RQ ACCESS:  149999764
ITLB RQ TO_CACHE:   50521471
ITLB RQ MERGED:   99478293
ITLB RQ FORWARD:          0
ITLB WQ ACCESS:          0
ITLB WQ TO_CACHE:          0
ITLB WQ MERGED:          0
ITLB WQ FORWARD:          0
DTLB TOTAL     ACCESS:   53867834  HIT:   53650867  MISS:     216967
DTLB LOAD      ACCESS:   35117001  HIT:   34900336  MISS:     216665
DTLB RFO       ACCESS:   18750833  HIT:   18750531  MISS:        302
DTLB PREFETCH  ACCESS:          0  HIT:          0  MISS:          0
DTLB WRITEBACK ACCESS:          0  HIT:          0  MISS:          0
DTLB PREFETCH  REQUESTED:          0  ISSUED:          0  USEFUL:          0  USELESS:          0
DTLB TOTAL MSHR MERGED:      63657
DTLB LOAD MSHR MERGED:      63568
DTLB RFO MSHR MERGED:         89
DTLB PREFETCH MSHR MERGED:          0
DTLB WRITEBACK MSHR MERGED:          0
DTLB TOTAL ACCESSES:   53931491 HITS:   53650867 MISSES:     280624
DTLB LOAD ACCESSES:   35180569 HITS:   34900336 MISSES:     280233
DTLB RFO ACCESSES:   18750922 HITS:   18750531 MISSES:        391
DTLB PREFETCH ACCESSES:          0 HITS:          0 MISSES:          0
DTLB WRITEBACK ACCESSES:          0 HITS:          0 MISSES:          0
DTLB RQ ACCESS:   64744333
DTLB RQ TO_CACHE:   53931492
DTLB RQ MERGED:   10812841
DTLB RQ FORWARD:          0
DTLB WQ ACCESS:          0
DTLB WQ TO_CACHE:          0
DTLB WQ MERGED:          0
DTLB WQ FORWARD:          0
L1D TOTAL     ACCESS:   88693812  HIT:   87310570  MISS:    1383242
L1D LOAD      ACCESS:   34801192  HIT:   34074161  MISS:     727031
L1D RFO       ACCESS:   20314959  HIT:   20314116  MISS:        843
L1D PREFETCH  ACCESS:   33577661  HIT:   32922293  MISS:     655368
L1D WRITEBACK ACCESS:          0  HIT:          0  MISS:          0
L1D PREFETCH  REQUESTED:   34890008  ISSUED:   34772931  USEFUL:     111338  USELESS:     544023
L1D TOTAL MSHR MERGED:     207701
L1D LOAD MSHR MERGED:      92654
L1D RFO MSHR MERGED:       1460
L1D PREFETCH MSHR MERGED:     113587
L1D WRITEBACK MSHR MERGED:          0
L1D TOTAL ACCESSES:   88908915 HITS:   87317972 MISSES:    1590943
L1D LOAD ACCESSES:   34890045 HITS:   34074198 MISSES:     815847
L1D RFO ACCESSES:   20316413 HITS:   20314116 MISSES:       2297
L1D PREFETCH ACCESSES:   33702457 HITS:   32929658 MISSES:     772799
L1D WRITEBACK ACCESSES:          0 HITS:          0 MISSES:          0
L1D RQ ACCESS:   44417137
L1D RQ TO_CACHE:   34890008
L1D RQ MERGED:    9527092
L1D RQ FORWARD:          0
L1D WQ ACCESS:   20327195
L1D WQ TO_CACHE:   20316413
L1D WQ MERGED:      10782
L1D WQ FORWARD:       7402
L1I TOTAL     ACCESS:   59445901  HIT:   59445724  MISS:        177
L1I LOAD      ACCESS:   59445901  HIT:   59445724  MISS:        177
L1I RFO       ACCESS:          0  HIT:          0  MISS:          0
L1I PREFETCH  ACCESS:          0  HIT:          0  MISS:          0
L1I WRITEBACK ACCESS:          0  HIT:          0  MISS:          0
L1I PREFETCH  REQUESTED:          0  ISSUED:          0  USEFUL:          0  USELESS:          0
L1I TOTAL MSHR MERGED:        102
L1I LOAD MSHR MERGED:        102
L1I RFO MSHR MERGED:          0
L1I PREFETCH MSHR MERGED:          0
L1I WRITEBACK MSHR MERGED:          0
L1I TOTAL ACCESSES:   59446003 HITS:   59445724 MISSES:        279
L1I LOAD ACCESSES:   59446003 HITS:   59445724 MISSES:        279
L1I RFO ACCESSES:          0 HITS:          0 MISSES:          0
L1I PREFETCH ACCESSES:          0 HITS:          0 MISSES:          0
L1I WRITEBACK ACCESSES:          0 HITS:          0 MISSES:          0
L1I RQ ACCESS:  149999769
L1I RQ TO_CACHE:   59446003
L1I RQ MERGED:   90553766
L1I RQ FORWARD:          0
L1I WQ ACCESS:          0
L1I WQ TO_CACHE:          0
L1I WQ MERGED:          0
L1I WQ FORWARD:          0
L2C TOTAL     ACCESS:    1616490  HIT:     227031  MISS:    1389459
L2C LOAD      ACCESS:     723370  HIT:      34799  MISS:     688571
L2C RFO       ACCESS:        837  HIT:        242  MISS:        595
L2C PREFETCH  ACCESS:     742420  HIT:      42771  MISS:     699649
L2C WRITEBACK ACCESS:     149863  HIT:     149219  MISS:        644
L2C PREFETCH  REQUESTED:      87954  ISSUED:      87954  USEFUL:      19399  USELESS:     680553
L2C TOTAL MSHR MERGED:       2013
L2C LOAD MSHR MERGED:        808
L2C RFO MSHR MERGED:          0
L2C PREFETCH MSHR MERGED:       1205
L2C WRITEBACK MSHR MERGED:          0
L2C TOTAL ACCESSES:    1619467 HITS:     227031 MISSES:    1392436
L2C LOAD ACCESSES:     723370 HITS:      34799 MISSES:     688571
L2C RFO ACCESSES:        837 HITS:        242 MISSES:        595
L2C PREFETCH ACCESSES:     745397 HITS:      42771 MISSES:     702626
L2C WRITEBACK ACCESSES:     149863 HITS:     149219 MISSES:        644
L2C RQ ACCESS:     724207
L2C RQ TO_CACHE:     724207
L2C RQ MERGED:          0
L2C RQ FORWARD:          0
L2C WQ ACCESS:     149863
L2C WQ TO_CACHE:     149863
L2C WQ MERGED:          0
L2C WQ FORWARD:          0
LLC TOTAL     ACCESS:    1537921  HIT:     796772  MISS:     741149
LLC LOAD      ACCESS:     687763  HIT:     325095  MISS:     362668
LLC RFO       ACCESS:        595  HIT:        351  MISS:        244
LLC PREFETCH  ACCESS:     701255  HIT:     323041  MISS:     378214
LLC WRITEBACK ACCESS:     148308  HIT:     148285  MISS:         23
LLC PREFETCH  REQUESTED:          0  ISSUED:          0  USEFUL:       5593  USELESS:     374259
LLC TOTAL MSHR MERGED:        138
LLC LOAD MSHR MERGED:         82
LLC RFO MSHR MERGED:          0
LLC PREFETCH MSHR MERGED:         56
LLC WRITEBACK MSHR MERGED:          0
LLC TOTAL ACCESSES:    1538059 HITS:     796772 MISSES:     741287
LLC LOAD ACCESSES:     687763 HITS:     325095 MISSES:     362668
LLC RFO ACCESSES:        595 HITS:        351 MISSES:        244
LLC PREFETCH ACCESSES:     701393 HITS:     323041 MISSES:     378352
LLC WRITEBACK ACCESSES:     148308 HITS:     148285 MISSES:         23
LLC 0 RQ ACCESS:     688358
LLC 0 RQ TO_CACHE:     688358
LLC 0 RQ MERGED:          0
LLC 0 RQ FORWARD:          0
LLC WQ ACCESS:     148308
LLC WQ TO_CACHE:     148308
LLC WQ MERGED:          0
LLC WQ FORWARD:          0
Major fault: 0 Minor fault: 4768
CPU 0 L1D next line prefetcher final stats
CPU 0 L2C PC-based stride prefetcher final stats

DRAM Statistics
 CHANNEL 0
 RQ ROW_BUFFER_HIT:     379322  ROW_BUFFER_MISS:     360562
 DBUS_CONGESTED:     384008
 WQ ROW_BUFFER_HIT:       7549  ROW_BUFFER_MISS:     100474  FULL:          0

 AVG_CONGESTED_CYCLE: 13
LOADS RETIRED: 45068490
INSTR RETIRED: 150000000
