
*** ChampSim Multicore Out-of-Order Simulator ***

Warmup Instructions: 100000000
Simulation Instructions: 150000000
Number of CPUs: 1
LLC sets: 2048
LLC ways: 16
Clean RRIP Policies: 0 Dirty RRIP Policies: 0 PSEL Width: 10 Track Set: 4294967295 PSEL Mask: 15 Demote Mask: 0DS Algo: 0Window size: 64
Off-chip DRAM Size: 4096 MB Channels: 1 Width: 64-bit Data Rate: 1600 MT/s

CPU 0 runs /mnt/beegfs/pchatz06/traces/502.gcc_r.train.input1.region_9.w_0.22705.trace.gz
NOT SORTED
TRACE STRING: /mnt/beegfs/pchatz06/traces/502.gcc_r.train.input1.region_9.w_0.22705.trace.gz
SORTED
TRACE STRING: /mnt/beegfs/pchatz06/traces/502.gcc_r.train.input1.region_9.w_0.22705.trace.gz
INITIAL
TRACE STRING: /mnt/beegfs/pchatz06/traces/502.gcc_r.train.input1.region_9.w_0.22705.trace.gz

champsim_seed used: 256

CPU 0 L1D next line prefetcher
CPU 0 L2C IP-based stride prefetcher
Heartbeat CPU 0 instructions: 10000000 cycles: 6543125 heartbeat IPC: 1.52832 cumulative IPC: 1.52832 (Simulation time: 0 hr 0 min 16 sec) 
Heartbeat CPU 0 instructions: 20000000 cycles: 13396636 heartbeat IPC: 1.45911 cumulative IPC: 1.49291 (Simulation time: 0 hr 0 min 32 sec) 
Heartbeat CPU 0 instructions: 30000000 cycles: 20013195 heartbeat IPC: 1.51136 cumulative IPC: 1.49901 (Simulation time: 0 hr 0 min 48 sec) 
Heartbeat CPU 0 instructions: 40000000 cycles: 27315246 heartbeat IPC: 1.36948 cumulative IPC: 1.46438 (Simulation time: 0 hr 1 min 5 sec) 
Heartbeat CPU 0 instructions: 50000000 cycles: 33674499 heartbeat IPC: 1.57251 cumulative IPC: 1.4848 (Simulation time: 0 hr 1 min 21 sec) 
Heartbeat CPU 0 instructions: 60000000 cycles: 40595082 heartbeat IPC: 1.44497 cumulative IPC: 1.47801 (Simulation time: 0 hr 1 min 37 sec) 
Heartbeat CPU 0 instructions: 70000000 cycles: 47685584 heartbeat IPC: 1.41034 cumulative IPC: 1.46795 (Simulation time: 0 hr 1 min 54 sec) 
Heartbeat CPU 0 instructions: 80000000 cycles: 53851214 heartbeat IPC: 1.62189 cumulative IPC: 1.48557 (Simulation time: 0 hr 2 min 10 sec) 
Heartbeat CPU 0 instructions: 90000001 cycles: 60414722 heartbeat IPC: 1.52358 cumulative IPC: 1.4897 (Simulation time: 0 hr 2 min 25 sec) 
Heartbeat CPU 0 instructions: 100000000 cycles: 66142111 heartbeat IPC: 1.746 cumulative IPC: 1.5119 (Simulation time: 0 hr 2 min 40 sec) 

Warmup complete CPU 0 instructions: 100000001 cycles: 66142113 (Simulation time: 0 hr 2 min 40 sec) 

Heartbeat CPU 0 instructions: 110000000 cycles: 84496649 heartbeat IPC: 0.544824 cumulative IPC: 0.544824 (Simulation time: 0 hr 3 min 3 sec) 
Heartbeat CPU 0 instructions: 120000000 cycles: 105247775 heartbeat IPC: 0.481902 cumulative IPC: 0.511435 (Simulation time: 0 hr 3 min 30 sec) 
Heartbeat CPU 0 instructions: 130000000 cycles: 128554863 heartbeat IPC: 0.429054 cumulative IPC: 0.480671 (Simulation time: 0 hr 4 min 0 sec) 
Heartbeat CPU 0 instructions: 140000000 cycles: 153624209 heartbeat IPC: 0.398894 cumulative IPC: 0.457236 (Simulation time: 0 hr 4 min 30 sec) 
Heartbeat CPU 0 instructions: 150000000 cycles: 180827715 heartbeat IPC: 0.3676 cumulative IPC: 0.435975 (Simulation time: 0 hr 5 min 1 sec) 
Heartbeat CPU 0 instructions: 160000000 cycles: 206786847 heartbeat IPC: 0.385221 cumulative IPC: 0.426607 (Simulation time: 0 hr 5 min 32 sec) 
Heartbeat CPU 0 instructions: 170000001 cycles: 228198560 heartbeat IPC: 0.467034 cumulative IPC: 0.431948 (Simulation time: 0 hr 6 min 0 sec) 
Heartbeat CPU 0 instructions: 180000000 cycles: 254036270 heartbeat IPC: 0.387031 cumulative IPC: 0.425772 (Simulation time: 0 hr 6 min 30 sec) 
Heartbeat CPU 0 instructions: 190000001 cycles: 282767085 heartbeat IPC: 0.348058 cumulative IPC: 0.415465 (Simulation time: 0 hr 7 min 1 sec) 
Heartbeat CPU 0 instructions: 200000000 cycles: 309719611 heartbeat IPC: 0.371023 cumulative IPC: 0.410547 (Simulation time: 0 hr 7 min 31 sec) 
Heartbeat CPU 0 instructions: 210000000 cycles: 332252812 heartbeat IPC: 0.44379 cumulative IPC: 0.413362 (Simulation time: 0 hr 7 min 58 sec) 
Heartbeat CPU 0 instructions: 220000000 cycles: 359317012 heartbeat IPC: 0.369492 cumulative IPC: 0.409312 (Simulation time: 0 hr 8 min 24 sec) 
Heartbeat CPU 0 instructions: 230000000 cycles: 391182966 heartbeat IPC: 0.313815 cumulative IPC: 0.39995 (Simulation time: 0 hr 8 min 52 sec) 
Heartbeat CPU 0 instructions: 240000000 cycles: 420245414 heartbeat IPC: 0.344087 cumulative IPC: 0.395365 (Simulation time: 0 hr 9 min 19 sec) 
*** Reached end of trace for Core: 0 Repeating trace: /mnt/beegfs/pchatz06/traces/502.gcc_r.train.input1.region_9.w_0.22705.trace.gz
Heartbeat CPU 0 instructions: 250000001 cycles: 447300664 heartbeat IPC: 0.369614 cumulative IPC: 0.393537 (Simulation time: 0 hr 9 min 46 sec) 
Finished CPU 0 instructions: 150000000 cycles: 381158551 cumulative IPC: 0.393537 (Simulation time: 0 hr 9 min 46 sec) 

CPU 0 Branch Prediction Accuracy: 94.3849% MPKI: 11.0073
Number of Branches: 29404630 Number of Mispredictions: 1651101
Number of LOAD Instructions: 71439398
Number of LOAD Instructions (ROI): 71439398
Number of STORE Instructions: 32583605
Number of STORE Instructions (ROI): 32583605
Total Destination Memory Operands: 34336738
Total Destination Memory Operands (ROI): 34336738
Total Source Memory Operands: 71452902
Total Source Memory Operands (ROI): 71452902
Number of DEPENDED LOADS: 3787261
Number of DEPENDED LOADS (ROI): 3787261
Number of SQ_ADDED: 34336735
Number of SQ_ADDED (ROI): 34336735
Number of LQ_ADDED: 89328021
Number of LQ_ADDED (ROI): 89328021
Number of Instructions read from trace: 250000019

ChampSim completed all CPUs

Region of Interest Statistics

CPU 0 cumulative IPC: 0.393537 instructions: 150000000 cycles: 381158551
ITLB TOTAL     ACCESS:   36576002  HIT:   36561585  MISS:      14417
ITLB LOAD      ACCESS:   36576002  HIT:   36561585  MISS:      14417
ITLB RFO       ACCESS:          0  HIT:          0  MISS:          0
ITLB PREFETCH  ACCESS:          0  HIT:          0  MISS:          0
ITLB WRITEBACK ACCESS:          0  HIT:          0  MISS:          0
ITLB PREFETCH  REQUESTED:          0  ISSUED:          0  USEFUL:          0  USELESS:          0
ITLB TOTAL MSHR MERGED:      13631
ITLB LOAD MSHR MERGED:      13631
ITLB RFO MSHR MERGED:          0
ITLB PREFETCH MSHR MERGED:          0
ITLB WRITEBACK MSHR MERGED:          0
ITLB TOTAL ACCESSES:   36589633 HITS:   36561585 MISSES:      28048
ITLB LOAD ACCESSES:   36589633 HITS:   36561585 MISSES:      28048
ITLB RFO ACCESSES:          0 HITS:          0 MISSES:          0
ITLB PREFETCH ACCESSES:          0 HITS:          0 MISSES:          0
ITLB WRITEBACK ACCESSES:          0 HITS:          0 MISSES:          0
ITLB RQ ACCESS:  149999939
ITLB RQ TO_CACHE:   36589633
ITLB RQ MERGED:  113410306
ITLB RQ FORWARD:          0
ITLB WQ ACCESS:          0
ITLB WQ TO_CACHE:          0
ITLB WQ MERGED:          0
ITLB WQ FORWARD:          0
DTLB TOTAL     ACCESS:   48604419  HIT:   48456662  MISS:     147757
DTLB LOAD      ACCESS:   31128719  HIT:   30995771  MISS:     132948
DTLB RFO       ACCESS:   17475700  HIT:   17460891  MISS:      14809
DTLB PREFETCH  ACCESS:          0  HIT:          0  MISS:          0
DTLB WRITEBACK ACCESS:          0  HIT:          0  MISS:          0
DTLB PREFETCH  REQUESTED:          0  ISSUED:          0  USEFUL:          0  USELESS:          0
DTLB TOTAL MSHR MERGED:      23958
DTLB LOAD MSHR MERGED:      19632
DTLB RFO MSHR MERGED:       4326
DTLB PREFETCH MSHR MERGED:          0
DTLB WRITEBACK MSHR MERGED:          0
DTLB TOTAL ACCESSES:   48628377 HITS:   48456662 MISSES:     171715
DTLB LOAD ACCESSES:   31148351 HITS:   30995771 MISSES:     152580
DTLB RFO ACCESSES:   17480026 HITS:   17460891 MISSES:      19135
DTLB PREFETCH ACCESSES:          0 HITS:          0 MISSES:          0
DTLB WRITEBACK ACCESSES:          0 HITS:          0 MISSES:          0
DTLB RQ ACCESS:   59657148
DTLB RQ TO_CACHE:   48628377
DTLB RQ MERGED:   11028771
DTLB RQ FORWARD:          0
DTLB WQ ACCESS:          0
DTLB WQ TO_CACHE:          0
DTLB WQ MERGED:          0
DTLB WQ FORWARD:          0
L1D TOTAL     ACCESS:   83054420  HIT:   81052158  MISS:    2002262
L1D LOAD      ACCESS:   32292961  HIT:   31389257  MISS:     903704
L1D RFO       ACCESS:   20072380  HIT:   19935682  MISS:     136698
L1D PREFETCH  ACCESS:   30689079  HIT:   29727219  MISS:     961860
L1D WRITEBACK ACCESS:          0  HIT:          0  MISS:          0
L1D PREFETCH  REQUESTED:   32374492  ISSUED:   32119580  USEFUL:     465384  USELESS:     496457
L1D TOTAL MSHR MERGED:     629291
L1D LOAD MSHR MERGED:     141492
L1D RFO MSHR MERGED:     266511
L1D PREFETCH MSHR MERGED:     221288
L1D WRITEBACK MSHR MERGED:          0
L1D TOTAL ACCESSES:   83692592 HITS:   81061035 MISSES:    2631557
L1D LOAD ACCESSES:   32375957 HITS:   31390722 MISSES:     985235
L1D RFO ACCESSES:   20335840 HITS:   19935682 MISSES:     400158
L1D PREFETCH ACCESSES:   30980795 HITS:   29734631 MISSES:    1246164
L1D WRITEBACK ACCESSES:          0 HITS:          0 MISSES:          0
L1D RQ ACCESS:   39149156
L1D RQ TO_CACHE:   32374492
L1D RQ MERGED:    6773199
L1D RQ FORWARD:          0
L1D WQ ACCESS:   20507994
L1D WQ TO_CACHE:   20335840
L1D WQ MERGED:     172154
L1D WQ FORWARD:       8877
L1I TOTAL     ACCESS:   45057400  HIT:   44500305  MISS:     557095
L1I LOAD      ACCESS:   45057400  HIT:   44500305  MISS:     557095
L1I RFO       ACCESS:          0  HIT:          0  MISS:          0
L1I PREFETCH  ACCESS:          0  HIT:          0  MISS:          0
L1I WRITEBACK ACCESS:          0  HIT:          0  MISS:          0
L1I PREFETCH  REQUESTED:          0  ISSUED:          0  USEFUL:          0  USELESS:          0
L1I TOTAL MSHR MERGED:     289948
L1I LOAD MSHR MERGED:     289948
L1I RFO MSHR MERGED:          0
L1I PREFETCH MSHR MERGED:          0
L1I WRITEBACK MSHR MERGED:          0
L1I TOTAL ACCESSES:   45347348 HITS:   44500305 MISSES:     847043
L1I LOAD ACCESSES:   45347348 HITS:   44500305 MISSES:     847043
L1I RFO ACCESSES:          0 HITS:          0 MISSES:          0
L1I PREFETCH ACCESSES:          0 HITS:          0 MISSES:          0
L1I WRITEBACK ACCESSES:          0 HITS:          0 MISSES:          0
L1I RQ ACCESS:  149999943
L1I RQ TO_CACHE:   45347348
L1I RQ MERGED:  104652595
L1I RQ FORWARD:          0
L1I WQ ACCESS:          0
L1I WQ TO_CACHE:          0
L1I WQ MERGED:          0
L1I WQ FORWARD:          0
L2C TOTAL     ACCESS:    3131338  HIT:    2153362  MISS:     977976
L2C LOAD      ACCESS:    1400787  HIT:     995667  MISS:     405120
L2C RFO       ACCESS:     133627  HIT:      69956  MISS:      63671
L2C PREFETCH  ACCESS:    1218005  HIT:     711019  MISS:     506986
L2C WRITEBACK ACCESS:     378919  HIT:     376720  MISS:       2199
L2C PREFETCH  REQUESTED:     248587  ISSUED:     248587  USEFUL:      94849  USELESS:     413310
L2C TOTAL MSHR MERGED:      20972
L2C LOAD MSHR MERGED:       3747
L2C RFO MSHR MERGED:          0
L2C PREFETCH MSHR MERGED:      17225
L2C WRITEBACK MSHR MERGED:          0
L2C TOTAL ACCESSES:    3153578 HITS:    2153470 MISSES:    1000108
L2C LOAD ACCESSES:    1400838 HITS:     995717 MISSES:     405121
L2C RFO ACCESSES:     133647 HITS:      69976 MISSES:      63671
L2C PREFETCH ACCESSES:    1240174 HITS:     711057 MISSES:     529117
L2C WRITEBACK ACCESSES:     378919 HITS:     376720 MISSES:       2199
L2C RQ ACCESS:    1534485
L2C RQ TO_CACHE:    1534415
L2C RQ MERGED:          0
L2C RQ FORWARD:          0
L2C WQ ACCESS:     378919
L2C WQ TO_CACHE:     378919
L2C WQ MERGED:          0
L2C WQ FORWARD:        108
LLC TOTAL     ACCESS:    1147548  HIT:    1022276  MISS:     125272
LLC LOAD      ACCESS:     401372  HIT:     349039  MISS:      52333
LLC RFO       ACCESS:      63671  HIT:      34140  MISS:      29531
LLC PREFETCH  ACCESS:     511732  HIT:     468367  MISS:      43365
LLC WRITEBACK ACCESS:     170773  HIT:     170730  MISS:         43
LLC PREFETCH  REQUESTED:          0  ISSUED:          0  USEFUL:      17432  USELESS:      28819
LLC TOTAL MSHR MERGED:         18
LLC LOAD MSHR MERGED:          8
LLC RFO MSHR MERGED:          0
LLC PREFETCH MSHR MERGED:         10
LLC WRITEBACK MSHR MERGED:          0
LLC TOTAL ACCESSES:    1147570 HITS:    1022278 MISSES:     125292
LLC LOAD ACCESSES:     401374 HITS:     349040 MISSES:      52334
LLC RFO ACCESSES:      63671 HITS:      34140 MISSES:      29531
LLC PREFETCH ACCESSES:     511752 HITS:     468368 MISSES:      43384
LLC WRITEBACK ACCESSES:     170773 HITS:     170730 MISSES:         43
LLC 0 RQ ACCESS:     465045
LLC 0 RQ TO_CACHE:     465044
LLC 0 RQ MERGED:          0
LLC 0 RQ FORWARD:          0
LLC WQ ACCESS:     170774
LLC WQ TO_CACHE:     170774
LLC WQ MERGED:          0
LLC WQ FORWARD:          2
Major fault: 0 Minor fault: 4619
CPU 0 L1D next line prefetcher final stats
CPU 0 L2C PC-based stride prefetcher final stats

DRAM Statistics
 CHANNEL 0
 RQ ROW_BUFFER_HIT:      49500  ROW_BUFFER_MISS:      75297
 DBUS_CONGESTED:      96514
 WQ ROW_BUFFER_HIT:       8948  ROW_BUFFER_MISS:      58319  FULL:          0

 AVG_CONGESTED_CYCLE: 14
LOADS RETIRED: 41286443
INSTR RETIRED: 150000000
