
*** ChampSim Multicore Out-of-Order Simulator ***

Warmup Instructions: 100000000
Simulation Instructions: 150000000
Number of CPUs: 1
LLC sets: 2048
LLC ways: 16
Clean RRIP Policies: 0 Dirty RRIP Policies: 0 PSEL Width: 10 Track Set: 4294967295 PSEL Mask: 15 Demote Mask: 0DS Algo: 0Window size: 64
Off-chip DRAM Size: 4096 MB Channels: 1 Width: 64-bit Data Rate: 1600 MT/s

CPU 0 runs /mnt/beegfs/pchatz06/traces/502.gcc_r.refrate.input2.region_1.w_0.06080.trace.gz
NOT SORTED
TRACE STRING: /mnt/beegfs/pchatz06/traces/502.gcc_r.refrate.input2.region_1.w_0.06080.trace.gz
SORTED
TRACE STRING: /mnt/beegfs/pchatz06/traces/502.gcc_r.refrate.input2.region_1.w_0.06080.trace.gz
INITIAL
TRACE STRING: /mnt/beegfs/pchatz06/traces/502.gcc_r.refrate.input2.region_1.w_0.06080.trace.gz

champsim_seed used: 254

CPU 0 L1D next line prefetcher
CPU 0 L2C IP-based stride prefetcher
Heartbeat CPU 0 instructions: 10000000 cycles: 6645418 heartbeat IPC: 1.5048 cumulative IPC: 1.5048 (Simulation time: 0 hr 0 min 17 sec) 
Heartbeat CPU 0 instructions: 20000000 cycles: 12737189 heartbeat IPC: 1.64156 cumulative IPC: 1.57021 (Simulation time: 0 hr 0 min 34 sec) 
Heartbeat CPU 0 instructions: 30000002 cycles: 18583590 heartbeat IPC: 1.71045 cumulative IPC: 1.61433 (Simulation time: 0 hr 0 min 49 sec) 
Heartbeat CPU 0 instructions: 40000000 cycles: 26012553 heartbeat IPC: 1.34608 cumulative IPC: 1.53772 (Simulation time: 0 hr 1 min 4 sec) 
Heartbeat CPU 0 instructions: 50000002 cycles: 33467031 heartbeat IPC: 1.34148 cumulative IPC: 1.49401 (Simulation time: 0 hr 1 min 19 sec) 
Heartbeat CPU 0 instructions: 60000000 cycles: 39785176 heartbeat IPC: 1.58274 cumulative IPC: 1.5081 (Simulation time: 0 hr 1 min 33 sec) 
Heartbeat CPU 0 instructions: 70000003 cycles: 46085893 heartbeat IPC: 1.58712 cumulative IPC: 1.5189 (Simulation time: 0 hr 1 min 49 sec) 
Heartbeat CPU 0 instructions: 80000000 cycles: 52063509 heartbeat IPC: 1.67291 cumulative IPC: 1.53658 (Simulation time: 0 hr 2 min 3 sec) 
Heartbeat CPU 0 instructions: 90000000 cycles: 58458512 heartbeat IPC: 1.56372 cumulative IPC: 1.53955 (Simulation time: 0 hr 2 min 19 sec) 
Heartbeat CPU 0 instructions: 100000000 cycles: 65227244 heartbeat IPC: 1.47738 cumulative IPC: 1.5331 (Simulation time: 0 hr 2 min 34 sec) 

Warmup complete CPU 0 instructions: 100000003 cycles: 65227248 (Simulation time: 0 hr 2 min 34 sec) 

Heartbeat CPU 0 instructions: 110000003 cycles: 95665724 heartbeat IPC: 0.328532 cumulative IPC: 0.328532 (Simulation time: 0 hr 3 min 6 sec) 
Heartbeat CPU 0 instructions: 120000000 cycles: 123050994 heartbeat IPC: 0.36516 cumulative IPC: 0.345879 (Simulation time: 0 hr 3 min 34 sec) 
Heartbeat CPU 0 instructions: 130000002 cycles: 147774079 heartbeat IPC: 0.40448 cumulative IPC: 0.36343 (Simulation time: 0 hr 4 min 2 sec) 
Heartbeat CPU 0 instructions: 140000000 cycles: 172105259 heartbeat IPC: 0.410995 cumulative IPC: 0.374258 (Simulation time: 0 hr 4 min 28 sec) 
Heartbeat CPU 0 instructions: 150000000 cycles: 200202571 heartbeat IPC: 0.355906 cumulative IPC: 0.370438 (Simulation time: 0 hr 4 min 57 sec) 
Heartbeat CPU 0 instructions: 160000000 cycles: 227565981 heartbeat IPC: 0.365452 cumulative IPC: 0.369598 (Simulation time: 0 hr 5 min 25 sec) 
Heartbeat CPU 0 instructions: 170000003 cycles: 258210676 heartbeat IPC: 0.326321 cumulative IPC: 0.362725 (Simulation time: 0 hr 5 min 54 sec) 
Heartbeat CPU 0 instructions: 180000000 cycles: 285533861 heartbeat IPC: 0.365989 cumulative IPC: 0.36313 (Simulation time: 0 hr 6 min 22 sec) 
Heartbeat CPU 0 instructions: 190000000 cycles: 323384295 heartbeat IPC: 0.264198 cumulative IPC: 0.348625 (Simulation time: 0 hr 6 min 59 sec) 
Heartbeat CPU 0 instructions: 200000000 cycles: 362053514 heartbeat IPC: 0.258604 cumulative IPC: 0.336897 (Simulation time: 0 hr 7 min 37 sec) 
Heartbeat CPU 0 instructions: 210000000 cycles: 395895287 heartbeat IPC: 0.295493 cumulative IPC: 0.33266 (Simulation time: 0 hr 8 min 13 sec) 
Heartbeat CPU 0 instructions: 220000000 cycles: 419275707 heartbeat IPC: 0.427708 cumulative IPC: 0.338937 (Simulation time: 0 hr 8 min 39 sec) 
Heartbeat CPU 0 instructions: 230000000 cycles: 445182536 heartbeat IPC: 0.385999 cumulative IPC: 0.342146 (Simulation time: 0 hr 9 min 6 sec) 
Heartbeat CPU 0 instructions: 240000000 cycles: 470914968 heartbeat IPC: 0.388615 cumulative IPC: 0.345093 (Simulation time: 0 hr 9 min 33 sec) 
*** Reached end of trace for Core: 0 Repeating trace: /mnt/beegfs/pchatz06/traces/502.gcc_r.refrate.input2.region_1.w_0.06080.trace.gz
Heartbeat CPU 0 instructions: 250000000 cycles: 497393731 heartbeat IPC: 0.377661 cumulative IPC: 0.347088 (Simulation time: 0 hr 10 min 1 sec) 
Finished CPU 0 instructions: 150000000 cycles: 432166699 cumulative IPC: 0.347088 (Simulation time: 0 hr 10 min 1 sec) 

CPU 0 Branch Prediction Accuracy: 95.3349% MPKI: 9.06567
Number of Branches: 29149563 Number of Mispredictions: 1359850
Number of LOAD Instructions: 75549452
Number of LOAD Instructions (ROI): 75549452
Number of STORE Instructions: 36962581
Number of STORE Instructions (ROI): 36962581
Total Destination Memory Operands: 38595523
Total Destination Memory Operands (ROI): 38595523
Total Source Memory Operands: 75549452
Total Source Memory Operands (ROI): 75549452
Number of DEPENDED LOADS: 3668250
Number of DEPENDED LOADS (ROI): 3668250
Number of SQ_ADDED: 38595523
Number of SQ_ADDED (ROI): 38595523
Number of LQ_ADDED: 88333282
Number of LQ_ADDED (ROI): 88333282
Number of Instructions read from trace: 250000015

ChampSim completed all CPUs

Region of Interest Statistics

CPU 0 cumulative IPC: 0.347088 instructions: 150000000 cycles: 432166699
ITLB TOTAL     ACCESS:   36224220  HIT:   36222517  MISS:       1703
ITLB LOAD      ACCESS:   36224220  HIT:   36222517  MISS:       1703
ITLB RFO       ACCESS:          0  HIT:          0  MISS:          0
ITLB PREFETCH  ACCESS:          0  HIT:          0  MISS:          0
ITLB WRITEBACK ACCESS:          0  HIT:          0  MISS:          0
ITLB PREFETCH  REQUESTED:          0  ISSUED:          0  USEFUL:          0  USELESS:          0
ITLB TOTAL MSHR MERGED:       2018
ITLB LOAD MSHR MERGED:       2018
ITLB RFO MSHR MERGED:          0
ITLB PREFETCH MSHR MERGED:          0
ITLB WRITEBACK MSHR MERGED:          0
ITLB TOTAL ACCESSES:   36226238 HITS:   36222517 MISSES:       3721
ITLB LOAD ACCESSES:   36226238 HITS:   36222517 MISSES:       3721
ITLB RFO ACCESSES:          0 HITS:          0 MISSES:          0
ITLB PREFETCH ACCESSES:          0 HITS:          0 MISSES:          0
ITLB WRITEBACK ACCESSES:          0 HITS:          0 MISSES:          0
ITLB RQ ACCESS:  149999828
ITLB RQ TO_CACHE:   36226238
ITLB RQ MERGED:  113773590
ITLB RQ FORWARD:          0
ITLB WQ ACCESS:          0
ITLB WQ TO_CACHE:          0
ITLB WQ MERGED:          0
ITLB WQ FORWARD:          0
DTLB TOTAL     ACCESS:   51875243  HIT:   51547608  MISS:     327635
DTLB LOAD      ACCESS:   30777413  HIT:   30483094  MISS:     294319
DTLB RFO       ACCESS:   21097830  HIT:   21064514  MISS:      33316
DTLB PREFETCH  ACCESS:          0  HIT:          0  MISS:          0
DTLB WRITEBACK ACCESS:          0  HIT:          0  MISS:          0
DTLB PREFETCH  REQUESTED:          0  ISSUED:          0  USEFUL:          0  USELESS:          0
DTLB TOTAL MSHR MERGED:      77458
DTLB LOAD MSHR MERGED:      68293
DTLB RFO MSHR MERGED:       9165
DTLB PREFETCH MSHR MERGED:          0
DTLB WRITEBACK MSHR MERGED:          0
DTLB TOTAL ACCESSES:   51952701 HITS:   51547608 MISSES:     405093
DTLB LOAD ACCESSES:   30845706 HITS:   30483094 MISSES:     362612
DTLB RFO ACCESSES:   21106995 HITS:   21064514 MISSES:      42481
DTLB PREFETCH ACCESSES:          0 HITS:          0 MISSES:          0
DTLB WRITEBACK ACCESSES:          0 HITS:          0 MISSES:          0
DTLB RQ ACCESS:   66723067
DTLB RQ TO_CACHE:   51952701
DTLB RQ MERGED:   14770366
DTLB RQ FORWARD:          0
DTLB WQ ACCESS:          0
DTLB WQ TO_CACHE:          0
DTLB WQ MERGED:          0
DTLB WQ FORWARD:          0
L1D TOTAL     ACCESS:   84643937  HIT:   80305243  MISS:    4338694
L1D LOAD      ACCESS:   31597666  HIT:   29584659  MISS:    2013007
L1D RFO       ACCESS:   23485272  HIT:   23155607  MISS:     329665
L1D PREFETCH  ACCESS:   29560999  HIT:   27564977  MISS:    1996022
L1D WRITEBACK ACCESS:          0  HIT:          0  MISS:          0
L1D PREFETCH  REQUESTED:   31869888  ISSUED:   31620714  USEFUL:     975856  USELESS:    1020222
L1D TOTAL MSHR MERGED:    1675855
L1D LOAD MSHR MERGED:     459223
L1D RFO MSHR MERGED:     490366
L1D PREFETCH MSHR MERGED:     726266
L1D WRITEBACK MSHR MERGED:          0
L1D TOTAL ACCESSES:   86347887 HITS:   80333337 MISSES:    6014550
L1D LOAD ACCESSES:   31869961 HITS:   29584732 MISSES:    2285229
L1D RFO ACCESSES:   23933662 HITS:   23155607 MISSES:     778055
L1D PREFETCH ACCESSES:   30544264 HITS:   27592998 MISSES:    2951266
L1D WRITEBACK ACCESSES:          0 HITS:          0 MISSES:          0
L1D RQ ACCESS:   42616337
L1D RQ TO_CACHE:   31869888
L1D RQ MERGED:   10746376
L1D RQ FORWARD:          0
L1D WQ ACCESS:   24106734
L1D WQ TO_CACHE:   23933662
L1D WQ MERGED:     173072
L1D WQ FORWARD:      28094
L1I TOTAL     ACCESS:   45143808  HIT:   44902985  MISS:     240823
L1I LOAD      ACCESS:   45143808  HIT:   44902985  MISS:     240823
L1I RFO       ACCESS:          0  HIT:          0  MISS:          0
L1I PREFETCH  ACCESS:          0  HIT:          0  MISS:          0
L1I WRITEBACK ACCESS:          0  HIT:          0  MISS:          0
L1I PREFETCH  REQUESTED:          0  ISSUED:          0  USEFUL:          0  USELESS:          0
L1I TOTAL MSHR MERGED:     123523
L1I LOAD MSHR MERGED:     123523
L1I RFO MSHR MERGED:          0
L1I PREFETCH MSHR MERGED:          0
L1I WRITEBACK MSHR MERGED:          0
L1I TOTAL ACCESSES:   45267331 HITS:   44902985 MISSES:     364346
L1I LOAD ACCESSES:   45267331 HITS:   44902985 MISSES:     364346
L1I RFO ACCESSES:          0 HITS:          0 MISSES:          0
L1I PREFETCH ACCESSES:          0 HITS:          0 MISSES:          0
L1I WRITEBACK ACCESSES:          0 HITS:          0 MISSES:          0
L1I RQ ACCESS:  149999832
L1I RQ TO_CACHE:   45267331
L1I RQ MERGED:  104732501
L1I RQ FORWARD:          0
L1I WQ ACCESS:          0
L1I WQ TO_CACHE:          0
L1I WQ MERGED:          0
L1I WQ FORWARD:          0
L2C TOTAL     ACCESS:    5760423  HIT:    2991272  MISS:    2769151
L2C LOAD      ACCESS:    2066778  HIT:    1007296  MISS:    1059482
L2C RFO       ACCESS:     287686  HIT:     130575  MISS:     157111
L2C PREFETCH  ACCESS:    2507144  HIT:     956630  MISS:    1550514
L2C WRITEBACK ACCESS:     898815  HIT:     896771  MISS:       2044
L2C PREFETCH  REQUESTED:     330046  ISSUED:     330046  USEFUL:     261494  USELESS:    1288496
L2C TOTAL MSHR MERGED:      15654
L2C LOAD MSHR MERGED:       2610
L2C RFO MSHR MERGED:          1
L2C PREFETCH MSHR MERGED:      13043
L2C WRITEBACK MSHR MERGED:          0
L2C TOTAL ACCESSES:    5782836 HITS:    2991352 MISSES:    2791484
L2C LOAD ACCESSES:    2066829 HITS:    1007347 MISSES:    1059482
L2C RFO ACCESSES:     287689 HITS:     130578 MISSES:     157111
L2C PREFETCH ACCESSES:    2529503 HITS:     956656 MISSES:    1572847
L2C WRITEBACK ACCESSES:     898815 HITS:     896771 MISSES:       2044
L2C RQ ACCESS:    2354518
L2C RQ TO_CACHE:    2354464
L2C RQ MERGED:          0
L2C RQ FORWARD:          0
L2C WQ ACCESS:     898815
L2C WQ TO_CACHE:     898815
L2C WQ MERGED:          0
L2C WQ FORWARD:         80
LLC TOTAL     ACCESS:    3392740  HIT:    2644473  MISS:     748267
LLC LOAD      ACCESS:    1056871  HIT:     793069  MISS:     263802
LLC RFO       ACCESS:     157108  HIT:     100662  MISS:      56446
LLC PREFETCH  ACCESS:    1554896  HIT:    1127058  MISS:     427838
LLC WRITEBACK ACCESS:     623865  HIT:     623684  MISS:        181
LLC PREFETCH  REQUESTED:          0  ISSUED:          0  USEFUL:     100962  USELESS:     325001
LLC TOTAL MSHR MERGED:       3932
LLC LOAD MSHR MERGED:       1407
LLC RFO MSHR MERGED:          0
LLC PREFETCH MSHR MERGED:       2525
LLC WRITEBACK MSHR MERGED:          0
LLC TOTAL ACCESSES:    3396679 HITS:    2644480 MISSES:     752199
LLC LOAD ACCESSES:    1056872 HITS:     793070 MISSES:     263802
LLC RFO ACCESSES:     157110 HITS:     100664 MISSES:      56446
LLC PREFETCH ACCESSES:    1558832 HITS:    1127062 MISSES:     431770
LLC WRITEBACK ACCESSES:     623865 HITS:     623684 MISSES:        181
LLC 0 RQ ACCESS:    1213982
LLC 0 RQ TO_CACHE:    1213979
LLC 0 RQ MERGED:          0
LLC 0 RQ FORWARD:          0
LLC WQ ACCESS:     623865
LLC WQ TO_CACHE:     623865
LLC WQ MERGED:          0
LLC WQ FORWARD:          7
Major fault: 0 Minor fault: 6225
CPU 0 L1D next line prefetcher final stats
CPU 0 L2C PC-based stride prefetcher final stats

DRAM Statistics
 CHANNEL 0
 RQ ROW_BUFFER_HIT:     304665  ROW_BUFFER_MISS:     442662
 DBUS_CONGESTED:     460047
 WQ ROW_BUFFER_HIT:      28361  ROW_BUFFER_MISS:     208380  FULL:          0

 AVG_CONGESTED_CYCLE: 13
LOADS RETIRED: 44570428
INSTR RETIRED: 150000000
