
*** ChampSim Multicore Out-of-Order Simulator ***

Warmup Instructions: 100000000
Simulation Instructions: 150000000
Number of CPUs: 1
LLC sets: 2048
LLC ways: 16
Clean RRIP Policies: 0 Dirty RRIP Policies: 0 PSEL Width: 10 Track Set: 4294967295 PSEL Mask: 15 Demote Mask: 0DS Algo: 0Window size: 64
Off-chip DRAM Size: 4096 MB Channels: 1 Width: 64-bit Data Rate: 1600 MT/s

CPU 0 runs /mnt/beegfs/pchatz06/traces/503.bwaves_r.train.input1.region_14.w_0.25768.trace.gz
NOT SORTED
TRACE STRING: /mnt/beegfs/pchatz06/traces/503.bwaves_r.train.input1.region_14.w_0.25768.trace.gz
SORTED
TRACE STRING: /mnt/beegfs/pchatz06/traces/503.bwaves_r.train.input1.region_14.w_0.25768.trace.gz
INITIAL
TRACE STRING: /mnt/beegfs/pchatz06/traces/503.bwaves_r.train.input1.region_14.w_0.25768.trace.gz

champsim_seed used: 268

CPU 0 L1D next line prefetcher
CPU 0 L2C IP-based stride prefetcher
Heartbeat CPU 0 instructions: 10000002 cycles: 4301693 heartbeat IPC: 2.32467 cumulative IPC: 2.32467 (Simulation time: 0 hr 0 min 11 sec) 
Heartbeat CPU 0 instructions: 20000000 cycles: 8597838 heartbeat IPC: 2.32767 cumulative IPC: 2.32617 (Simulation time: 0 hr 0 min 23 sec) 
Heartbeat CPU 0 instructions: 30000000 cycles: 12900365 heartbeat IPC: 2.32422 cumulative IPC: 2.32552 (Simulation time: 0 hr 0 min 34 sec) 
Heartbeat CPU 0 instructions: 40000000 cycles: 17196372 heartbeat IPC: 2.32774 cumulative IPC: 2.32607 (Simulation time: 0 hr 0 min 45 sec) 
Heartbeat CPU 0 instructions: 50000001 cycles: 21507592 heartbeat IPC: 2.31953 cumulative IPC: 2.32476 (Simulation time: 0 hr 0 min 56 sec) 
Heartbeat CPU 0 instructions: 60000000 cycles: 25822631 heartbeat IPC: 2.31748 cumulative IPC: 2.32354 (Simulation time: 0 hr 1 min 8 sec) 
Heartbeat CPU 0 instructions: 70000002 cycles: 30119112 heartbeat IPC: 2.32749 cumulative IPC: 2.32411 (Simulation time: 0 hr 1 min 19 sec) 
Heartbeat CPU 0 instructions: 80000000 cycles: 34423667 heartbeat IPC: 2.32312 cumulative IPC: 2.32398 (Simulation time: 0 hr 1 min 30 sec) 
Heartbeat CPU 0 instructions: 90000001 cycles: 38729635 heartbeat IPC: 2.32236 cumulative IPC: 2.3238 (Simulation time: 0 hr 1 min 41 sec) 
Heartbeat CPU 0 instructions: 100000000 cycles: 43028557 heartbeat IPC: 2.32616 cumulative IPC: 2.32404 (Simulation time: 0 hr 1 min 53 sec) 

Warmup complete CPU 0 instructions: 100000002 cycles: 43028559 (Simulation time: 0 hr 1 min 53 sec) 

Heartbeat CPU 0 instructions: 110000000 cycles: 52826128 heartbeat IPC: 1.02066 cumulative IPC: 1.02066 (Simulation time: 0 hr 2 min 9 sec) 
Heartbeat CPU 0 instructions: 120000000 cycles: 62624419 heartbeat IPC: 1.02059 cumulative IPC: 1.02062 (Simulation time: 0 hr 2 min 25 sec) 
Heartbeat CPU 0 instructions: 130000002 cycles: 72831679 heartbeat IPC: 0.979695 cumulative IPC: 1.00661 (Simulation time: 0 hr 2 min 42 sec) 
Heartbeat CPU 0 instructions: 140000000 cycles: 82872045 heartbeat IPC: 0.995979 cumulative IPC: 1.00393 (Simulation time: 0 hr 2 min 58 sec) 
Heartbeat CPU 0 instructions: 150000001 cycles: 92658654 heartbeat IPC: 1.0218 cumulative IPC: 1.00745 (Simulation time: 0 hr 3 min 14 sec) 
Heartbeat CPU 0 instructions: 160000000 cycles: 102309726 heartbeat IPC: 1.03615 cumulative IPC: 1.01213 (Simulation time: 0 hr 3 min 30 sec) 
Heartbeat CPU 0 instructions: 170000001 cycles: 111924246 heartbeat IPC: 1.04009 cumulative IPC: 1.01603 (Simulation time: 0 hr 3 min 45 sec) 
Heartbeat CPU 0 instructions: 180000000 cycles: 121598196 heartbeat IPC: 1.0337 cumulative IPC: 1.01821 (Simulation time: 0 hr 4 min 1 sec) 
Heartbeat CPU 0 instructions: 190000000 cycles: 131252316 heartbeat IPC: 1.03583 cumulative IPC: 1.02013 (Simulation time: 0 hr 4 min 17 sec) 
Heartbeat CPU 0 instructions: 200000000 cycles: 140949334 heartbeat IPC: 1.03124 cumulative IPC: 1.02123 (Simulation time: 0 hr 4 min 32 sec) 
Heartbeat CPU 0 instructions: 210000000 cycles: 150615278 heartbeat IPC: 1.03456 cumulative IPC: 1.02243 (Simulation time: 0 hr 4 min 48 sec) 
Heartbeat CPU 0 instructions: 220000000 cycles: 160343135 heartbeat IPC: 1.02798 cumulative IPC: 1.02289 (Simulation time: 0 hr 5 min 4 sec) 
Heartbeat CPU 0 instructions: 230000002 cycles: 170059386 heartbeat IPC: 1.0292 cumulative IPC: 1.02337 (Simulation time: 0 hr 5 min 20 sec) 
Heartbeat CPU 0 instructions: 240000000 cycles: 179728380 heartbeat IPC: 1.03423 cumulative IPC: 1.02414 (Simulation time: 0 hr 5 min 36 sec) 
*** Reached end of trace for Core: 0 Repeating trace: /mnt/beegfs/pchatz06/traces/503.bwaves_r.train.input1.region_14.w_0.25768.trace.gz
Heartbeat CPU 0 instructions: 250000003 cycles: 189439444 heartbeat IPC: 1.02975 cumulative IPC: 1.02451 (Simulation time: 0 hr 5 min 51 sec) 
Finished CPU 0 instructions: 150000001 cycles: 146410885 cumulative IPC: 1.02451 (Simulation time: 0 hr 5 min 51 sec) 

CPU 0 Branch Prediction Accuracy: 92.6696% MPKI: 11.1355
Number of Branches: 22786199 Number of Mispredictions: 1670320
Number of LOAD Instructions: 64226141
Number of LOAD Instructions (ROI): 64226141
Number of STORE Instructions: 12739176
Number of STORE Instructions (ROI): 12739176
Total Destination Memory Operands: 12857393
Total Destination Memory Operands (ROI): 12857393
Total Source Memory Operands: 64226141
Total Source Memory Operands (ROI): 64226141
Number of DEPENDED LOADS: 754064
Number of DEPENDED LOADS (ROI): 754064
Number of SQ_ADDED: 12857392
Number of SQ_ADDED (ROI): 12857392
Number of LQ_ADDED: 64229751
Number of LQ_ADDED (ROI): 64229751
Number of Instructions read from trace: 250000039

ChampSim completed all CPUs

Region of Interest Statistics

CPU 0 cumulative IPC: 1.02451 instructions: 150000001 cycles: 146410885
ITLB TOTAL     ACCESS:   24319407  HIT:   24319407  MISS:          0
ITLB LOAD      ACCESS:   24319407  HIT:   24319407  MISS:          0
ITLB RFO       ACCESS:          0  HIT:          0  MISS:          0
ITLB PREFETCH  ACCESS:          0  HIT:          0  MISS:          0
ITLB WRITEBACK ACCESS:          0  HIT:          0  MISS:          0
ITLB PREFETCH  REQUESTED:          0  ISSUED:          0  USEFUL:          0  USELESS:          0
ITLB TOTAL MSHR MERGED:          0
ITLB LOAD MSHR MERGED:          0
ITLB RFO MSHR MERGED:          0
ITLB PREFETCH MSHR MERGED:          0
ITLB WRITEBACK MSHR MERGED:          0
ITLB TOTAL ACCESSES:   24319407 HITS:   24319407 MISSES:          0
ITLB LOAD ACCESSES:   24319407 HITS:   24319407 MISSES:          0
ITLB RFO ACCESSES:          0 HITS:          0 MISSES:          0
ITLB PREFETCH ACCESSES:          0 HITS:          0 MISSES:          0
ITLB WRITEBACK ACCESSES:          0 HITS:          0 MISSES:          0
ITLB RQ ACCESS:  150000027
ITLB RQ TO_CACHE:   24319407
ITLB RQ MERGED:  125680620
ITLB RQ FORWARD:          0
ITLB WQ ACCESS:          0
ITLB WQ TO_CACHE:          0
ITLB WQ MERGED:          0
ITLB WQ FORWARD:          0
DTLB TOTAL     ACCESS:   26363520  HIT:   26363443  MISS:         77
DTLB LOAD      ACCESS:   21013737  HIT:   21013730  MISS:          7
DTLB RFO       ACCESS:    5349783  HIT:    5349713  MISS:         70
DTLB PREFETCH  ACCESS:          0  HIT:          0  MISS:          0
DTLB WRITEBACK ACCESS:          0  HIT:          0  MISS:          0
DTLB PREFETCH  REQUESTED:          0  ISSUED:          0  USEFUL:          0  USELESS:          0
DTLB TOTAL MSHR MERGED:         88
DTLB LOAD MSHR MERGED:          0
DTLB RFO MSHR MERGED:         88
DTLB PREFETCH MSHR MERGED:          0
DTLB WRITEBACK MSHR MERGED:          0
DTLB TOTAL ACCESSES:   26363608 HITS:   26363443 MISSES:        165
DTLB LOAD ACCESSES:   21013737 HITS:   21013730 MISSES:          7
DTLB RFO ACCESSES:    5349871 HITS:    5349713 MISSES:        158
DTLB PREFETCH ACCESSES:          0 HITS:          0 MISSES:          0
DTLB WRITEBACK ACCESSES:          0 HITS:          0 MISSES:          0
DTLB RQ ACCESS:   45890034
DTLB RQ TO_CACHE:   26363608
DTLB RQ MERGED:   19526426
DTLB RQ FORWARD:          0
DTLB WQ ACCESS:          0
DTLB WQ TO_CACHE:          0
DTLB WQ MERGED:          0
DTLB WQ FORWARD:          0
L1D TOTAL     ACCESS:   44833342  HIT:   44828069  MISS:       5273
L1D LOAD      ACCESS:   22014758  HIT:   22014645  MISS:        113
L1D RFO       ACCESS:    7482726  HIT:    7478125  MISS:       4601
L1D PREFETCH  ACCESS:   15335858  HIT:   15335299  MISS:        559
L1D WRITEBACK ACCESS:          0  HIT:          0  MISS:          0
L1D PREFETCH  REQUESTED:   22014768  ISSUED:   21672622  USEFUL:        469  USELESS:         91
L1D TOTAL MSHR MERGED:      26339
L1D LOAD MSHR MERGED:         11
L1D RFO MSHR MERGED:      26045
L1D PREFETCH MSHR MERGED:        283
L1D WRITEBACK MSHR MERGED:          0
L1D TOTAL ACCESSES:   44860486 HITS:   44828874 MISSES:      31612
L1D LOAD ACCESSES:   22014806 HITS:   22014683 MISSES:        123
L1D RFO ACCESSES:    7508771 HITS:    7478125 MISSES:      30646
L1D PREFETCH ACCESSES:   15336909 HITS:   15336066 MISSES:        843
L1D WRITEBACK ACCESSES:          0 HITS:          0 MISSES:          0
L1D RQ ACCESS:   38331364
L1D RQ TO_CACHE:   22014768
L1D RQ MERGED:   16316558
L1D RQ FORWARD:          0
L1D WQ ACCESS:    7558670
L1D WQ TO_CACHE:    7508771
L1D WQ MERGED:      49899
L1D WQ FORWARD:        805
L1I TOTAL     ACCESS:   27794739  HIT:   27794738  MISS:          1
L1I LOAD      ACCESS:   27794739  HIT:   27794738  MISS:          1
L1I RFO       ACCESS:          0  HIT:          0  MISS:          0
L1I PREFETCH  ACCESS:          0  HIT:          0  MISS:          0
L1I WRITEBACK ACCESS:          0  HIT:          0  MISS:          0
L1I PREFETCH  REQUESTED:          0  ISSUED:          0  USEFUL:          0  USELESS:          0
L1I TOTAL MSHR MERGED:          1
L1I LOAD MSHR MERGED:          1
L1I RFO MSHR MERGED:          0
L1I PREFETCH MSHR MERGED:          0
L1I WRITEBACK MSHR MERGED:          0
L1I TOTAL ACCESSES:   27794740 HITS:   27794738 MISSES:          2
L1I LOAD ACCESSES:   27794740 HITS:   27794738 MISSES:          2
L1I RFO ACCESSES:          0 HITS:          0 MISSES:          0
L1I PREFETCH ACCESSES:          0 HITS:          0 MISSES:          0
L1I WRITEBACK ACCESSES:          0 HITS:          0 MISSES:          0
L1I RQ ACCESS:  150000027
L1I RQ TO_CACHE:   27794740
L1I RQ MERGED:  122205287
L1I RQ FORWARD:          0
L1I WQ ACCESS:          0
L1I WQ TO_CACHE:          0
L1I WQ MERGED:          0
L1I WQ FORWARD:          0
L2C TOTAL     ACCESS:       9897  HIT:       4894  MISS:       5003
L2C LOAD      ACCESS:        113  HIT:         90  MISS:         23
L2C RFO       ACCESS:       4601  HIT:        163  MISS:       4438
L2C PREFETCH  ACCESS:        560  HIT:        107  MISS:        453
L2C WRITEBACK ACCESS:       4623  HIT:       4534  MISS:         89
L2C PREFETCH  REQUESTED:          0  ISSUED:          0  USEFUL:          9  USELESS:        436
L2C TOTAL MSHR MERGED:          0
L2C LOAD MSHR MERGED:          0
L2C RFO MSHR MERGED:          0
L2C PREFETCH MSHR MERGED:          0
L2C WRITEBACK MSHR MERGED:          0
L2C TOTAL ACCESSES:       9897 HITS:       4894 MISSES:       5003
L2C LOAD ACCESSES:        113 HITS:         90 MISSES:         23
L2C RFO ACCESSES:       4601 HITS:        163 MISSES:       4438
L2C PREFETCH ACCESSES:        560 HITS:        107 MISSES:        453
L2C WRITEBACK ACCESSES:       4623 HITS:       4534 MISSES:         89
L2C RQ ACCESS:       4714
L2C RQ TO_CACHE:       4714
L2C RQ MERGED:          0
L2C RQ FORWARD:          0
L2C WQ ACCESS:       4623
L2C WQ TO_CACHE:       4623
L2C WQ MERGED:          0
L2C WQ FORWARD:          0
LLC TOTAL     ACCESS:       9417  HIT:       4534  MISS:       4883
LLC LOAD      ACCESS:         23  HIT:         15  MISS:          8
LLC RFO       ACCESS:       4438  HIT:          0  MISS:       4438
LLC PREFETCH  ACCESS:        453  HIT:         16  MISS:        437
LLC WRITEBACK ACCESS:       4503  HIT:       4503  MISS:          0
LLC PREFETCH  REQUESTED:          0  ISSUED:          0  USEFUL:          4  USELESS:          0
LLC TOTAL MSHR MERGED:          0
LLC LOAD MSHR MERGED:          0
LLC RFO MSHR MERGED:          0
LLC PREFETCH MSHR MERGED:          0
LLC WRITEBACK MSHR MERGED:          0
LLC TOTAL ACCESSES:       9417 HITS:       4534 MISSES:       4883
LLC LOAD ACCESSES:         23 HITS:         15 MISSES:          8
LLC RFO ACCESSES:       4438 HITS:          0 MISSES:       4438
LLC PREFETCH ACCESSES:        453 HITS:         16 MISSES:        437
LLC WRITEBACK ACCESSES:       4503 HITS:       4503 MISSES:          0
LLC 0 RQ ACCESS:       4461
LLC 0 RQ TO_CACHE:       4461
LLC 0 RQ MERGED:          0
LLC 0 RQ FORWARD:          0
LLC WQ ACCESS:       4503
LLC WQ TO_CACHE:       4503
LLC WQ MERGED:          0
LLC WQ FORWARD:          0
Major fault: 0 Minor fault: 236
CPU 0 L1D next line prefetcher final stats
CPU 0 L2C PC-based stride prefetcher final stats

DRAM Statistics
 CHANNEL 0
 RQ ROW_BUFFER_HIT:       4714  ROW_BUFFER_MISS:        169
 DBUS_CONGESTED:       1948
 WQ ROW_BUFFER_HIT:          0  ROW_BUFFER_MISS:          0  FULL:          0

 AVG_CONGESTED_CYCLE: 11
LOADS RETIRED: 38744274
INSTR RETIRED: 150000000
