
*** ChampSim Multicore Out-of-Order Simulator ***

Warmup Instructions: 100000000
Simulation Instructions: 150000000
Number of CPUs: 1
LLC sets: 2048
LLC ways: 16
Clean RRIP Policies: 0 Dirty RRIP Policies: 0 PSEL Width: 10 Track Set: 4294967295 PSEL Mask: 15 Demote Mask: 0DS Algo: 0Window size: 64
Off-chip DRAM Size: 4096 MB Channels: 1 Width: 64-bit Data Rate: 1600 MT/s

CPU 0 runs /mnt/beegfs/pchatz06/traces/503.bwaves_r.train.input1.region_9.w_0.23953.trace.gz
NOT SORTED
TRACE STRING: /mnt/beegfs/pchatz06/traces/503.bwaves_r.train.input1.region_9.w_0.23953.trace.gz
SORTED
TRACE STRING: /mnt/beegfs/pchatz06/traces/503.bwaves_r.train.input1.region_9.w_0.23953.trace.gz
INITIAL
TRACE STRING: /mnt/beegfs/pchatz06/traces/503.bwaves_r.train.input1.region_9.w_0.23953.trace.gz

champsim_seed used: 262

CPU 0 L1D next line prefetcher
CPU 0 L2C IP-based stride prefetcher
Heartbeat CPU 0 instructions: 10000002 cycles: 4293121 heartbeat IPC: 2.32931 cumulative IPC: 2.32931 (Simulation time: 0 hr 0 min 11 sec) 
Heartbeat CPU 0 instructions: 20000000 cycles: 8594209 heartbeat IPC: 2.32499 cumulative IPC: 2.32715 (Simulation time: 0 hr 0 min 21 sec) 
Heartbeat CPU 0 instructions: 30000002 cycles: 12867667 heartbeat IPC: 2.34003 cumulative IPC: 2.33143 (Simulation time: 0 hr 0 min 32 sec) 
Heartbeat CPU 0 instructions: 40000000 cycles: 17154858 heartbeat IPC: 2.33253 cumulative IPC: 2.3317 (Simulation time: 0 hr 0 min 43 sec) 
Heartbeat CPU 0 instructions: 50000001 cycles: 21458961 heartbeat IPC: 2.32336 cumulative IPC: 2.33003 (Simulation time: 0 hr 0 min 54 sec) 
Heartbeat CPU 0 instructions: 60000000 cycles: 25742136 heartbeat IPC: 2.33472 cumulative IPC: 2.33081 (Simulation time: 0 hr 1 min 5 sec) 
Heartbeat CPU 0 instructions: 70000003 cycles: 30038027 heartbeat IPC: 2.32781 cumulative IPC: 2.33038 (Simulation time: 0 hr 1 min 16 sec) 
Heartbeat CPU 0 instructions: 80000000 cycles: 34353956 heartbeat IPC: 2.317 cumulative IPC: 2.3287 (Simulation time: 0 hr 1 min 27 sec) 
Heartbeat CPU 0 instructions: 90000000 cycles: 38701269 heartbeat IPC: 2.30027 cumulative IPC: 2.32551 (Simulation time: 0 hr 1 min 38 sec) 
Heartbeat CPU 0 instructions: 100000000 cycles: 43007901 heartbeat IPC: 2.322 cumulative IPC: 2.32515 (Simulation time: 0 hr 1 min 49 sec) 

Warmup complete CPU 0 instructions: 100000001 cycles: 43007902 (Simulation time: 0 hr 1 min 49 sec) 

Heartbeat CPU 0 instructions: 110000001 cycles: 52719348 heartbeat IPC: 1.02971 cumulative IPC: 1.02971 (Simulation time: 0 hr 2 min 5 sec) 
Heartbeat CPU 0 instructions: 120000000 cycles: 62371254 heartbeat IPC: 1.03606 cumulative IPC: 1.03288 (Simulation time: 0 hr 2 min 21 sec) 
Heartbeat CPU 0 instructions: 130000003 cycles: 71989408 heartbeat IPC: 1.0397 cumulative IPC: 1.03514 (Simulation time: 0 hr 2 min 36 sec) 
Heartbeat CPU 0 instructions: 140000000 cycles: 81685795 heartbeat IPC: 1.03131 cumulative IPC: 1.03418 (Simulation time: 0 hr 2 min 52 sec) 
Heartbeat CPU 0 instructions: 150000001 cycles: 91558195 heartbeat IPC: 1.01293 cumulative IPC: 1.02986 (Simulation time: 0 hr 3 min 8 sec) 
Heartbeat CPU 0 instructions: 160000000 cycles: 101236393 heartbeat IPC: 1.03325 cumulative IPC: 1.03042 (Simulation time: 0 hr 3 min 24 sec) 
Heartbeat CPU 0 instructions: 170000003 cycles: 111150926 heartbeat IPC: 1.00862 cumulative IPC: 1.02725 (Simulation time: 0 hr 3 min 40 sec) 
Heartbeat CPU 0 instructions: 180000000 cycles: 120834317 heartbeat IPC: 1.0327 cumulative IPC: 1.02793 (Simulation time: 0 hr 3 min 56 sec) 
Heartbeat CPU 0 instructions: 190000002 cycles: 130843685 heartbeat IPC: 0.999064 cumulative IPC: 1.02464 (Simulation time: 0 hr 4 min 12 sec) 
Heartbeat CPU 0 instructions: 200000000 cycles: 140643406 heartbeat IPC: 1.02044 cumulative IPC: 1.02422 (Simulation time: 0 hr 4 min 28 sec) 
Heartbeat CPU 0 instructions: 210000000 cycles: 150357183 heartbeat IPC: 1.02947 cumulative IPC: 1.02469 (Simulation time: 0 hr 4 min 44 sec) 
Heartbeat CPU 0 instructions: 220000000 cycles: 160215515 heartbeat IPC: 1.01437 cumulative IPC: 1.02382 (Simulation time: 0 hr 5 min 0 sec) 
Heartbeat CPU 0 instructions: 230000000 cycles: 169937497 heartbeat IPC: 1.0286 cumulative IPC: 1.02419 (Simulation time: 0 hr 5 min 15 sec) 
Heartbeat CPU 0 instructions: 240000000 cycles: 179962637 heartbeat IPC: 0.997492 cumulative IPC: 1.02224 (Simulation time: 0 hr 5 min 32 sec) 
*** Reached end of trace for Core: 0 Repeating trace: /mnt/beegfs/pchatz06/traces/503.bwaves_r.train.input1.region_9.w_0.23953.trace.gz
Heartbeat CPU 0 instructions: 250000001 cycles: 189951435 heartbeat IPC: 1.00112 cumulative IPC: 1.0208 (Simulation time: 0 hr 5 min 48 sec) 
Finished CPU 0 instructions: 150000000 cycles: 146943533 cumulative IPC: 1.0208 (Simulation time: 0 hr 5 min 48 sec) 

CPU 0 Branch Prediction Accuracy: 92.792% MPKI: 10.9713
Number of Branches: 22831549 Number of Mispredictions: 1645700
Number of LOAD Instructions: 64632305
Number of LOAD Instructions (ROI): 64632305
Number of STORE Instructions: 12389328
Number of STORE Instructions (ROI): 12389328
Total Destination Memory Operands: 12500270
Total Destination Memory Operands (ROI): 12500270
Total Source Memory Operands: 64632305
Total Source Memory Operands (ROI): 64632305
Number of DEPENDED LOADS: 703352
Number of DEPENDED LOADS (ROI): 703352
Number of SQ_ADDED: 12500263
Number of SQ_ADDED (ROI): 12500263
Number of LQ_ADDED: 64635028
Number of LQ_ADDED (ROI): 64635028
Number of Instructions read from trace: 250000047

ChampSim completed all CPUs

Region of Interest Statistics

CPU 0 cumulative IPC: 1.0208 instructions: 150000000 cycles: 146943533
ITLB TOTAL     ACCESS:   24320806  HIT:   24320806  MISS:          0
ITLB LOAD      ACCESS:   24320806  HIT:   24320806  MISS:          0
ITLB RFO       ACCESS:          0  HIT:          0  MISS:          0
ITLB PREFETCH  ACCESS:          0  HIT:          0  MISS:          0
ITLB WRITEBACK ACCESS:          0  HIT:          0  MISS:          0
ITLB PREFETCH  REQUESTED:          0  ISSUED:          0  USEFUL:          0  USELESS:          0
ITLB TOTAL MSHR MERGED:          0
ITLB LOAD MSHR MERGED:          0
ITLB RFO MSHR MERGED:          0
ITLB PREFETCH MSHR MERGED:          0
ITLB WRITEBACK MSHR MERGED:          0
ITLB TOTAL ACCESSES:   24320806 HITS:   24320806 MISSES:          0
ITLB LOAD ACCESSES:   24320806 HITS:   24320806 MISSES:          0
ITLB RFO ACCESSES:          0 HITS:          0 MISSES:          0
ITLB PREFETCH ACCESSES:          0 HITS:          0 MISSES:          0
ITLB WRITEBACK ACCESSES:          0 HITS:          0 MISSES:          0
ITLB RQ ACCESS:  150000024
ITLB RQ TO_CACHE:   24320806
ITLB RQ MERGED:  125679218
ITLB RQ FORWARD:          0
ITLB WQ ACCESS:          0
ITLB WQ TO_CACHE:          0
ITLB WQ MERGED:          0
ITLB WQ FORWARD:          0
DTLB TOTAL     ACCESS:   28420017  HIT:   28419959  MISS:         58
DTLB LOAD      ACCESS:   22992288  HIT:   22992282  MISS:          6
DTLB RFO       ACCESS:    5427729  HIT:    5427677  MISS:         52
DTLB PREFETCH  ACCESS:          0  HIT:          0  MISS:          0
DTLB WRITEBACK ACCESS:          0  HIT:          0  MISS:          0
DTLB PREFETCH  REQUESTED:          0  ISSUED:          0  USEFUL:          0  USELESS:          0
DTLB TOTAL MSHR MERGED:         72
DTLB LOAD MSHR MERGED:          0
DTLB RFO MSHR MERGED:         72
DTLB PREFETCH MSHR MERGED:          0
DTLB WRITEBACK MSHR MERGED:          0
DTLB TOTAL ACCESSES:   28420089 HITS:   28419959 MISSES:        130
DTLB LOAD ACCESSES:   22992288 HITS:   22992282 MISSES:          6
DTLB RFO ACCESSES:    5427801 HITS:    5427677 MISSES:        124
DTLB PREFETCH ACCESSES:          0 HITS:          0 MISSES:          0
DTLB WRITEBACK ACCESSES:          0 HITS:          0 MISSES:          0
DTLB RQ ACCESS:   45794965
DTLB RQ TO_CACHE:   28420089
DTLB RQ MERGED:   17374876
DTLB RQ FORWARD:          0
DTLB WQ ACCESS:          0
DTLB WQ TO_CACHE:          0
DTLB WQ MERGED:          0
DTLB WQ FORWARD:          0
L1D TOTAL     ACCESS:   45214382  HIT:   45210576  MISS:       3806
L1D LOAD      ACCESS:   22201616  HIT:   22201541  MISS:         75
L1D RFO       ACCESS:    7517681  HIT:    7514341  MISS:       3340
L1D PREFETCH  ACCESS:   15495085  HIT:   15494694  MISS:        391
L1D WRITEBACK ACCESS:          0  HIT:          0  MISS:          0
L1D PREFETCH  REQUESTED:   22201622  ISSUED:   22086527  USEFUL:        327  USELESS:         65
L1D TOTAL MSHR MERGED:      19500
L1D LOAD MSHR MERGED:          6
L1D RFO MSHR MERGED:      19282
L1D PREFETCH MSHR MERGED:        212
L1D WRITEBACK MSHR MERGED:          0
L1D TOTAL ACCESSES:   45234791 HITS:   45211485 MISSES:      23306
L1D LOAD ACCESSES:   22201689 HITS:   22201608 MISSES:         81
L1D RFO ACCESSES:    7536963 HITS:    7514341 MISSES:      22622
L1D PREFETCH ACCESSES:   15496139 HITS:   15495536 MISSES:        603
L1D WRITEBACK ACCESSES:          0 HITS:          0 MISSES:          0
L1D RQ ACCESS:   38213871
L1D RQ TO_CACHE:   22201623
L1D RQ MERGED:   16012181
L1D RQ FORWARD:          0
L1D WQ ACCESS:    7581093
L1D WQ TO_CACHE:    7536965
L1D WQ MERGED:      44128
L1D WQ FORWARD:        909
L1I TOTAL     ACCESS:   27814367  HIT:   27814367  MISS:          0
L1I LOAD      ACCESS:   27814367  HIT:   27814367  MISS:          0
L1I RFO       ACCESS:          0  HIT:          0  MISS:          0
L1I PREFETCH  ACCESS:          0  HIT:          0  MISS:          0
L1I WRITEBACK ACCESS:          0  HIT:          0  MISS:          0
L1I PREFETCH  REQUESTED:          0  ISSUED:          0  USEFUL:          0  USELESS:          0
L1I TOTAL MSHR MERGED:          0
L1I LOAD MSHR MERGED:          0
L1I RFO MSHR MERGED:          0
L1I PREFETCH MSHR MERGED:          0
L1I WRITEBACK MSHR MERGED:          0
L1I TOTAL ACCESSES:   27814367 HITS:   27814367 MISSES:          0
L1I LOAD ACCESSES:   27814367 HITS:   27814367 MISSES:          0
L1I RFO ACCESSES:          0 HITS:          0 MISSES:          0
L1I PREFETCH ACCESSES:          0 HITS:          0 MISSES:          0
L1I WRITEBACK ACCESSES:          0 HITS:          0 MISSES:          0
L1I RQ ACCESS:  150000024
L1I RQ TO_CACHE:   27814367
L1I RQ MERGED:  122185657
L1I RQ FORWARD:          0
L1I WQ ACCESS:          0
L1I WQ TO_CACHE:          0
L1I WQ MERGED:          0
L1I WQ FORWARD:          0
L2C TOTAL     ACCESS:       7153  HIT:       3516  MISS:       3637
L2C LOAD      ACCESS:         75  HIT:         69  MISS:          6
L2C RFO       ACCESS:       3340  HIT:         34  MISS:       3306
L2C PREFETCH  ACCESS:        391  HIT:         66  MISS:        325
L2C WRITEBACK ACCESS:       3347  HIT:       3347  MISS:          0
L2C PREFETCH  REQUESTED:          0  ISSUED:          0  USEFUL:         12  USELESS:        349
L2C TOTAL MSHR MERGED:          0
L2C LOAD MSHR MERGED:          0
L2C RFO MSHR MERGED:          0
L2C PREFETCH MSHR MERGED:          0
L2C WRITEBACK MSHR MERGED:          0
L2C TOTAL ACCESSES:       7153 HITS:       3516 MISSES:       3637
L2C LOAD ACCESSES:         75 HITS:         69 MISSES:          6
L2C RFO ACCESSES:       3340 HITS:         34 MISSES:       3306
L2C PREFETCH ACCESSES:        391 HITS:         66 MISSES:        325
L2C WRITEBACK ACCESSES:       3347 HITS:       3347 MISSES:          0
L2C RQ ACCESS:       3415
L2C RQ TO_CACHE:       3415
L2C RQ MERGED:          0
L2C RQ FORWARD:          0
L2C WQ ACCESS:       3347
L2C WQ TO_CACHE:       3347
L2C WQ MERGED:          0
L2C WQ FORWARD:          0
LLC TOTAL     ACCESS:       6849  HIT:       3212  MISS:       3637
LLC LOAD      ACCESS:          6  HIT:          0  MISS:          6
LLC RFO       ACCESS:       3306  HIT:          0  MISS:       3306
LLC PREFETCH  ACCESS:        325  HIT:          0  MISS:        325
LLC WRITEBACK ACCESS:       3212  HIT:       3212  MISS:          0
LLC PREFETCH  REQUESTED:          0  ISSUED:          0  USEFUL:          0  USELESS:          0
LLC TOTAL MSHR MERGED:          0
LLC LOAD MSHR MERGED:          0
LLC RFO MSHR MERGED:          0
LLC PREFETCH MSHR MERGED:          0
LLC WRITEBACK MSHR MERGED:          0
LLC TOTAL ACCESSES:       6849 HITS:       3212 MISSES:       3637
LLC LOAD ACCESSES:          6 HITS:          0 MISSES:          6
LLC RFO ACCESSES:       3306 HITS:          0 MISSES:       3306
LLC PREFETCH ACCESSES:        325 HITS:          0 MISSES:        325
LLC WRITEBACK ACCESSES:       3212 HITS:       3212 MISSES:          0
LLC 0 RQ ACCESS:       3312
LLC 0 RQ TO_CACHE:       3312
LLC 0 RQ MERGED:          0
LLC 0 RQ FORWARD:          0
LLC WQ ACCESS:       3212
LLC WQ TO_CACHE:       3212
LLC WQ MERGED:          0
LLC WQ FORWARD:          0
Major fault: 0 Minor fault: 227
CPU 0 L1D next line prefetcher final stats
CPU 0 L2C PC-based stride prefetcher final stats

DRAM Statistics
 CHANNEL 0
 RQ ROW_BUFFER_HIT:       3501  ROW_BUFFER_MISS:        136
 DBUS_CONGESTED:       1420
 WQ ROW_BUFFER_HIT:          0  ROW_BUFFER_MISS:          0  FULL:          0

 AVG_CONGESTED_CYCLE: 11
LOADS RETIRED: 38638360
INSTR RETIRED: 150000000
