
*** ChampSim Multicore Out-of-Order Simulator ***

Warmup Instructions: 100000000
Simulation Instructions: 150000000
Number of CPUs: 1
LLC sets: 2048
LLC ways: 16
Clean RRIP Policies: 0 Dirty RRIP Policies: 0 PSEL Width: 10 Track Set: 4294967295 PSEL Mask: 15 Demote Mask: 0DS Algo: 0Window size: 64
Off-chip DRAM Size: 4096 MB Channels: 1 Width: 64-bit Data Rate: 1600 MT/s

CPU 0 runs /mnt/beegfs/pchatz06/traces/503.bwaves_r.refrate.input3.region_7.w_0.18738.trace.gz
NOT SORTED
TRACE STRING: /mnt/beegfs/pchatz06/traces/503.bwaves_r.refrate.input3.region_7.w_0.18738.trace.gz
SORTED
TRACE STRING: /mnt/beegfs/pchatz06/traces/503.bwaves_r.refrate.input3.region_7.w_0.18738.trace.gz
INITIAL
TRACE STRING: /mnt/beegfs/pchatz06/traces/503.bwaves_r.refrate.input3.region_7.w_0.18738.trace.gz

champsim_seed used: 267

CPU 0 L1D next line prefetcher
CPU 0 L2C IP-based stride prefetcher
Heartbeat CPU 0 instructions: 10000002 cycles: 6457137 heartbeat IPC: 1.54867 cumulative IPC: 1.54867 (Simulation time: 0 hr 0 min 23 sec) 
Heartbeat CPU 0 instructions: 20000000 cycles: 12914491 heartbeat IPC: 1.54862 cumulative IPC: 1.54865 (Simulation time: 0 hr 0 min 45 sec) 
Heartbeat CPU 0 instructions: 30000000 cycles: 19371837 heartbeat IPC: 1.54862 cumulative IPC: 1.54864 (Simulation time: 0 hr 1 min 8 sec) 
Heartbeat CPU 0 instructions: 40000000 cycles: 25828843 heartbeat IPC: 1.54871 cumulative IPC: 1.54866 (Simulation time: 0 hr 1 min 31 sec) 
Heartbeat CPU 0 instructions: 50000003 cycles: 32286045 heartbeat IPC: 1.54866 cumulative IPC: 1.54866 (Simulation time: 0 hr 1 min 54 sec) 
Heartbeat CPU 0 instructions: 60000000 cycles: 38743561 heartbeat IPC: 1.54858 cumulative IPC: 1.54864 (Simulation time: 0 hr 2 min 18 sec) 
Heartbeat CPU 0 instructions: 70000000 cycles: 45200887 heartbeat IPC: 1.54863 cumulative IPC: 1.54864 (Simulation time: 0 hr 2 min 41 sec) 
Heartbeat CPU 0 instructions: 80000000 cycles: 51658027 heartbeat IPC: 1.54867 cumulative IPC: 1.54865 (Simulation time: 0 hr 3 min 4 sec) 
Heartbeat CPU 0 instructions: 90000003 cycles: 58114837 heartbeat IPC: 1.54875 cumulative IPC: 1.54866 (Simulation time: 0 hr 3 min 27 sec) 
Heartbeat CPU 0 instructions: 100000000 cycles: 64572022 heartbeat IPC: 1.54866 cumulative IPC: 1.54866 (Simulation time: 0 hr 3 min 51 sec) 

Warmup complete CPU 0 instructions: 100000002 cycles: 64572023 (Simulation time: 0 hr 3 min 51 sec) 

Heartbeat CPU 0 instructions: 110000003 cycles: 76557073 heartbeat IPC: 0.834373 cumulative IPC: 0.834373 (Simulation time: 0 hr 4 min 19 sec) 
Heartbeat CPU 0 instructions: 120000000 cycles: 88539032 heartbeat IPC: 0.834588 cumulative IPC: 0.83448 (Simulation time: 0 hr 4 min 48 sec) 
Heartbeat CPU 0 instructions: 130000000 cycles: 100519268 heartbeat IPC: 0.834708 cumulative IPC: 0.834556 (Simulation time: 0 hr 5 min 17 sec) 
Heartbeat CPU 0 instructions: 140000000 cycles: 112487871 heartbeat IPC: 0.835519 cumulative IPC: 0.834797 (Simulation time: 0 hr 5 min 46 sec) 
Heartbeat CPU 0 instructions: 150000001 cycles: 124448158 heartbeat IPC: 0.8361 cumulative IPC: 0.835057 (Simulation time: 0 hr 6 min 14 sec) 
Heartbeat CPU 0 instructions: 160000000 cycles: 136426694 heartbeat IPC: 0.834826 cumulative IPC: 0.835019 (Simulation time: 0 hr 6 min 43 sec) 
Heartbeat CPU 0 instructions: 170000001 cycles: 148393920 heartbeat IPC: 0.835616 cumulative IPC: 0.835104 (Simulation time: 0 hr 7 min 11 sec) 
Heartbeat CPU 0 instructions: 180000000 cycles: 160391467 heartbeat IPC: 0.833504 cumulative IPC: 0.834904 (Simulation time: 0 hr 7 min 40 sec) 
Heartbeat CPU 0 instructions: 190000002 cycles: 172381469 heartbeat IPC: 0.834028 cumulative IPC: 0.834806 (Simulation time: 0 hr 8 min 8 sec) 
Heartbeat CPU 0 instructions: 200000000 cycles: 184347029 heartbeat IPC: 0.835732 cumulative IPC: 0.834899 (Simulation time: 0 hr 8 min 36 sec) 
Heartbeat CPU 0 instructions: 210000001 cycles: 196315909 heartbeat IPC: 0.8355 cumulative IPC: 0.834953 (Simulation time: 0 hr 9 min 4 sec) 
Heartbeat CPU 0 instructions: 220000000 cycles: 208297948 heartbeat IPC: 0.834582 cumulative IPC: 0.834922 (Simulation time: 0 hr 9 min 31 sec) 
Heartbeat CPU 0 instructions: 230000000 cycles: 221474516 heartbeat IPC: 0.758923 cumulative IPC: 0.82854 (Simulation time: 0 hr 9 min 56 sec) 
Heartbeat CPU 0 instructions: 240000000 cycles: 235193904 heartbeat IPC: 0.728895 cumulative IPC: 0.820528 (Simulation time: 0 hr 10 min 17 sec) 
*** Reached end of trace for Core: 0 Repeating trace: /mnt/beegfs/pchatz06/traces/503.bwaves_r.refrate.input3.region_7.w_0.18738.trace.gz
Heartbeat CPU 0 instructions: 250000001 cycles: 249155261 heartbeat IPC: 0.716263 cumulative IPC: 0.812642 (Simulation time: 0 hr 10 min 39 sec) 
Finished CPU 0 instructions: 150000003 cycles: 184583239 cumulative IPC: 0.812642 (Simulation time: 0 hr 10 min 39 sec) 

CPU 0 Branch Prediction Accuracy: 99.8469% MPKI: 0.0809867
Number of Branches: 7935806 Number of Mispredictions: 12148
Number of LOAD Instructions: 135362535
Number of LOAD Instructions (ROI): 135362535
Number of STORE Instructions: 5024373
Number of STORE Instructions (ROI): 5024373
Total Destination Memory Operands: 7320283
Total Destination Memory Operands (ROI): 7320283
Total Source Memory Operands: 135362535
Total Source Memory Operands (ROI): 135362535
Number of DEPENDED LOADS: 3595639
Number of DEPENDED LOADS (ROI): 3595639
Number of SQ_ADDED: 7320280
Number of SQ_ADDED (ROI): 7320280
Number of LQ_ADDED: 187815155
Number of LQ_ADDED (ROI): 187815155
Number of Instructions read from trace: 250000256

ChampSim completed all CPUs

Region of Interest Statistics

CPU 0 cumulative IPC: 0.812642 instructions: 150000003 cycles: 184583239
ITLB TOTAL     ACCESS:   35298055  HIT:   35298053  MISS:          2
ITLB LOAD      ACCESS:   35298055  HIT:   35298053  MISS:          2
ITLB RFO       ACCESS:          0  HIT:          0  MISS:          0
ITLB PREFETCH  ACCESS:          0  HIT:          0  MISS:          0
ITLB WRITEBACK ACCESS:          0  HIT:          0  MISS:          0
ITLB PREFETCH  REQUESTED:          0  ISSUED:          0  USEFUL:          0  USELESS:          0
ITLB TOTAL MSHR MERGED:          2
ITLB LOAD MSHR MERGED:          2
ITLB RFO MSHR MERGED:          0
ITLB PREFETCH MSHR MERGED:          0
ITLB WRITEBACK MSHR MERGED:          0
ITLB TOTAL ACCESSES:   35298057 HITS:   35298053 MISSES:          4
ITLB LOAD ACCESSES:   35298057 HITS:   35298053 MISSES:          4
ITLB RFO ACCESSES:          0 HITS:          0 MISSES:          0
ITLB PREFETCH ACCESSES:          0 HITS:          0 MISSES:          0
ITLB WRITEBACK ACCESSES:          0 HITS:          0 MISSES:          0
ITLB RQ ACCESS:  150000000
ITLB RQ TO_CACHE:   35298058
ITLB RQ MERGED:  114701942
ITLB RQ FORWARD:          0
ITLB WQ ACCESS:          0
ITLB WQ TO_CACHE:          0
ITLB WQ MERGED:          0
ITLB WQ FORWARD:          0
DTLB TOTAL     ACCESS:   58189170  HIT:   58132065  MISS:      57105
DTLB LOAD      ACCESS:   54917130  HIT:   54861261  MISS:      55869
DTLB RFO       ACCESS:    3272040  HIT:    3270804  MISS:       1236
DTLB PREFETCH  ACCESS:          0  HIT:          0  MISS:          0
DTLB WRITEBACK ACCESS:          0  HIT:          0  MISS:          0
DTLB PREFETCH  REQUESTED:          0  ISSUED:          0  USEFUL:          0  USELESS:          0
DTLB TOTAL MSHR MERGED:      11323
DTLB LOAD MSHR MERGED:      11323
DTLB RFO MSHR MERGED:          0
DTLB PREFETCH MSHR MERGED:          0
DTLB WRITEBACK MSHR MERGED:          0
DTLB TOTAL ACCESSES:   58200493 HITS:   58132065 MISSES:      68428
DTLB LOAD ACCESSES:   54928453 HITS:   54861261 MISSES:      67192
DTLB RFO ACCESSES:    3272040 HITS:    3270804 MISSES:       1236
DTLB PREFETCH ACCESSES:          0 HITS:          0 MISSES:          0
DTLB WRITEBACK ACCESSES:          0 HITS:          0 MISSES:          0
DTLB RQ ACCESS:   79771691
DTLB RQ TO_CACHE:   58200493
DTLB RQ MERGED:   21571198
DTLB RQ FORWARD:          0
DTLB WQ ACCESS:          0
DTLB WQ TO_CACHE:          0
DTLB WQ MERGED:          0
DTLB WQ FORWARD:          0
L1D TOTAL     ACCESS:   94062402  HIT:   90092732  MISS:    3969670
L1D LOAD      ACCESS:   54200535  HIT:   52306850  MISS:    1893685
L1D RFO       ACCESS:    4344253  HIT:    4258266  MISS:      85987
L1D PREFETCH  ACCESS:   35517614  HIT:   33527616  MISS:    1989998
L1D WRITEBACK ACCESS:          0  HIT:          0  MISS:          0
L1D PREFETCH  REQUESTED:   55227587  ISSUED:   54552048  USEFUL:    1946518  USELESS:      43489
L1D TOTAL MSHR MERGED:    4667924
L1D LOAD MSHR MERGED:    2181698
L1D RFO MSHR MERGED:      31861
L1D PREFETCH MSHR MERGED:    2454365
L1D WRITEBACK MSHR MERGED:          0
L1D TOTAL ACCESSES:   98737258 HITS:   90099658 MISSES:    8637600
L1D LOAD ACCESSES:   55229176 HITS:   52308439 MISSES:    2920737
L1D RFO ACCESSES:    4376111 HITS:    4258266 MISSES:     117845
L1D PREFETCH ACCESSES:   39131971 HITS:   33532953 MISSES:    5599018
L1D WRITEBACK ACCESSES:          0 HITS:          0 MISSES:          0
L1D RQ ACCESS:   75395347
L1D RQ TO_CACHE:   55227589
L1D RQ MERGED:   20166169
L1D RQ FORWARD:          0
L1D WQ ACCESS:    4376345
L1D WQ TO_CACHE:    4376111
L1D WQ MERGED:        234
L1D WQ FORWARD:       6926
L1I TOTAL     ACCESS:   43461342  HIT:   43461326  MISS:         16
L1I LOAD      ACCESS:   43461342  HIT:   43461326  MISS:         16
L1I RFO       ACCESS:          0  HIT:          0  MISS:          0
L1I PREFETCH  ACCESS:          0  HIT:          0  MISS:          0
L1I WRITEBACK ACCESS:          0  HIT:          0  MISS:          0
L1I PREFETCH  REQUESTED:          0  ISSUED:          0  USEFUL:          0  USELESS:          0
L1I TOTAL MSHR MERGED:         12
L1I LOAD MSHR MERGED:         12
L1I RFO MSHR MERGED:          0
L1I PREFETCH MSHR MERGED:          0
L1I WRITEBACK MSHR MERGED:          0
L1I TOTAL ACCESSES:   43461354 HITS:   43461326 MISSES:         28
L1I LOAD ACCESSES:   43461354 HITS:   43461326 MISSES:         28
L1I RFO ACCESSES:          0 HITS:          0 MISSES:          0
L1I PREFETCH ACCESSES:          0 HITS:          0 MISSES:          0
L1I WRITEBACK ACCESSES:          0 HITS:          0 MISSES:          0
L1I RQ ACCESS:  149999994
L1I RQ TO_CACHE:   43461357
L1I RQ MERGED:  106538637
L1I RQ FORWARD:          0
L1I WQ ACCESS:          0
L1I WQ TO_CACHE:          0
L1I WQ MERGED:          0
L1I WQ FORWARD:          0
L2C TOTAL     ACCESS:    4315748  HIT:     661260  MISS:    3654488
L2C LOAD      ACCESS:     738696  HIT:      89857  MISS:     648839
L2C RFO       ACCESS:      85538  HIT:       6473  MISS:      79065
L2C PREFETCH  ACCESS:    3260053  HIT:     333810  MISS:    2926243
L2C WRITEBACK ACCESS:     231461  HIT:     231120  MISS:        341
L2C PREFETCH  REQUESTED:     309766  ISSUED:     309766  USEFUL:      43770  USELESS:    2882441
L2C TOTAL MSHR MERGED:       1347
L2C LOAD MSHR MERGED:        194
L2C RFO MSHR MERGED:          0
L2C PREFETCH MSHR MERGED:       1153
L2C WRITEBACK MSHR MERGED:          0
L2C TOTAL ACCESSES:    4510529 HITS:     662732 MISSES:    3847797
L2C LOAD ACCESSES:     739055 HITS:      90213 MISSES:     648842
L2C RFO ACCESSES:      85984 HITS:       6919 MISSES:      79065
L2C PREFETCH ACCESSES:    3454029 HITS:     334480 MISSES:    3119549
L2C WRITEBACK ACCESSES:     231461 HITS:     231120 MISSES:        341
L2C RQ ACCESS:     825039
L2C RQ TO_CACHE:     824237
L2C RQ MERGED:          0
L2C RQ FORWARD:          0
L2C WQ ACCESS:     231461
L2C WQ TO_CACHE:     231461
L2C WQ MERGED:          0
L2C WQ FORWARD:       1472
LLC TOTAL     ACCESS:    4060482  HIT:     406306  MISS:    3654176
LLC LOAD      ACCESS:     648645  HIT:      48860  MISS:     599785
LLC RFO       ACCESS:      79065  HIT:          0  MISS:      79065
LLC PREFETCH  ACCESS:    3115833  HIT:     140676  MISS:    2975157
LLC WRITEBACK ACCESS:     216939  HIT:     216770  MISS:        169
LLC PREFETCH  REQUESTED:          0  ISSUED:          0  USEFUL:      48772  USELESS:    2926397
LLC TOTAL MSHR MERGED:       2560
LLC LOAD MSHR MERGED:          5
LLC RFO MSHR MERGED:          0
LLC PREFETCH MSHR MERGED:       2555
LLC WRITEBACK MSHR MERGED:          0
LLC TOTAL ACCESSES:    4063047 HITS:     406306 MISSES:    3656741
LLC LOAD ACCESSES:     648648 HITS:      48860 MISSES:     599788
LLC RFO ACCESSES:      79065 HITS:          0 MISSES:      79065
LLC PREFETCH ACCESSES:    3118395 HITS:     140676 MISSES:    2977719
LLC WRITEBACK ACCESSES:     216939 HITS:     216770 MISSES:        169
LLC 0 RQ ACCESS:     727713
LLC 0 RQ TO_CACHE:     727713
LLC 0 RQ MERGED:          0
LLC 0 RQ FORWARD:          0
LLC WQ ACCESS:     216939
LLC WQ TO_CACHE:     216939
LLC WQ MERGED:          0
LLC WQ FORWARD:          0
Major fault: 0 Minor fault: 86689
CPU 0 L1D next line prefetcher final stats
CPU 0 L2C PC-based stride prefetcher final stats

DRAM Statistics
 CHANNEL 0
 RQ ROW_BUFFER_HIT:    3143796  ROW_BUFFER_MISS:     510193
 DBUS_CONGESTED:    1698779
 WQ ROW_BUFFER_HIT:      98078  ROW_BUFFER_MISS:     104941  FULL:          0

 AVG_CONGESTED_CYCLE: 12
LOADS RETIRED: 77404880
INSTR RETIRED: 150000000
