
*** ChampSim Multicore Out-of-Order Simulator ***

Warmup Instructions: 100000000
Simulation Instructions: 150000000
Number of CPUs: 1
LLC sets: 2048
LLC ways: 16
Clean RRIP Policies: 0 Dirty RRIP Policies: 0 PSEL Width: 10 Track Set: 4294967295 PSEL Mask: 15 Demote Mask: 0DS Algo: 0Window size: 64
Off-chip DRAM Size: 4096 MB Channels: 1 Width: 64-bit Data Rate: 1600 MT/s

CPU 0 runs /mnt/beegfs/pchatz06/traces/505.mcf_r.refrate.input1.region_4.w_0.05522.trace.gz
NOT SORTED
TRACE STRING: /mnt/beegfs/pchatz06/traces/505.mcf_r.refrate.input1.region_4.w_0.05522.trace.gz
SORTED
TRACE STRING: /mnt/beegfs/pchatz06/traces/505.mcf_r.refrate.input1.region_4.w_0.05522.trace.gz
INITIAL
TRACE STRING: /mnt/beegfs/pchatz06/traces/505.mcf_r.refrate.input1.region_4.w_0.05522.trace.gz

champsim_seed used: 254

CPU 0 L1D next line prefetcher
CPU 0 L2C IP-based stride prefetcher
Heartbeat CPU 0 instructions: 10000000 cycles: 5992756 heartbeat IPC: 1.66868 cumulative IPC: 1.66868 (Simulation time: 0 hr 0 min 16 sec) 
Heartbeat CPU 0 instructions: 20000000 cycles: 11963425 heartbeat IPC: 1.67485 cumulative IPC: 1.67176 (Simulation time: 0 hr 0 min 33 sec) 
Heartbeat CPU 0 instructions: 30000001 cycles: 17875428 heartbeat IPC: 1.69147 cumulative IPC: 1.67828 (Simulation time: 0 hr 0 min 50 sec) 
Heartbeat CPU 0 instructions: 40000000 cycles: 23808990 heartbeat IPC: 1.68533 cumulative IPC: 1.68004 (Simulation time: 0 hr 1 min 6 sec) 
Heartbeat CPU 0 instructions: 50000002 cycles: 29714950 heartbeat IPC: 1.69321 cumulative IPC: 1.68265 (Simulation time: 0 hr 1 min 23 sec) 
Heartbeat CPU 0 instructions: 60000000 cycles: 35629853 heartbeat IPC: 1.69064 cumulative IPC: 1.68398 (Simulation time: 0 hr 1 min 40 sec) 
Heartbeat CPU 0 instructions: 70000002 cycles: 41378922 heartbeat IPC: 1.73941 cumulative IPC: 1.69168 (Simulation time: 0 hr 1 min 58 sec) 
Heartbeat CPU 0 instructions: 80000000 cycles: 47099939 heartbeat IPC: 1.74794 cumulative IPC: 1.69852 (Simulation time: 0 hr 2 min 16 sec) 
Heartbeat CPU 0 instructions: 90000000 cycles: 52756813 heartbeat IPC: 1.76776 cumulative IPC: 1.70594 (Simulation time: 0 hr 2 min 34 sec) 
Heartbeat CPU 0 instructions: 100000000 cycles: 58475777 heartbeat IPC: 1.74857 cumulative IPC: 1.71011 (Simulation time: 0 hr 2 min 52 sec) 

Warmup complete CPU 0 instructions: 100000002 cycles: 58475779 (Simulation time: 0 hr 2 min 52 sec) 

Heartbeat CPU 0 instructions: 110000001 cycles: 91348687 heartbeat IPC: 0.304202 cumulative IPC: 0.304202 (Simulation time: 0 hr 3 min 29 sec) 
Heartbeat CPU 0 instructions: 120000000 cycles: 125020325 heartbeat IPC: 0.296986 cumulative IPC: 0.300551 (Simulation time: 0 hr 4 min 5 sec) 
Heartbeat CPU 0 instructions: 130000001 cycles: 158350082 heartbeat IPC: 0.300032 cumulative IPC: 0.300378 (Simulation time: 0 hr 4 min 41 sec) 
Heartbeat CPU 0 instructions: 140000000 cycles: 193596780 heartbeat IPC: 0.283715 cumulative IPC: 0.296031 (Simulation time: 0 hr 5 min 19 sec) 
Heartbeat CPU 0 instructions: 150000002 cycles: 227404313 heartbeat IPC: 0.295792 cumulative IPC: 0.295983 (Simulation time: 0 hr 5 min 55 sec) 
Heartbeat CPU 0 instructions: 160000000 cycles: 260324126 heartbeat IPC: 0.303768 cumulative IPC: 0.297253 (Simulation time: 0 hr 6 min 30 sec) 
Heartbeat CPU 0 instructions: 170000000 cycles: 293894596 heartbeat IPC: 0.297881 cumulative IPC: 0.297342 (Simulation time: 0 hr 7 min 6 sec) 
Heartbeat CPU 0 instructions: 180000000 cycles: 327673166 heartbeat IPC: 0.296046 cumulative IPC: 0.29718 (Simulation time: 0 hr 7 min 41 sec) 
Heartbeat CPU 0 instructions: 190000000 cycles: 359652372 heartbeat IPC: 0.312703 cumulative IPC: 0.298828 (Simulation time: 0 hr 8 min 13 sec) 
Heartbeat CPU 0 instructions: 200000000 cycles: 391131097 heartbeat IPC: 0.317675 cumulative IPC: 0.300611 (Simulation time: 0 hr 8 min 45 sec) 
Heartbeat CPU 0 instructions: 210000000 cycles: 422418195 heartbeat IPC: 0.319621 cumulative IPC: 0.302246 (Simulation time: 0 hr 9 min 16 sec) 
Heartbeat CPU 0 instructions: 220000000 cycles: 453725755 heartbeat IPC: 0.319412 cumulative IPC: 0.303605 (Simulation time: 0 hr 9 min 46 sec) 
Heartbeat CPU 0 instructions: 230000002 cycles: 484362438 heartbeat IPC: 0.326406 cumulative IPC: 0.305246 (Simulation time: 0 hr 10 min 16 sec) 
Heartbeat CPU 0 instructions: 240000000 cycles: 515707041 heartbeat IPC: 0.319034 cumulative IPC: 0.306191 (Simulation time: 0 hr 10 min 48 sec) 
*** Reached end of trace for Core: 0 Repeating trace: /mnt/beegfs/pchatz06/traces/505.mcf_r.refrate.input1.region_4.w_0.05522.trace.gz
Heartbeat CPU 0 instructions: 250000001 cycles: 549510954 heartbeat IPC: 0.295824 cumulative IPC: 0.305477 (Simulation time: 0 hr 11 min 24 sec) 
Finished CPU 0 instructions: 150000001 cycles: 491035177 cumulative IPC: 0.305477 (Simulation time: 0 hr 11 min 24 sec) 

CPU 0 Branch Prediction Accuracy: 95.4104% MPKI: 12.0226
Number of Branches: 39292816 Number of Mispredictions: 1803387
Number of LOAD Instructions: 94612273
Number of LOAD Instructions (ROI): 94612273
Number of STORE Instructions: 11558307
Number of STORE Instructions (ROI): 11558307
Total Destination Memory Operands: 12700537
Total Destination Memory Operands (ROI): 12700537
Total Source Memory Operands: 94612273
Total Source Memory Operands (ROI): 94612273
Number of DEPENDED LOADS: 4043664
Number of DEPENDED LOADS (ROI): 4043664
Number of SQ_ADDED: 12700537
Number of SQ_ADDED (ROI): 12700537
Number of LQ_ADDED: 95008415
Number of LQ_ADDED (ROI): 95008415
Number of Instructions read from trace: 250000257

ChampSim completed all CPUs

Region of Interest Statistics

CPU 0 cumulative IPC: 0.305477 instructions: 150000001 cycles: 491035177
ITLB TOTAL     ACCESS:   31154525  HIT:   31154525  MISS:          0
ITLB LOAD      ACCESS:   31154525  HIT:   31154525  MISS:          0
ITLB RFO       ACCESS:          0  HIT:          0  MISS:          0
ITLB PREFETCH  ACCESS:          0  HIT:          0  MISS:          0
ITLB WRITEBACK ACCESS:          0  HIT:          0  MISS:          0
ITLB PREFETCH  REQUESTED:          0  ISSUED:          0  USEFUL:          0  USELESS:          0
ITLB TOTAL MSHR MERGED:          0
ITLB LOAD MSHR MERGED:          0
ITLB RFO MSHR MERGED:          0
ITLB PREFETCH MSHR MERGED:          0
ITLB WRITEBACK MSHR MERGED:          0
ITLB TOTAL ACCESSES:   31154525 HITS:   31154525 MISSES:          0
ITLB LOAD ACCESSES:   31154525 HITS:   31154525 MISSES:          0
ITLB RFO ACCESSES:          0 HITS:          0 MISSES:          0
ITLB PREFETCH ACCESSES:          0 HITS:          0 MISSES:          0
ITLB WRITEBACK ACCESSES:          0 HITS:          0 MISSES:          0
ITLB RQ ACCESS:  150000242
ITLB RQ TO_CACHE:   31154525
ITLB RQ MERGED:  118845717
ITLB RQ FORWARD:          0
ITLB WQ ACCESS:          0
ITLB WQ TO_CACHE:          0
ITLB WQ MERGED:          0
ITLB WQ FORWARD:          0
DTLB TOTAL     ACCESS:   39367775  HIT:   31799657  MISS:    7568118
DTLB LOAD      ACCESS:   33426915  HIT:   26062618  MISS:    7364297
DTLB RFO       ACCESS:    5940860  HIT:    5737039  MISS:     203821
DTLB PREFETCH  ACCESS:          0  HIT:          0  MISS:          0
DTLB WRITEBACK ACCESS:          0  HIT:          0  MISS:          0
DTLB PREFETCH  REQUESTED:          0  ISSUED:          0  USEFUL:          0  USELESS:          0
DTLB TOTAL MSHR MERGED:     338691
DTLB LOAD MSHR MERGED:     242577
DTLB RFO MSHR MERGED:      96114
DTLB PREFETCH MSHR MERGED:          0
DTLB WRITEBACK MSHR MERGED:          0
DTLB TOTAL ACCESSES:   39706466 HITS:   31799657 MISSES:    7906809
DTLB LOAD ACCESSES:   33669492 HITS:   26062618 MISSES:    7606874
DTLB RFO ACCESSES:    6036974 HITS:    5737039 MISSES:     299935
DTLB PREFETCH ACCESSES:          0 HITS:          0 MISSES:          0
DTLB WRITEBACK ACCESSES:          0 HITS:          0 MISSES:          0
DTLB RQ ACCESS:   62024932
DTLB RQ TO_CACHE:   39706467
DTLB RQ MERGED:   22318465
DTLB RQ FORWARD:          0
DTLB WQ ACCESS:          0
DTLB WQ TO_CACHE:          0
DTLB WQ MERGED:          0
DTLB WQ FORWARD:          0
L1D TOTAL     ACCESS:   71168560  HIT:   42660536  MISS:   28508024
L1D LOAD      ACCESS:   35721629  HIT:   19353763  MISS:   16367866
L1D RFO       ACCESS:    6804413  HIT:    6456881  MISS:     347532
L1D PREFETCH  ACCESS:   28642518  HIT:   16849892  MISS:   11792626
L1D WRITEBACK ACCESS:          0  HIT:          0  MISS:          0
L1D PREFETCH  REQUESTED:   37009636  ISSUED:   36567928  USEFUL:    1028784  USELESS:   10763854
L1D TOTAL MSHR MERGED:    7356315
L1D LOAD MSHR MERGED:    2362404
L1D RFO MSHR MERGED:     627331
L1D PREFETCH MSHR MERGED:    4366580
L1D WRITEBACK MSHR MERGED:          0
L1D TOTAL ACCESSES:   78537481 HITS:   42673135 MISSES:   35864346
L1D LOAD ACCESSES:   37009636 HITS:   19353763 MISSES:   17655873
L1D RFO ACCESSES:    7431664 HITS:    6456881 MISSES:     974783
L1D PREFETCH ACCESSES:   34096181 HITS:   16862491 MISSES:   17233690
L1D WRITEBACK ACCESSES:          0 HITS:          0 MISSES:          0
L1D RQ ACCESS:   54093709
L1D RQ TO_CACHE:   37009637
L1D RQ MERGED:   17084072
L1D RQ FORWARD:          0
L1D WQ ACCESS:    7931222
L1D WQ TO_CACHE:    7431664
L1D WQ MERGED:     499558
L1D WQ FORWARD:      12599
L1I TOTAL     ACCESS:   40649356  HIT:   40649356  MISS:          0
L1I LOAD      ACCESS:   40649356  HIT:   40649356  MISS:          0
L1I RFO       ACCESS:          0  HIT:          0  MISS:          0
L1I PREFETCH  ACCESS:          0  HIT:          0  MISS:          0
L1I WRITEBACK ACCESS:          0  HIT:          0  MISS:          0
L1I PREFETCH  REQUESTED:          0  ISSUED:          0  USEFUL:          0  USELESS:          0
L1I TOTAL MSHR MERGED:          0
L1I LOAD MSHR MERGED:          0
L1I RFO MSHR MERGED:          0
L1I PREFETCH MSHR MERGED:          0
L1I WRITEBACK MSHR MERGED:          0
L1I TOTAL ACCESSES:   40649356 HITS:   40649356 MISSES:          0
L1I LOAD ACCESSES:   40649356 HITS:   40649356 MISSES:          0
L1I RFO ACCESSES:          0 HITS:          0 MISSES:          0
L1I PREFETCH ACCESSES:          0 HITS:          0 MISSES:          0
L1I WRITEBACK ACCESSES:          0 HITS:          0 MISSES:          0
L1I RQ ACCESS:  150000242
L1I RQ TO_CACHE:   40649356
L1I RQ MERGED:  109350886
L1I RQ FORWARD:          0
L1I WQ ACCESS:          0
L1I WQ TO_CACHE:          0
L1I WQ MERGED:          0
L1I WQ FORWARD:          0
L2C TOTAL     ACCESS:   30252692  HIT:    8593413  MISS:   21659279
L2C LOAD      ACCESS:   15293378  HIT:    3974691  MISS:   11318687
L2C RFO       ACCESS:     347451  HIT:      45476  MISS:     301975
L2C PREFETCH  ACCESS:   13851948  HIT:    3815043  MISS:   10036905
L2C WRITEBACK ACCESS:     759915  HIT:     758203  MISS:       1712
L2C PREFETCH  REQUESTED:    4817672  ISSUED:    4817672  USEFUL:     722212  USELESS:    9315250
L2C TOTAL MSHR MERGED:    1813945
L2C LOAD MSHR MERGED:     359175
L2C RFO MSHR MERGED:          0
L2C PREFETCH MSHR MERGED:    1454770
L2C WRITEBACK MSHR MERGED:          0
L2C TOTAL ACCESSES:   32387410 HITS:    8593537 MISSES:   23793873
L2C LOAD ACCESSES:   15293469 HITS:    3974776 MISSES:   11318693
L2C RFO ACCESSES:     347452 HITS:      45477 MISSES:     301975
L2C PREFETCH ACCESSES:   15986574 HITS:    3815081 MISSES:   12171493
L2C WRITEBACK ACCESSES:     759915 HITS:     758203 MISSES:       1712
L2C RQ ACCESS:   15640921
L2C RQ TO_CACHE:   15640835
L2C RQ MERGED:          0
L2C RQ FORWARD:          0
L2C WQ ACCESS:     759915
L2C WQ TO_CACHE:     759915
L2C WQ MERGED:          0
L2C WQ FORWARD:        124
LLC TOTAL     ACCESS:   22459419  HIT:   15307817  MISS:    7151602
LLC LOAD      ACCESS:   10959507  HIT:    7287419  MISS:    3672088
LLC RFO       ACCESS:     301975  HIT:     297018  MISS:       4957
LLC PREFETCH  ACCESS:   10544397  HIT:    7070154  MISS:    3474243
LLC WRITEBACK ACCESS:     653540  HIT:     653226  MISS:        314
LLC PREFETCH  REQUESTED:          0  ISSUED:          0  USEFUL:     205641  USELESS:    3277795
LLC TOTAL MSHR MERGED:     145334
LLC LOAD MSHR MERGED:      46452
LLC RFO MSHR MERGED:          0
LLC PREFETCH MSHR MERGED:      98882
LLC WRITEBACK MSHR MERGED:          0
LLC TOTAL ACCESSES:   22604776 HITS:   15307831 MISSES:    7296945
LLC LOAD ACCESSES:   10959518 HITS:    7287426 MISSES:    3672092
LLC RFO ACCESSES:     301975 HITS:     297018 MISSES:       4957
LLC PREFETCH ACCESSES:   10689743 HITS:    7070161 MISSES:    3619582
LLC WRITEBACK ACCESSES:     653540 HITS:     653226 MISSES:        314
LLC 0 RQ ACCESS:   11261493
LLC 0 RQ TO_CACHE:   11261486
LLC 0 RQ MERGED:          0
LLC 0 RQ FORWARD:          0
LLC WQ ACCESS:     653540
LLC WQ TO_CACHE:     653540
LLC WQ MERGED:          0
LLC WQ FORWARD:         14
Major fault: 0 Minor fault: 56384
CPU 0 L1D next line prefetcher final stats
CPU 0 L2C PC-based stride prefetcher final stats

DRAM Statistics
 CHANNEL 0
 RQ ROW_BUFFER_HIT:    5541150  ROW_BUFFER_MISS:    1603997
 DBUS_CONGESTED:    4652301
 WQ ROW_BUFFER_HIT:       5409  ROW_BUFFER_MISS:      58871  FULL:          0

 AVG_CONGESTED_CYCLE: 13
LOADS RETIRED: 56657551
INSTR RETIRED: 150000000
