
*** ChampSim Multicore Out-of-Order Simulator ***

Warmup Instructions: 100000000
Simulation Instructions: 150000000
Number of CPUs: 1
LLC sets: 2048
LLC ways: 16
Clean RRIP Policies: 0 Dirty RRIP Policies: 0 PSEL Width: 10 Track Set: 4294967295 PSEL Mask: 15 Demote Mask: 0DS Algo: 0Window size: 64
Off-chip DRAM Size: 4096 MB Channels: 1 Width: 64-bit Data Rate: 1600 MT/s

CPU 0 runs /mnt/beegfs/pchatz06/traces/508.namd_r.refrate.input1.region_2.w_0.05512.trace.gz
NOT SORTED
TRACE STRING: /mnt/beegfs/pchatz06/traces/508.namd_r.refrate.input1.region_2.w_0.05512.trace.gz
SORTED
TRACE STRING: /mnt/beegfs/pchatz06/traces/508.namd_r.refrate.input1.region_2.w_0.05512.trace.gz
INITIAL
TRACE STRING: /mnt/beegfs/pchatz06/traces/508.namd_r.refrate.input1.region_2.w_0.05512.trace.gz

champsim_seed used: 253

CPU 0 L1D next line prefetcher
CPU 0 L2C IP-based stride prefetcher
Heartbeat CPU 0 instructions: 10000000 cycles: 4105147 heartbeat IPC: 2.43597 cumulative IPC: 2.43597 (Simulation time: 0 hr 0 min 17 sec) 
Heartbeat CPU 0 instructions: 20000000 cycles: 9492054 heartbeat IPC: 1.85635 cumulative IPC: 2.10703 (Simulation time: 0 hr 0 min 35 sec) 
Heartbeat CPU 0 instructions: 30000000 cycles: 14289467 heartbeat IPC: 2.08446 cumulative IPC: 2.09945 (Simulation time: 0 hr 0 min 52 sec) 
Heartbeat CPU 0 instructions: 40000000 cycles: 18630878 heartbeat IPC: 2.3034 cumulative IPC: 2.14697 (Simulation time: 0 hr 1 min 9 sec) 
Heartbeat CPU 0 instructions: 50000001 cycles: 22970792 heartbeat IPC: 2.30419 cumulative IPC: 2.17668 (Simulation time: 0 hr 1 min 26 sec) 
Heartbeat CPU 0 instructions: 60000000 cycles: 27300946 heartbeat IPC: 2.30939 cumulative IPC: 2.19773 (Simulation time: 0 hr 1 min 43 sec) 
Heartbeat CPU 0 instructions: 70000000 cycles: 31638794 heartbeat IPC: 2.30529 cumulative IPC: 2.21247 (Simulation time: 0 hr 2 min 1 sec) 
Heartbeat CPU 0 instructions: 80000000 cycles: 35979798 heartbeat IPC: 2.30361 cumulative IPC: 2.22347 (Simulation time: 0 hr 2 min 18 sec) 
Heartbeat CPU 0 instructions: 90000000 cycles: 40317624 heartbeat IPC: 2.3053 cumulative IPC: 2.23227 (Simulation time: 0 hr 2 min 35 sec) 
Heartbeat CPU 0 instructions: 100000000 cycles: 44639584 heartbeat IPC: 2.31377 cumulative IPC: 2.24016 (Simulation time: 0 hr 2 min 52 sec) 

Warmup complete CPU 0 instructions: 100000001 cycles: 44639587 (Simulation time: 0 hr 2 min 52 sec) 

Heartbeat CPU 0 instructions: 110000000 cycles: 51198875 heartbeat IPC: 1.52455 cumulative IPC: 1.52456 (Simulation time: 0 hr 3 min 11 sec) 
Heartbeat CPU 0 instructions: 120000000 cycles: 57683434 heartbeat IPC: 1.54212 cumulative IPC: 1.53329 (Simulation time: 0 hr 3 min 30 sec) 
Heartbeat CPU 0 instructions: 130000002 cycles: 64204237 heartbeat IPC: 1.53355 cumulative IPC: 1.53338 (Simulation time: 0 hr 3 min 49 sec) 
Heartbeat CPU 0 instructions: 140000000 cycles: 70754184 heartbeat IPC: 1.52673 cumulative IPC: 1.53171 (Simulation time: 0 hr 4 min 8 sec) 
Heartbeat CPU 0 instructions: 150000002 cycles: 77301386 heartbeat IPC: 1.52737 cumulative IPC: 1.53084 (Simulation time: 0 hr 4 min 27 sec) 
Heartbeat CPU 0 instructions: 160000000 cycles: 83761162 heartbeat IPC: 1.54804 cumulative IPC: 1.53368 (Simulation time: 0 hr 4 min 46 sec) 
Heartbeat CPU 0 instructions: 170000002 cycles: 90314792 heartbeat IPC: 1.52587 cumulative IPC: 1.53256 (Simulation time: 0 hr 5 min 5 sec) 
Heartbeat CPU 0 instructions: 180000000 cycles: 96865373 heartbeat IPC: 1.52658 cumulative IPC: 1.53181 (Simulation time: 0 hr 5 min 24 sec) 
Heartbeat CPU 0 instructions: 190000001 cycles: 103386481 heartbeat IPC: 1.53348 cumulative IPC: 1.532 (Simulation time: 0 hr 5 min 43 sec) 
Heartbeat CPU 0 instructions: 200000000 cycles: 109829485 heartbeat IPC: 1.55207 cumulative IPC: 1.53398 (Simulation time: 0 hr 6 min 2 sec) 
Heartbeat CPU 0 instructions: 210000003 cycles: 116388491 heartbeat IPC: 1.52462 cumulative IPC: 1.53312 (Simulation time: 0 hr 6 min 21 sec) 
Heartbeat CPU 0 instructions: 220000000 cycles: 122902748 heartbeat IPC: 1.53509 cumulative IPC: 1.53329 (Simulation time: 0 hr 6 min 40 sec) 
Heartbeat CPU 0 instructions: 230000001 cycles: 129399630 heartbeat IPC: 1.5392 cumulative IPC: 1.53374 (Simulation time: 0 hr 6 min 59 sec) 
Heartbeat CPU 0 instructions: 240000000 cycles: 135928963 heartbeat IPC: 1.53155 cumulative IPC: 1.53358 (Simulation time: 0 hr 7 min 18 sec) 
*** Reached end of trace for Core: 0 Repeating trace: /mnt/beegfs/pchatz06/traces/508.namd_r.refrate.input1.region_2.w_0.05512.trace.gz
Heartbeat CPU 0 instructions: 250000001 cycles: 142461418 heartbeat IPC: 1.53082 cumulative IPC: 1.5334 (Simulation time: 0 hr 7 min 37 sec) 
Finished CPU 0 instructions: 150000000 cycles: 97821831 cumulative IPC: 1.5334 (Simulation time: 0 hr 7 min 37 sec) 

CPU 0 Branch Prediction Accuracy: 97.5798% MPKI: 0.249073
Number of Branches: 1543737 Number of Mispredictions: 37361
Number of LOAD Instructions: 75736345
Number of LOAD Instructions (ROI): 75736345
Number of STORE Instructions: 25561711
Number of STORE Instructions (ROI): 25561711
Total Destination Memory Operands: 25575537
Total Destination Memory Operands (ROI): 25575537
Total Source Memory Operands: 75736345
Total Source Memory Operands (ROI): 75736345
Number of DEPENDED LOADS: 2315996
Number of DEPENDED LOADS (ROI): 2315996
Number of SQ_ADDED: 25575526
Number of SQ_ADDED (ROI): 25575526
Number of LQ_ADDED: 75925417
Number of LQ_ADDED (ROI): 75925417
Number of Instructions read from trace: 250000113

ChampSim completed all CPUs

Region of Interest Statistics

CPU 0 cumulative IPC: 1.5334 instructions: 150000000 cycles: 97821831
ITLB TOTAL     ACCESS:   25945778  HIT:   25945778  MISS:          0
ITLB LOAD      ACCESS:   25945778  HIT:   25945778  MISS:          0
ITLB RFO       ACCESS:          0  HIT:          0  MISS:          0
ITLB PREFETCH  ACCESS:          0  HIT:          0  MISS:          0
ITLB WRITEBACK ACCESS:          0  HIT:          0  MISS:          0
ITLB PREFETCH  REQUESTED:          0  ISSUED:          0  USEFUL:          0  USELESS:          0
ITLB TOTAL MSHR MERGED:          0
ITLB LOAD MSHR MERGED:          0
ITLB RFO MSHR MERGED:          0
ITLB PREFETCH MSHR MERGED:          0
ITLB WRITEBACK MSHR MERGED:          0
ITLB TOTAL ACCESSES:   25945778 HITS:   25945778 MISSES:          0
ITLB LOAD ACCESSES:   25945778 HITS:   25945778 MISSES:          0
ITLB RFO ACCESSES:          0 HITS:          0 MISSES:          0
ITLB PREFETCH ACCESSES:          0 HITS:          0 MISSES:          0
ITLB WRITEBACK ACCESSES:          0 HITS:          0 MISSES:          0
ITLB RQ ACCESS:  149999857
ITLB RQ TO_CACHE:   25945778
ITLB RQ MERGED:  124054079
ITLB RQ FORWARD:          0
ITLB WQ ACCESS:          0
ITLB WQ TO_CACHE:          0
ITLB WQ MERGED:          0
ITLB WQ FORWARD:          0
DTLB TOTAL     ACCESS:   35055428  HIT:   35054546  MISS:        882
DTLB LOAD      ACCESS:   22589913  HIT:   22589031  MISS:        882
DTLB RFO       ACCESS:   12465515  HIT:   12465515  MISS:          0
DTLB PREFETCH  ACCESS:          0  HIT:          0  MISS:          0
DTLB WRITEBACK ACCESS:          0  HIT:          0  MISS:          0
DTLB PREFETCH  REQUESTED:          0  ISSUED:          0  USEFUL:          0  USELESS:          0
DTLB TOTAL MSHR MERGED:        780
DTLB LOAD MSHR MERGED:        780
DTLB RFO MSHR MERGED:          0
DTLB PREFETCH MSHR MERGED:          0
DTLB WRITEBACK MSHR MERGED:          0
DTLB TOTAL ACCESSES:   35056208 HITS:   35054546 MISSES:       1662
DTLB LOAD ACCESSES:   22590693 HITS:   22589031 MISSES:       1662
DTLB RFO ACCESSES:   12465515 HITS:   12465515 MISSES:          0
DTLB PREFETCH ACCESSES:          0 HITS:          0 MISSES:          0
DTLB WRITEBACK ACCESSES:          0 HITS:          0 MISSES:          0
DTLB RQ ACCESS:   59101050
DTLB RQ TO_CACHE:   35056208
DTLB RQ MERGED:   24044842
DTLB RQ FORWARD:          0
DTLB WQ ACCESS:          0
DTLB WQ TO_CACHE:          0
DTLB WQ MERGED:          0
DTLB WQ FORWARD:          0
L1D TOTAL     ACCESS:   54045579  HIT:   50701934  MISS:    3343645
L1D LOAD      ACCESS:   21870346  HIT:   20431745  MISS:    1438601
L1D RFO       ACCESS:   14183635  HIT:   14088156  MISS:      95479
L1D PREFETCH  ACCESS:   17991598  HIT:   16182033  MISS:    1809565
L1D WRITEBACK ACCESS:          0  HIT:          0  MISS:          0
L1D PREFETCH  REQUESTED:   22349371  ISSUED:   22176213  USEFUL:    1309166  USELESS:     500423
L1D TOTAL MSHR MERGED:    1307050
L1D LOAD MSHR MERGED:     503446
L1D RFO MSHR MERGED:     137287
L1D PREFETCH MSHR MERGED:     666317
L1D WRITEBACK MSHR MERGED:          0
L1D TOTAL ACCESSES:   55352956 HITS:   50702261 MISSES:    4650695
L1D LOAD ACCESSES:   22349371 HITS:   20431745 MISSES:    1917626
L1D RFO ACCESSES:   14320608 HITS:   14088156 MISSES:     232452
L1D PREFETCH ACCESSES:   18682977 HITS:   16182360 MISSES:    2500617
L1D WRITEBACK ACCESSES:          0 HITS:          0 MISSES:          0
L1D RQ ACCESS:   44537229
L1D RQ TO_CACHE:   22349371
L1D RQ MERGED:   22187858
L1D RQ FORWARD:          0
L1D WQ ACCESS:   14563828
L1D WQ TO_CACHE:   14320607
L1D WQ MERGED:     243221
L1D WQ FORWARD:        327
L1I TOTAL     ACCESS:   34218902  HIT:   34218892  MISS:         10
L1I LOAD      ACCESS:   34218902  HIT:   34218892  MISS:         10
L1I RFO       ACCESS:          0  HIT:          0  MISS:          0
L1I PREFETCH  ACCESS:          0  HIT:          0  MISS:          0
L1I WRITEBACK ACCESS:          0  HIT:          0  MISS:          0
L1I PREFETCH  REQUESTED:          0  ISSUED:          0  USEFUL:          0  USELESS:          0
L1I TOTAL MSHR MERGED:         21
L1I LOAD MSHR MERGED:         21
L1I RFO MSHR MERGED:          0
L1I PREFETCH MSHR MERGED:          0
L1I WRITEBACK MSHR MERGED:          0
L1I TOTAL ACCESSES:   34218926 HITS:   34218892 MISSES:         34
L1I LOAD ACCESSES:   34218926 HITS:   34218892 MISSES:         34
L1I RFO ACCESSES:          0 HITS:          0 MISSES:          0
L1I PREFETCH ACCESSES:          0 HITS:          0 MISSES:          0
L1I WRITEBACK ACCESSES:          0 HITS:          0 MISSES:          0
L1I RQ ACCESS:  149999857
L1I RQ TO_CACHE:   34218926
L1I RQ MERGED:  115780931
L1I RQ FORWARD:          0
L1I WQ ACCESS:          0
L1I WQ TO_CACHE:          0
L1I WQ MERGED:          0
L1I WQ FORWARD:          0
L2C TOTAL     ACCESS:    4411272  HIT:    4354279  MISS:      56993
L2C LOAD      ACCESS:    1414167  HIT:    1403919  MISS:      10248
L2C RFO       ACCESS:      95159  HIT:      94981  MISS:        178
L2C PREFETCH  ACCESS:    1977640  HIT:    1931106  MISS:      46534
L2C WRITEBACK ACCESS:     924306  HIT:     924273  MISS:         33
L2C PREFETCH  REQUESTED:     147442  ISSUED:     147442  USEFUL:       6125  USELESS:      41098
L2C TOTAL MSHR MERGED:         94
L2C LOAD MSHR MERGED:         13
L2C RFO MSHR MERGED:          0
L2C PREFETCH MSHR MERGED:         81
L2C WRITEBACK MSHR MERGED:          0
L2C TOTAL ACCESSES:    4411592 HITS:    4354502 MISSES:      57090
L2C LOAD ACCESSES:    1414193 HITS:    1403942 MISSES:      10251
L2C RFO ACCESSES:      95165 HITS:      94987 MISSES:        178
L2C PREFETCH ACCESSES:    1977928 HITS:    1931300 MISSES:      46628
L2C WRITEBACK ACCESSES:     924306 HITS:     924273 MISSES:         33
L2C RQ ACCESS:    1509358
L2C RQ TO_CACHE:    1509329
L2C RQ MERGED:          0
L2C RQ FORWARD:          0
L2C WQ ACCESS:     924306
L2C WQ TO_CACHE:     924306
L2C WQ MERGED:          0
L2C WQ FORWARD:        223
LLC TOTAL     ACCESS:      64012  HIT:      13765  MISS:      50247
LLC LOAD      ACCESS:      10235  HIT:       2126  MISS:       8109
LLC RFO       ACCESS:        178  HIT:        175  MISS:          3
LLC PREFETCH  ACCESS:      46547  HIT:       4518  MISS:      42029
LLC WRITEBACK ACCESS:       7052  HIT:       6946  MISS:        106
LLC PREFETCH  REQUESTED:          0  ISSUED:          0  USEFUL:        242  USELESS:      37409
LLC TOTAL MSHR MERGED:          0
LLC LOAD MSHR MERGED:          0
LLC RFO MSHR MERGED:          0
LLC PREFETCH MSHR MERGED:          0
LLC WRITEBACK MSHR MERGED:          0
LLC TOTAL ACCESSES:      64015 HITS:      13765 MISSES:      50250
LLC LOAD ACCESSES:      10238 HITS:       2126 MISSES:       8112
LLC RFO ACCESSES:        178 HITS:        175 MISSES:          3
LLC PREFETCH ACCESSES:      46547 HITS:       4518 MISSES:      42029
LLC WRITEBACK ACCESSES:       7052 HITS:       6946 MISSES:        106
LLC 0 RQ ACCESS:      10416
LLC 0 RQ TO_CACHE:      10416
LLC 0 RQ MERGED:          0
LLC 0 RQ FORWARD:          0
LLC WQ ACCESS:       7052
LLC WQ TO_CACHE:       7052
LLC WQ MERGED:          0
LLC WQ FORWARD:          0
Major fault: 0 Minor fault: 3678
CPU 0 L1D next line prefetcher final stats
CPU 0 L2C PC-based stride prefetcher final stats

DRAM Statistics
 CHANNEL 0
 RQ ROW_BUFFER_HIT:      44443  ROW_BUFFER_MISS:       5698
 DBUS_CONGESTED:      19674
 WQ ROW_BUFFER_HIT:       4978  ROW_BUFFER_MISS:       5348  FULL:          0

 AVG_CONGESTED_CYCLE: 12
LOADS RETIRED: 45653866
INSTR RETIRED: 150000000
