
*** ChampSim Multicore Out-of-Order Simulator ***

Warmup Instructions: 100000000
Simulation Instructions: 150000000
Number of CPUs: 1
LLC sets: 2048
LLC ways: 16
Clean RRIP Policies: 0 Dirty RRIP Policies: 0 PSEL Width: 10 Track Set: 4294967295 PSEL Mask: 15 Demote Mask: 0DS Algo: 0Window size: 64
Off-chip DRAM Size: 4096 MB Channels: 1 Width: 64-bit Data Rate: 1600 MT/s

CPU 0 runs /mnt/beegfs/pchatz06/traces/511.povray_r.refrate.input1.region_12.w_0.03508.trace.gz
NOT SORTED
TRACE STRING: /mnt/beegfs/pchatz06/traces/511.povray_r.refrate.input1.region_12.w_0.03508.trace.gz
SORTED
TRACE STRING: /mnt/beegfs/pchatz06/traces/511.povray_r.refrate.input1.region_12.w_0.03508.trace.gz
INITIAL
TRACE STRING: /mnt/beegfs/pchatz06/traces/511.povray_r.refrate.input1.region_12.w_0.03508.trace.gz

champsim_seed used: 256

CPU 0 L1D next line prefetcher
CPU 0 L2C IP-based stride prefetcher
Heartbeat CPU 0 instructions: 10000000 cycles: 7060141 heartbeat IPC: 1.4164 cumulative IPC: 1.4164 (Simulation time: 0 hr 0 min 18 sec) 
Heartbeat CPU 0 instructions: 20000000 cycles: 14088707 heartbeat IPC: 1.42277 cumulative IPC: 1.41958 (Simulation time: 0 hr 0 min 36 sec) 
Heartbeat CPU 0 instructions: 30000000 cycles: 21120740 heartbeat IPC: 1.42206 cumulative IPC: 1.4204 (Simulation time: 0 hr 0 min 54 sec) 
Heartbeat CPU 0 instructions: 40000000 cycles: 28156299 heartbeat IPC: 1.42135 cumulative IPC: 1.42064 (Simulation time: 0 hr 1 min 13 sec) 
Heartbeat CPU 0 instructions: 50000001 cycles: 35187716 heartbeat IPC: 1.42219 cumulative IPC: 1.42095 (Simulation time: 0 hr 1 min 31 sec) 
Heartbeat CPU 0 instructions: 60000000 cycles: 42230272 heartbeat IPC: 1.41994 cumulative IPC: 1.42078 (Simulation time: 0 hr 1 min 50 sec) 
Heartbeat CPU 0 instructions: 70000002 cycles: 49277430 heartbeat IPC: 1.41901 cumulative IPC: 1.42053 (Simulation time: 0 hr 2 min 8 sec) 
Heartbeat CPU 0 instructions: 80000000 cycles: 56342511 heartbeat IPC: 1.41541 cumulative IPC: 1.41989 (Simulation time: 0 hr 2 min 27 sec) 
Heartbeat CPU 0 instructions: 90000001 cycles: 63390636 heartbeat IPC: 1.41882 cumulative IPC: 1.41977 (Simulation time: 0 hr 2 min 46 sec) 
Heartbeat CPU 0 instructions: 100000000 cycles: 70414398 heartbeat IPC: 1.42374 cumulative IPC: 1.42016 (Simulation time: 0 hr 3 min 4 sec) 

Warmup complete CPU 0 instructions: 100000002 cycles: 70414399 (Simulation time: 0 hr 3 min 4 sec) 

Heartbeat CPU 0 instructions: 110000000 cycles: 95833553 heartbeat IPC: 0.393404 cumulative IPC: 0.393404 (Simulation time: 0 hr 3 min 36 sec) 
Heartbeat CPU 0 instructions: 120000000 cycles: 121248857 heartbeat IPC: 0.393464 cumulative IPC: 0.393434 (Simulation time: 0 hr 4 min 8 sec) 
Heartbeat CPU 0 instructions: 130000000 cycles: 146689141 heartbeat IPC: 0.393077 cumulative IPC: 0.393315 (Simulation time: 0 hr 4 min 40 sec) 
Heartbeat CPU 0 instructions: 140000000 cycles: 172169688 heartbeat IPC: 0.392456 cumulative IPC: 0.3931 (Simulation time: 0 hr 5 min 12 sec) 
Heartbeat CPU 0 instructions: 150000000 cycles: 197678779 heartbeat IPC: 0.392017 cumulative IPC: 0.392883 (Simulation time: 0 hr 5 min 44 sec) 
Heartbeat CPU 0 instructions: 160000000 cycles: 223174662 heartbeat IPC: 0.39222 cumulative IPC: 0.392772 (Simulation time: 0 hr 6 min 16 sec) 
Heartbeat CPU 0 instructions: 170000002 cycles: 248631587 heartbeat IPC: 0.392821 cumulative IPC: 0.392779 (Simulation time: 0 hr 6 min 47 sec) 
Heartbeat CPU 0 instructions: 180000000 cycles: 274106969 heartbeat IPC: 0.392536 cumulative IPC: 0.392749 (Simulation time: 0 hr 7 min 17 sec) 
Heartbeat CPU 0 instructions: 190000001 cycles: 299664544 heartbeat IPC: 0.391273 cumulative IPC: 0.392584 (Simulation time: 0 hr 7 min 48 sec) 
Heartbeat CPU 0 instructions: 200000000 cycles: 325303954 heartbeat IPC: 0.390025 cumulative IPC: 0.392327 (Simulation time: 0 hr 8 min 18 sec) 
Heartbeat CPU 0 instructions: 210000000 cycles: 350970615 heartbeat IPC: 0.38961 cumulative IPC: 0.392078 (Simulation time: 0 hr 8 min 49 sec) 
Heartbeat CPU 0 instructions: 220000000 cycles: 376670785 heartbeat IPC: 0.389102 cumulative IPC: 0.391829 (Simulation time: 0 hr 9 min 19 sec) 
Heartbeat CPU 0 instructions: 230000000 cycles: 402284013 heartbeat IPC: 0.390423 cumulative IPC: 0.39172 (Simulation time: 0 hr 9 min 50 sec) 
Heartbeat CPU 0 instructions: 240000000 cycles: 427851140 heartbeat IPC: 0.391127 cumulative IPC: 0.391678 (Simulation time: 0 hr 10 min 20 sec) 
*** Reached end of trace for Core: 0 Repeating trace: /mnt/beegfs/pchatz06/traces/511.povray_r.refrate.input1.region_12.w_0.03508.trace.gz
Heartbeat CPU 0 instructions: 250000000 cycles: 453342466 heartbeat IPC: 0.39229 cumulative IPC: 0.391718 (Simulation time: 0 hr 10 min 50 sec) 
Finished CPU 0 instructions: 150000002 cycles: 382928085 cumulative IPC: 0.391718 (Simulation time: 0 hr 10 min 50 sec) 

CPU 0 Branch Prediction Accuracy: 97.371% MPKI: 2.92161
Number of Branches: 16669259 Number of Mispredictions: 438242
Number of LOAD Instructions: 85594628
Number of LOAD Instructions (ROI): 85594628
Number of STORE Instructions: 31323390
Number of STORE Instructions (ROI): 31323390
Total Destination Memory Operands: 37411870
Total Destination Memory Operands (ROI): 37411870
Total Source Memory Operands: 85594628
Total Source Memory Operands (ROI): 85594628
Number of DEPENDED LOADS: 2209410
Number of DEPENDED LOADS (ROI): 2209410
Number of SQ_ADDED: 37411860
Number of SQ_ADDED (ROI): 37411860
Number of LQ_ADDED: 111838087
Number of LQ_ADDED (ROI): 111838087
Number of Instructions read from trace: 250000061

ChampSim completed all CPUs

Region of Interest Statistics

CPU 0 cumulative IPC: 0.391718 instructions: 150000002 cycles: 382928085
ITLB TOTAL     ACCESS:   39480394  HIT:   39480239  MISS:        155
ITLB LOAD      ACCESS:   39480394  HIT:   39480239  MISS:        155
ITLB RFO       ACCESS:          0  HIT:          0  MISS:          0
ITLB PREFETCH  ACCESS:          0  HIT:          0  MISS:          0
ITLB WRITEBACK ACCESS:          0  HIT:          0  MISS:          0
ITLB PREFETCH  REQUESTED:          0  ISSUED:          0  USEFUL:          0  USELESS:          0
ITLB TOTAL MSHR MERGED:        296
ITLB LOAD MSHR MERGED:        296
ITLB RFO MSHR MERGED:          0
ITLB PREFETCH MSHR MERGED:          0
ITLB WRITEBACK MSHR MERGED:          0
ITLB TOTAL ACCESSES:   39480690 HITS:   39480239 MISSES:        451
ITLB LOAD ACCESSES:   39480690 HITS:   39480239 MISSES:        451
ITLB RFO ACCESSES:          0 HITS:          0 MISSES:          0
ITLB PREFETCH ACCESSES:          0 HITS:          0 MISSES:          0
ITLB WRITEBACK ACCESSES:          0 HITS:          0 MISSES:          0
ITLB RQ ACCESS:  149999808
ITLB RQ TO_CACHE:   39480690
ITLB RQ MERGED:  110519118
ITLB RQ FORWARD:          0
ITLB WQ ACCESS:          0
ITLB WQ TO_CACHE:          0
ITLB WQ MERGED:          0
ITLB WQ FORWARD:          0
DTLB TOTAL     ACCESS:   53562093  HIT:   53449307  MISS:     112786
DTLB LOAD      ACCESS:   34384851  HIT:   34283315  MISS:     101536
DTLB RFO       ACCESS:   19177242  HIT:   19165992  MISS:      11250
DTLB PREFETCH  ACCESS:          0  HIT:          0  MISS:          0
DTLB WRITEBACK ACCESS:          0  HIT:          0  MISS:          0
DTLB PREFETCH  REQUESTED:          0  ISSUED:          0  USEFUL:          0  USELESS:          0
DTLB TOTAL MSHR MERGED:      25852
DTLB LOAD MSHR MERGED:      21961
DTLB RFO MSHR MERGED:       3891
DTLB PREFETCH MSHR MERGED:          0
DTLB WRITEBACK MSHR MERGED:          0
DTLB TOTAL ACCESSES:   53587945 HITS:   53449307 MISSES:     138638
DTLB LOAD ACCESSES:   34406812 HITS:   34283315 MISSES:     123497
DTLB RFO ACCESSES:   19181133 HITS:   19165992 MISSES:      15141
DTLB PREFETCH ACCESSES:          0 HITS:          0 MISSES:          0
DTLB WRITEBACK ACCESSES:          0 HITS:          0 MISSES:          0
DTLB RQ ACCESS:   72309878
DTLB RQ TO_CACHE:   53587945
DTLB RQ MERGED:   18721933
DTLB RQ FORWARD:          0
DTLB WQ ACCESS:          0
DTLB WQ TO_CACHE:          0
DTLB WQ MERGED:          0
DTLB WQ FORWARD:          0
L1D TOTAL     ACCESS:   94946459  HIT:   89594861  MISS:    5351598
L1D LOAD      ACCESS:   37235780  HIT:   34567266  MISS:    2668514
L1D RFO       ACCESS:   22106900  HIT:   21771779  MISS:     335121
L1D PREFETCH  ACCESS:   35603779  HIT:   33255816  MISS:    2347963
L1D WRITEBACK ACCESS:          0  HIT:          0  MISS:          0
L1D PREFETCH  REQUESTED:   37309139  ISSUED:   36986168  USEFUL:     959460  USELESS:    1388507
L1D TOTAL MSHR MERGED:     930061
L1D LOAD MSHR MERGED:     100890
L1D RFO MSHR MERGED:     226018
L1D PREFETCH MSHR MERGED:     603153
L1D WRITEBACK MSHR MERGED:          0
L1D TOTAL ACCESSES:   95884163 HITS:   89602504 MISSES:    6281659
L1D LOAD ACCESSES:   37309525 HITS:   34567652 MISSES:    2741873
L1D RFO ACCESSES:   22321866 HITS:   21771779 MISSES:     550087
L1D PREFETCH ACCESSES:   36252772 HITS:   33263073 MISSES:    2989699
L1D WRITEBACK ACCESSES:          0 HITS:          0 MISSES:          0
L1D RQ ACCESS:   49967981
L1D RQ TO_CACHE:   37309139
L1D RQ MERGED:   12658456
L1D RQ FORWARD:          0
L1D WQ ACCESS:   22341900
L1D WQ TO_CACHE:   22321867
L1D WQ MERGED:      20033
L1D WQ FORWARD:       7643
L1I TOTAL     ACCESS:   47015675  HIT:   46314731  MISS:     700944
L1I LOAD      ACCESS:   47015675  HIT:   46314731  MISS:     700944
L1I RFO       ACCESS:          0  HIT:          0  MISS:          0
L1I PREFETCH  ACCESS:          0  HIT:          0  MISS:          0
L1I WRITEBACK ACCESS:          0  HIT:          0  MISS:          0
L1I PREFETCH  REQUESTED:          0  ISSUED:          0  USEFUL:          0  USELESS:          0
L1I TOTAL MSHR MERGED:     553331
L1I LOAD MSHR MERGED:     553331
L1I RFO MSHR MERGED:          0
L1I PREFETCH MSHR MERGED:          0
L1I WRITEBACK MSHR MERGED:          0
L1I TOTAL ACCESSES:   47569006 HITS:   46314731 MISSES:    1254275
L1I LOAD ACCESSES:   47569006 HITS:   46314731 MISSES:    1254275
L1I RFO ACCESSES:          0 HITS:          0 MISSES:          0
L1I PREFETCH ACCESSES:          0 HITS:          0 MISSES:          0
L1I WRITEBACK ACCESSES:          0 HITS:          0 MISSES:          0
L1I RQ ACCESS:  149999811
L1I RQ TO_CACHE:   47569006
L1I RQ MERGED:  102430805
L1I RQ FORWARD:          0
L1I WQ ACCESS:          0
L1I WQ TO_CACHE:          0
L1I WQ MERGED:          0
L1I WQ FORWARD:          0
L2C TOTAL     ACCESS:    6787113  HIT:    6785462  MISS:       1651
L2C LOAD      ACCESS:    3341924  HIT:    3340985  MISS:        939
L2C RFO       ACCESS:     323934  HIT:     323855  MISS:         79
L2C PREFETCH  ACCESS:    2546485  HIT:    2545852  MISS:        633
L2C WRITEBACK ACCESS:     574770  HIT:     574770  MISS:          0
L2C PREFETCH  REQUESTED:     160495  ISSUED:     160495  USEFUL:        429  USELESS:        118
L2C TOTAL MSHR MERGED:          0
L2C LOAD MSHR MERGED:          0
L2C RFO MSHR MERGED:          0
L2C PREFETCH MSHR MERGED:          0
L2C WRITEBACK MSHR MERGED:          0
L2C TOTAL ACCESSES:    6787277 HITS:    6785626 MISSES:       1651
L2C LOAD ACCESSES:    3341927 HITS:    3340988 MISSES:        939
L2C RFO ACCESSES:     324069 HITS:     323990 MISSES:         79
L2C PREFETCH ACCESSES:    2546511 HITS:    2545878 MISSES:        633
L2C WRITEBACK ACCESSES:     574770 HITS:     574770 MISSES:          0
L2C RQ ACCESS:    3665996
L2C RQ TO_CACHE:    3665858
L2C RQ MERGED:          0
L2C RQ FORWARD:          0
L2C WQ ACCESS:     574770
L2C WQ TO_CACHE:     574770
L2C WQ MERGED:          0
L2C WQ FORWARD:        164
LLC TOTAL     ACCESS:       1695  HIT:        535  MISS:       1160
LLC LOAD      ACCESS:        939  HIT:        345  MISS:        594
LLC RFO       ACCESS:         79  HIT:         15  MISS:         64
LLC PREFETCH  ACCESS:        633  HIT:        131  MISS:        502
LLC WRITEBACK ACCESS:         44  HIT:         44  MISS:          0
LLC PREFETCH  REQUESTED:          0  ISSUED:          0  USEFUL:         19  USELESS:          0
LLC TOTAL MSHR MERGED:          0
LLC LOAD MSHR MERGED:          0
LLC RFO MSHR MERGED:          0
LLC PREFETCH MSHR MERGED:          0
LLC WRITEBACK MSHR MERGED:          0
LLC TOTAL ACCESSES:       1695 HITS:        535 MISSES:       1160
LLC LOAD ACCESSES:        939 HITS:        345 MISSES:        594
LLC RFO ACCESSES:         79 HITS:         15 MISSES:         64
LLC PREFETCH ACCESSES:        633 HITS:        131 MISSES:        502
LLC WRITEBACK ACCESSES:         44 HITS:         44 MISSES:          0
LLC 0 RQ ACCESS:       1018
LLC 0 RQ TO_CACHE:       1018
LLC 0 RQ MERGED:          0
LLC 0 RQ FORWARD:          0
LLC WQ ACCESS:         44
LLC WQ TO_CACHE:         44
LLC WQ MERGED:          0
LLC WQ FORWARD:          0
Major fault: 0 Minor fault: 213
CPU 0 L1D next line prefetcher final stats
CPU 0 L2C PC-based stride prefetcher final stats

DRAM Statistics
 CHANNEL 0
 RQ ROW_BUFFER_HIT:        627  ROW_BUFFER_MISS:        533
 DBUS_CONGESTED:        358
 WQ ROW_BUFFER_HIT:          0  ROW_BUFFER_MISS:          0  FULL:          0

 AVG_CONGESTED_CYCLE: 12
LOADS RETIRED: 51321468
INSTR RETIRED: 150000000
