
*** ChampSim Multicore Out-of-Order Simulator ***

Warmup Instructions: 100000000
Simulation Instructions: 150000000
Number of CPUs: 1
LLC sets: 2048
LLC ways: 16
Clean RRIP Policies: 0 Dirty RRIP Policies: 0 PSEL Width: 10 Track Set: 4294967295 PSEL Mask: 15 Demote Mask: 0DS Algo: 0Window size: 64
Off-chip DRAM Size: 4096 MB Channels: 1 Width: 64-bit Data Rate: 1600 MT/s

CPU 0 runs /mnt/beegfs/pchatz06/traces/511.povray_r.refrate.input1.region_3.w_0.14579.trace.gz
NOT SORTED
TRACE STRING: /mnt/beegfs/pchatz06/traces/511.povray_r.refrate.input1.region_3.w_0.14579.trace.gz
SORTED
TRACE STRING: /mnt/beegfs/pchatz06/traces/511.povray_r.refrate.input1.region_3.w_0.14579.trace.gz
INITIAL
TRACE STRING: /mnt/beegfs/pchatz06/traces/511.povray_r.refrate.input1.region_3.w_0.14579.trace.gz

champsim_seed used: 266

CPU 0 L1D next line prefetcher
CPU 0 L2C IP-based stride prefetcher
Heartbeat CPU 0 instructions: 10000002 cycles: 7051614 heartbeat IPC: 1.41812 cumulative IPC: 1.41812 (Simulation time: 0 hr 0 min 17 sec) 
Heartbeat CPU 0 instructions: 20000000 cycles: 14037769 heartbeat IPC: 1.4314 cumulative IPC: 1.42473 (Simulation time: 0 hr 0 min 34 sec) 
Heartbeat CPU 0 instructions: 30000000 cycles: 20944159 heartbeat IPC: 1.44793 cumulative IPC: 1.43238 (Simulation time: 0 hr 0 min 52 sec) 
Heartbeat CPU 0 instructions: 40000000 cycles: 27867310 heartbeat IPC: 1.44443 cumulative IPC: 1.43537 (Simulation time: 0 hr 1 min 9 sec) 
Heartbeat CPU 0 instructions: 50000000 cycles: 34790257 heartbeat IPC: 1.44447 cumulative IPC: 1.43718 (Simulation time: 0 hr 1 min 26 sec) 
Heartbeat CPU 0 instructions: 60000000 cycles: 41651619 heartbeat IPC: 1.45744 cumulative IPC: 1.44052 (Simulation time: 0 hr 1 min 44 sec) 
Heartbeat CPU 0 instructions: 70000001 cycles: 48651165 heartbeat IPC: 1.42866 cumulative IPC: 1.43881 (Simulation time: 0 hr 2 min 1 sec) 
Heartbeat CPU 0 instructions: 80000000 cycles: 55775408 heartbeat IPC: 1.40366 cumulative IPC: 1.43432 (Simulation time: 0 hr 2 min 18 sec) 
Heartbeat CPU 0 instructions: 90000003 cycles: 62938800 heartbeat IPC: 1.39599 cumulative IPC: 1.42996 (Simulation time: 0 hr 2 min 35 sec) 
Heartbeat CPU 0 instructions: 100000000 cycles: 69948681 heartbeat IPC: 1.42656 cumulative IPC: 1.42962 (Simulation time: 0 hr 2 min 52 sec) 

Warmup complete CPU 0 instructions: 100000001 cycles: 69948685 (Simulation time: 0 hr 2 min 52 sec) 

Heartbeat CPU 0 instructions: 110000002 cycles: 95901646 heartbeat IPC: 0.385312 cumulative IPC: 0.385313 (Simulation time: 0 hr 3 min 22 sec) 
Heartbeat CPU 0 instructions: 120000000 cycles: 121923424 heartbeat IPC: 0.384293 cumulative IPC: 0.384802 (Simulation time: 0 hr 3 min 52 sec) 
Heartbeat CPU 0 instructions: 130000002 cycles: 147079092 heartbeat IPC: 0.397525 cumulative IPC: 0.388952 (Simulation time: 0 hr 4 min 22 sec) 
Heartbeat CPU 0 instructions: 140000000 cycles: 171728137 heartbeat IPC: 0.405695 cumulative IPC: 0.393007 (Simulation time: 0 hr 4 min 51 sec) 
Heartbeat CPU 0 instructions: 150000001 cycles: 197020353 heartbeat IPC: 0.395379 cumulative IPC: 0.393479 (Simulation time: 0 hr 5 min 21 sec) 
Heartbeat CPU 0 instructions: 160000000 cycles: 222341868 heartbeat IPC: 0.394921 cumulative IPC: 0.393718 (Simulation time: 0 hr 5 min 51 sec) 
Heartbeat CPU 0 instructions: 170000000 cycles: 247918479 heartbeat IPC: 0.390982 cumulative IPC: 0.393325 (Simulation time: 0 hr 6 min 22 sec) 
Heartbeat CPU 0 instructions: 180000000 cycles: 273470588 heartbeat IPC: 0.391357 cumulative IPC: 0.393078 (Simulation time: 0 hr 6 min 52 sec) 
Heartbeat CPU 0 instructions: 190000001 cycles: 299282870 heartbeat IPC: 0.387413 cumulative IPC: 0.39244 (Simulation time: 0 hr 7 min 22 sec) 
Heartbeat CPU 0 instructions: 200000000 cycles: 324262225 heartbeat IPC: 0.400331 cumulative IPC: 0.393215 (Simulation time: 0 hr 7 min 52 sec) 
Heartbeat CPU 0 instructions: 210000001 cycles: 348260102 heartbeat IPC: 0.416704 cumulative IPC: 0.395241 (Simulation time: 0 hr 8 min 22 sec) 
Heartbeat CPU 0 instructions: 220000000 cycles: 371950857 heartbeat IPC: 0.422106 cumulative IPC: 0.397348 (Simulation time: 0 hr 8 min 51 sec) 
Heartbeat CPU 0 instructions: 230000000 cycles: 396076127 heartbeat IPC: 0.414503 cumulative IPC: 0.398617 (Simulation time: 0 hr 9 min 20 sec) 
Heartbeat CPU 0 instructions: 240000000 cycles: 420599983 heartbeat IPC: 0.407766 cumulative IPC: 0.399257 (Simulation time: 0 hr 9 min 49 sec) 
*** Reached end of trace for Core: 0 Repeating trace: /mnt/beegfs/pchatz06/traces/511.povray_r.refrate.input1.region_3.w_0.14579.trace.gz
Heartbeat CPU 0 instructions: 250000001 cycles: 445330992 heartbeat IPC: 0.404351 cumulative IPC: 0.399593 (Simulation time: 0 hr 10 min 18 sec) 
Finished CPU 0 instructions: 150000000 cycles: 375382307 cumulative IPC: 0.399593 (Simulation time: 0 hr 10 min 18 sec) 

CPU 0 Branch Prediction Accuracy: 95.8866% MPKI: 4.74905
Number of Branches: 17317792 Number of Mispredictions: 712358
Number of LOAD Instructions: 84301196
Number of LOAD Instructions (ROI): 84301196
Number of STORE Instructions: 30134472
Number of STORE Instructions (ROI): 30134472
Total Destination Memory Operands: 36166468
Total Destination Memory Operands (ROI): 36166468
Total Source Memory Operands: 84301196
Total Source Memory Operands (ROI): 84301196
Number of DEPENDED LOADS: 2199839
Number of DEPENDED LOADS (ROI): 2199839
Number of SQ_ADDED: 36166467
Number of SQ_ADDED (ROI): 36166467
Number of LQ_ADDED: 108138811
Number of LQ_ADDED (ROI): 108138811
Number of Instructions read from trace: 250000007

ChampSim completed all CPUs

Region of Interest Statistics

CPU 0 cumulative IPC: 0.399593 instructions: 150000000 cycles: 375382307
ITLB TOTAL     ACCESS:   37735513  HIT:   37735494  MISS:         19
ITLB LOAD      ACCESS:   37735513  HIT:   37735494  MISS:         19
ITLB RFO       ACCESS:          0  HIT:          0  MISS:          0
ITLB PREFETCH  ACCESS:          0  HIT:          0  MISS:          0
ITLB WRITEBACK ACCESS:          0  HIT:          0  MISS:          0
ITLB PREFETCH  REQUESTED:          0  ISSUED:          0  USEFUL:          0  USELESS:          0
ITLB TOTAL MSHR MERGED:         28
ITLB LOAD MSHR MERGED:         28
ITLB RFO MSHR MERGED:          0
ITLB PREFETCH MSHR MERGED:          0
ITLB WRITEBACK MSHR MERGED:          0
ITLB TOTAL ACCESSES:   37735541 HITS:   37735494 MISSES:         47
ITLB LOAD ACCESSES:   37735541 HITS:   37735494 MISSES:         47
ITLB RFO ACCESSES:          0 HITS:          0 MISSES:          0
ITLB PREFETCH ACCESSES:          0 HITS:          0 MISSES:          0
ITLB WRITEBACK ACCESSES:          0 HITS:          0 MISSES:          0
ITLB RQ ACCESS:  149999751
ITLB RQ TO_CACHE:   37735541
ITLB RQ MERGED:  112264210
ITLB RQ FORWARD:          0
ITLB WQ ACCESS:          0
ITLB WQ TO_CACHE:          0
ITLB WQ MERGED:          0
ITLB WQ FORWARD:          0
DTLB TOTAL     ACCESS:   52047906  HIT:   51956255  MISS:      91651
DTLB LOAD      ACCESS:   33591952  HIT:   33509224  MISS:      82728
DTLB RFO       ACCESS:   18455954  HIT:   18447031  MISS:       8923
DTLB PREFETCH  ACCESS:          0  HIT:          0  MISS:          0
DTLB WRITEBACK ACCESS:          0  HIT:          0  MISS:          0
DTLB PREFETCH  REQUESTED:          0  ISSUED:          0  USEFUL:          0  USELESS:          0
DTLB TOTAL MSHR MERGED:      32744
DTLB LOAD MSHR MERGED:      26435
DTLB RFO MSHR MERGED:       6309
DTLB PREFETCH MSHR MERGED:          0
DTLB WRITEBACK MSHR MERGED:          0
DTLB TOTAL ACCESSES:   52080650 HITS:   51956255 MISSES:     124395
DTLB LOAD ACCESSES:   33618387 HITS:   33509224 MISSES:     109163
DTLB RFO ACCESSES:   18462263 HITS:   18447031 MISSES:      15232
DTLB PREFETCH ACCESSES:          0 HITS:          0 MISSES:          0
DTLB WRITEBACK ACCESSES:          0 HITS:          0 MISSES:          0
DTLB RQ ACCESS:   70517661
DTLB RQ TO_CACHE:   52080650
DTLB RQ MERGED:   18437011
DTLB RQ FORWARD:          0
DTLB WQ ACCESS:          0
DTLB WQ TO_CACHE:          0
DTLB WQ MERGED:          0
DTLB WQ FORWARD:          0
L1D TOTAL     ACCESS:   92324036  HIT:   87629837  MISS:    4694199
L1D LOAD      ACCESS:   36522999  HIT:   34213103  MISS:    2309896
L1D RFO       ACCESS:   21250457  HIT:   20959773  MISS:     290684
L1D PREFETCH  ACCESS:   34550580  HIT:   32456961  MISS:    2093619
L1D WRITEBACK ACCESS:          0  HIT:          0  MISS:          0
L1D PREFETCH  REQUESTED:   36579002  ISSUED:   35956265  USEFUL:     891012  USELESS:    1202619
L1D TOTAL MSHR MERGED:     764803
L1D LOAD MSHR MERGED:      83197
L1D RFO MSHR MERGED:     183732
L1D PREFETCH MSHR MERGED:     497874
L1D WRITEBACK MSHR MERGED:          0
L1D TOTAL ACCESSES:   93096887 HITS:   87637885 MISSES:    5459002
L1D LOAD ACCESSES:   36579366 HITS:   34213467 MISSES:    2365899
L1D RFO ACCESSES:   21432601 HITS:   20959773 MISSES:     472828
L1D PREFETCH ACCESSES:   35084920 HITS:   32464645 MISSES:    2620275
L1D WRITEBACK ACCESSES:          0 HITS:          0 MISSES:          0
L1D RQ ACCESS:   49064522
L1D RQ TO_CACHE:   36579002
L1D RQ MERGED:   12485156
L1D RQ FORWARD:          0
L1D WQ ACCESS:   21453143
L1D WQ TO_CACHE:   21432600
L1D WQ MERGED:      20543
L1D WQ FORWARD:       8048
L1I TOTAL     ACCESS:   45708248  HIT:   45191663  MISS:     516585
L1I LOAD      ACCESS:   45708248  HIT:   45191663  MISS:     516585
L1I RFO       ACCESS:          0  HIT:          0  MISS:          0
L1I PREFETCH  ACCESS:          0  HIT:          0  MISS:          0
L1I WRITEBACK ACCESS:          0  HIT:          0  MISS:          0
L1I PREFETCH  REQUESTED:          0  ISSUED:          0  USEFUL:          0  USELESS:          0
L1I TOTAL MSHR MERGED:     397081
L1I LOAD MSHR MERGED:     397081
L1I RFO MSHR MERGED:          0
L1I PREFETCH MSHR MERGED:          0
L1I WRITEBACK MSHR MERGED:          0
L1I TOTAL ACCESSES:   46105329 HITS:   45191663 MISSES:     913666
L1I LOAD ACCESSES:   46105329 HITS:   45191663 MISSES:     913666
L1I RFO ACCESSES:          0 HITS:          0 MISSES:          0
L1I PREFETCH ACCESSES:          0 HITS:          0 MISSES:          0
L1I WRITEBACK ACCESSES:          0 HITS:          0 MISSES:          0
L1I RQ ACCESS:  149999751
L1I RQ TO_CACHE:   46105329
L1I RQ MERGED:  103894422
L1I RQ FORWARD:          0
L1I WQ ACCESS:          0
L1I WQ TO_CACHE:          0
L1I WQ MERGED:          0
L1I WQ FORWARD:          0
L2C TOTAL     ACCESS:    5780981  HIT:    5745611  MISS:      35370
L2C LOAD      ACCESS:    2799286  HIT:    2777753  MISS:      21533
L2C RFO       ACCESS:     289095  HIT:     286752  MISS:       2343
L2C PREFETCH  ACCESS:    2216357  HIT:    2204901  MISS:      11456
L2C WRITEBACK ACCESS:     476243  HIT:     476205  MISS:         38
L2C PREFETCH  REQUESTED:      94232  ISSUED:      94232  USEFUL:       3947  USELESS:       7711
L2C TOTAL MSHR MERGED:          0
L2C LOAD MSHR MERGED:          0
L2C RFO MSHR MERGED:          0
L2C PREFETCH MSHR MERGED:          0
L2C WRITEBACK MSHR MERGED:          0
L2C TOTAL ACCESSES:    5780985 HITS:    5745615 MISSES:      35370
L2C LOAD ACCESSES:    2799287 HITS:    2777754 MISSES:      21533
L2C RFO ACCESSES:     289096 HITS:     286753 MISSES:       2343
L2C PREFETCH ACCESSES:    2216359 HITS:    2204903 MISSES:      11456
L2C WRITEBACK ACCESSES:     476243 HITS:     476205 MISSES:         38
L2C RQ ACCESS:    3088383
L2C RQ TO_CACHE:    3088381
L2C RQ MERGED:          0
L2C RQ FORWARD:          0
L2C WQ ACCESS:     476243
L2C WQ TO_CACHE:     476243
L2C WQ MERGED:          0
L2C WQ FORWARD:          4
LLC TOTAL     ACCESS:      42133  HIT:      41122  MISS:       1011
LLC LOAD      ACCESS:      21533  HIT:      21038  MISS:        495
LLC RFO       ACCESS:       2343  HIT:       2329  MISS:         14
LLC PREFETCH  ACCESS:      11456  HIT:      10954  MISS:        502
LLC WRITEBACK ACCESS:       6801  HIT:       6801  MISS:          0
LLC PREFETCH  REQUESTED:          0  ISSUED:          0  USEFUL:        371  USELESS:          0
LLC TOTAL MSHR MERGED:          0
LLC LOAD MSHR MERGED:          0
LLC RFO MSHR MERGED:          0
LLC PREFETCH MSHR MERGED:          0
LLC WRITEBACK MSHR MERGED:          0
LLC TOTAL ACCESSES:      42133 HITS:      41122 MISSES:       1011
LLC LOAD ACCESSES:      21533 HITS:      21038 MISSES:        495
LLC RFO ACCESSES:       2343 HITS:       2329 MISSES:         14
LLC PREFETCH ACCESSES:      11456 HITS:      10954 MISSES:        502
LLC WRITEBACK ACCESSES:       6801 HITS:       6801 MISSES:          0
LLC 0 RQ ACCESS:      23876
LLC 0 RQ TO_CACHE:      23876
LLC 0 RQ MERGED:          0
LLC 0 RQ FORWARD:          0
LLC WQ ACCESS:       6801
LLC WQ TO_CACHE:       6801
LLC WQ MERGED:          0
LLC WQ FORWARD:          0
Major fault: 0 Minor fault: 258
CPU 0 L1D next line prefetcher final stats
CPU 0 L2C PC-based stride prefetcher final stats

DRAM Statistics
 CHANNEL 0
 RQ ROW_BUFFER_HIT:        516  ROW_BUFFER_MISS:        495
 DBUS_CONGESTED:        403
 WQ ROW_BUFFER_HIT:          0  ROW_BUFFER_MISS:          0  FULL:          0

 AVG_CONGESTED_CYCLE: 13
LOADS RETIRED: 50411679
INSTR RETIRED: 150000000
