
*** ChampSim Multicore Out-of-Order Simulator ***

Warmup Instructions: 100000000
Simulation Instructions: 150000000
Number of CPUs: 1
LLC sets: 2048
LLC ways: 16
Clean RRIP Policies: 0 Dirty RRIP Policies: 0 PSEL Width: 10 Track Set: 4294967295 PSEL Mask: 15 Demote Mask: 0DS Algo: 0Window size: 64
Off-chip DRAM Size: 4096 MB Channels: 1 Width: 64-bit Data Rate: 1600 MT/s

CPU 0 runs /mnt/beegfs/pchatz06/traces/511.povray_r.train.input1.region_9.w_0.12281.trace.gz
NOT SORTED
TRACE STRING: /mnt/beegfs/pchatz06/traces/511.povray_r.train.input1.region_9.w_0.12281.trace.gz
SORTED
TRACE STRING: /mnt/beegfs/pchatz06/traces/511.povray_r.train.input1.region_9.w_0.12281.trace.gz
INITIAL
TRACE STRING: /mnt/beegfs/pchatz06/traces/511.povray_r.train.input1.region_9.w_0.12281.trace.gz

champsim_seed used: 254

CPU 0 L1D next line prefetcher
CPU 0 L2C IP-based stride prefetcher
Heartbeat CPU 0 instructions: 10000002 cycles: 7566096 heartbeat IPC: 1.32169 cumulative IPC: 1.32169 (Simulation time: 0 hr 0 min 19 sec) 
Heartbeat CPU 0 instructions: 20000000 cycles: 15066512 heartbeat IPC: 1.33326 cumulative IPC: 1.32745 (Simulation time: 0 hr 0 min 37 sec) 
Heartbeat CPU 0 instructions: 30000000 cycles: 22286436 heartbeat IPC: 1.38506 cumulative IPC: 1.34611 (Simulation time: 0 hr 0 min 55 sec) 
Heartbeat CPU 0 instructions: 40000000 cycles: 29310810 heartbeat IPC: 1.42361 cumulative IPC: 1.36468 (Simulation time: 0 hr 1 min 12 sec) 
Heartbeat CPU 0 instructions: 50000000 cycles: 36364882 heartbeat IPC: 1.41762 cumulative IPC: 1.37495 (Simulation time: 0 hr 1 min 30 sec) 
Heartbeat CPU 0 instructions: 60000000 cycles: 43359066 heartbeat IPC: 1.42976 cumulative IPC: 1.38379 (Simulation time: 0 hr 1 min 47 sec) 
Heartbeat CPU 0 instructions: 70000001 cycles: 50476801 heartbeat IPC: 1.40494 cumulative IPC: 1.38678 (Simulation time: 0 hr 2 min 5 sec) 
Heartbeat CPU 0 instructions: 80000000 cycles: 57575467 heartbeat IPC: 1.40872 cumulative IPC: 1.38948 (Simulation time: 0 hr 2 min 22 sec) 
Heartbeat CPU 0 instructions: 90000000 cycles: 64600847 heartbeat IPC: 1.42341 cumulative IPC: 1.39317 (Simulation time: 0 hr 2 min 40 sec) 
Heartbeat CPU 0 instructions: 100000000 cycles: 71652174 heartbeat IPC: 1.41817 cumulative IPC: 1.39563 (Simulation time: 0 hr 2 min 58 sec) 

Warmup complete CPU 0 instructions: 100000001 cycles: 71652175 (Simulation time: 0 hr 2 min 58 sec) 

Heartbeat CPU 0 instructions: 110000000 cycles: 97439743 heartbeat IPC: 0.387784 cumulative IPC: 0.387784 (Simulation time: 0 hr 3 min 29 sec) 
Heartbeat CPU 0 instructions: 120000000 cycles: 123068850 heartbeat IPC: 0.390181 cumulative IPC: 0.388979 (Simulation time: 0 hr 4 min 0 sec) 
Heartbeat CPU 0 instructions: 130000002 cycles: 148700443 heartbeat IPC: 0.390144 cumulative IPC: 0.389366 (Simulation time: 0 hr 4 min 30 sec) 
Heartbeat CPU 0 instructions: 140000000 cycles: 177483643 heartbeat IPC: 0.347425 cumulative IPC: 0.377959 (Simulation time: 0 hr 5 min 2 sec) 
Heartbeat CPU 0 instructions: 150000003 cycles: 205976221 heartbeat IPC: 0.350969 cumulative IPC: 0.372234 (Simulation time: 0 hr 5 min 35 sec) 
Heartbeat CPU 0 instructions: 160000000 cycles: 234132496 heartbeat IPC: 0.355161 cumulative IPC: 0.369275 (Simulation time: 0 hr 6 min 9 sec) 
Heartbeat CPU 0 instructions: 170000000 cycles: 260606603 heartbeat IPC: 0.377728 cumulative IPC: 0.37046 (Simulation time: 0 hr 6 min 39 sec) 
Heartbeat CPU 0 instructions: 180000000 cycles: 286754361 heartbeat IPC: 0.382442 cumulative IPC: 0.371916 (Simulation time: 0 hr 7 min 9 sec) 
Heartbeat CPU 0 instructions: 190000001 cycles: 312391390 heartbeat IPC: 0.390061 cumulative IPC: 0.373849 (Simulation time: 0 hr 7 min 38 sec) 
Heartbeat CPU 0 instructions: 200000000 cycles: 338384622 heartbeat IPC: 0.384715 cumulative IPC: 0.374908 (Simulation time: 0 hr 8 min 8 sec) 
Heartbeat CPU 0 instructions: 210000002 cycles: 363593506 heartbeat IPC: 0.396686 cumulative IPC: 0.376788 (Simulation time: 0 hr 8 min 37 sec) 
Heartbeat CPU 0 instructions: 220000000 cycles: 389054916 heartbeat IPC: 0.392751 cumulative IPC: 0.378069 (Simulation time: 0 hr 9 min 6 sec) 
Heartbeat CPU 0 instructions: 230000001 cycles: 414197706 heartbeat IPC: 0.397728 cumulative IPC: 0.379512 (Simulation time: 0 hr 9 min 36 sec) 
Heartbeat CPU 0 instructions: 240000000 cycles: 440167119 heartbeat IPC: 0.385068 cumulative IPC: 0.379903 (Simulation time: 0 hr 10 min 5 sec) 
*** Reached end of trace for Core: 0 Repeating trace: /mnt/beegfs/pchatz06/traces/511.povray_r.train.input1.region_9.w_0.12281.trace.gz
Heartbeat CPU 0 instructions: 250000000 cycles: 465874686 heartbeat IPC: 0.388991 cumulative IPC: 0.380496 (Simulation time: 0 hr 10 min 34 sec) 
Finished CPU 0 instructions: 150000003 cycles: 394222513 cumulative IPC: 0.380496 (Simulation time: 0 hr 10 min 34 sec) 

CPU 0 Branch Prediction Accuracy: 95.9687% MPKI: 4.70483
Number of Branches: 17506074 Number of Mispredictions: 705725
Number of LOAD Instructions: 85355409
Number of LOAD Instructions (ROI): 85355409
Number of STORE Instructions: 31525076
Number of STORE Instructions (ROI): 31525076
Total Destination Memory Operands: 37514921
Total Destination Memory Operands (ROI): 37514921
Total Source Memory Operands: 85355409
Total Source Memory Operands (ROI): 85355409
Number of DEPENDED LOADS: 2066439
Number of DEPENDED LOADS (ROI): 2066439
Number of SQ_ADDED: 37514921
Number of SQ_ADDED (ROI): 37514921
Number of LQ_ADDED: 109066875
Number of LQ_ADDED (ROI): 109066875
Number of Instructions read from trace: 250000016

ChampSim completed all CPUs

Region of Interest Statistics

CPU 0 cumulative IPC: 0.380496 instructions: 150000003 cycles: 394222513
ITLB TOTAL     ACCESS:   38213674  HIT:   38213608  MISS:         66
ITLB LOAD      ACCESS:   38213674  HIT:   38213608  MISS:         66
ITLB RFO       ACCESS:          0  HIT:          0  MISS:          0
ITLB PREFETCH  ACCESS:          0  HIT:          0  MISS:          0
ITLB WRITEBACK ACCESS:          0  HIT:          0  MISS:          0
ITLB PREFETCH  REQUESTED:          0  ISSUED:          0  USEFUL:          0  USELESS:          0
ITLB TOTAL MSHR MERGED:         69
ITLB LOAD MSHR MERGED:         69
ITLB RFO MSHR MERGED:          0
ITLB PREFETCH MSHR MERGED:          0
ITLB WRITEBACK MSHR MERGED:          0
ITLB TOTAL ACCESSES:   38213743 HITS:   38213608 MISSES:        135
ITLB LOAD ACCESSES:   38213743 HITS:   38213608 MISSES:        135
ITLB RFO ACCESSES:          0 HITS:          0 MISSES:          0
ITLB PREFETCH ACCESSES:          0 HITS:          0 MISSES:          0
ITLB WRITEBACK ACCESSES:          0 HITS:          0 MISSES:          0
ITLB RQ ACCESS:  149999950
ITLB RQ TO_CACHE:   38213743
ITLB RQ MERGED:  111786207
ITLB RQ FORWARD:          0
ITLB WQ ACCESS:          0
ITLB WQ TO_CACHE:          0
ITLB WQ MERGED:          0
ITLB WQ FORWARD:          0
DTLB TOTAL     ACCESS:   53586987  HIT:   53512750  MISS:      74237
DTLB LOAD      ACCESS:   34357918  HIT:   34291767  MISS:      66151
DTLB RFO       ACCESS:   19229069  HIT:   19220983  MISS:       8086
DTLB PREFETCH  ACCESS:          0  HIT:          0  MISS:          0
DTLB WRITEBACK ACCESS:          0  HIT:          0  MISS:          0
DTLB PREFETCH  REQUESTED:          0  ISSUED:          0  USEFUL:          0  USELESS:          0
DTLB TOTAL MSHR MERGED:      28004
DTLB LOAD MSHR MERGED:      25049
DTLB RFO MSHR MERGED:       2955
DTLB PREFETCH MSHR MERGED:          0
DTLB WRITEBACK MSHR MERGED:          0
DTLB TOTAL ACCESSES:   53614991 HITS:   53512750 MISSES:     102241
DTLB LOAD ACCESSES:   34382967 HITS:   34291767 MISSES:      91200
DTLB RFO ACCESSES:   19232024 HITS:   19220983 MISSES:      11041
DTLB PREFETCH ACCESSES:          0 HITS:          0 MISSES:          0
DTLB WRITEBACK ACCESSES:          0 HITS:          0 MISSES:          0
DTLB RQ ACCESS:   72279744
DTLB RQ TO_CACHE:   53614991
DTLB RQ MERGED:   18664753
DTLB RQ FORWARD:          0
DTLB WQ ACCESS:          0
DTLB WQ TO_CACHE:          0
DTLB WQ MERGED:          0
DTLB WQ FORWARD:          0
L1D TOTAL     ACCESS:   94580606  HIT:   90375992  MISS:    4204614
L1D LOAD      ACCESS:   36957766  HIT:   34924494  MISS:    2033272
L1D RFO       ACCESS:   22199441  HIT:   21899918  MISS:     299523
L1D PREFETCH  ACCESS:   35423399  HIT:   33551580  MISS:    1871819
L1D WRITEBACK ACCESS:          0  HIT:          0  MISS:          0
L1D PREFETCH  REQUESTED:   37008787  ISSUED:   36707623  USEFUL:     773693  USELESS:    1098128
L1D TOTAL MSHR MERGED:     683073
L1D LOAD MSHR MERGED:      65986
L1D RFO MSHR MERGED:     206159
L1D PREFETCH MSHR MERGED:     410928
L1D WRITEBACK MSHR MERGED:          0
L1D TOTAL ACCESSES:   95267339 HITS:   90379651 MISSES:    4887688
L1D LOAD ACCESSES:   37008993 HITS:   34924700 MISSES:    2084293
L1D RFO ACCESSES:   22403710 HITS:   21899918 MISSES:     503792
L1D PREFETCH ACCESSES:   35854636 HITS:   33555033 MISSES:    2299603
L1D WRITEBACK ACCESSES:          0 HITS:          0 MISSES:          0
L1D RQ ACCESS:   49860204
L1D RQ TO_CACHE:   37008787
L1D RQ MERGED:   12851211
L1D RQ FORWARD:          0
L1D WQ ACCESS:   22419540
L1D WQ TO_CACHE:   22403711
L1D WQ MERGED:      15829
L1D WQ FORWARD:       3659
L1I TOTAL     ACCESS:   46259906  HIT:   45914226  MISS:     345680
L1I LOAD      ACCESS:   46259906  HIT:   45914226  MISS:     345680
L1I RFO       ACCESS:          0  HIT:          0  MISS:          0
L1I PREFETCH  ACCESS:          0  HIT:          0  MISS:          0
L1I WRITEBACK ACCESS:          0  HIT:          0  MISS:          0
L1I PREFETCH  REQUESTED:          0  ISSUED:          0  USEFUL:          0  USELESS:          0
L1I TOTAL MSHR MERGED:     272942
L1I LOAD MSHR MERGED:     272942
L1I RFO MSHR MERGED:          0
L1I PREFETCH MSHR MERGED:          0
L1I WRITEBACK MSHR MERGED:          0
L1I TOTAL ACCESSES:   46532848 HITS:   45914226 MISSES:     618622
L1I LOAD ACCESSES:   46532848 HITS:   45914226 MISSES:     618622
L1I RFO ACCESSES:          0 HITS:          0 MISSES:          0
L1I PREFETCH ACCESSES:          0 HITS:          0 MISSES:          0
L1I WRITEBACK ACCESSES:          0 HITS:          0 MISSES:          0
L1I RQ ACCESS:  149999950
L1I RQ TO_CACHE:   46532848
L1I RQ MERGED:  103467102
L1I RQ FORWARD:          0
L1I WQ ACCESS:          0
L1I WQ TO_CACHE:          0
L1I WQ MERGED:          0
L1I WQ FORWARD:          0
L2C TOTAL     ACCESS:    5111695  HIT:    5067104  MISS:      44591
L2C LOAD      ACCESS:    2363721  HIT:    2336459  MISS:      27262
L2C RFO       ACCESS:     297632  HIT:     294696  MISS:       2936
L2C PREFETCH  ACCESS:    1965285  HIT:    1951553  MISS:      13732
L2C WRITEBACK ACCESS:     485057  HIT:     484396  MISS:        661
L2C PREFETCH  REQUESTED:      77466  ISSUED:      77466  USEFUL:       2904  USELESS:      11126
L2C TOTAL MSHR MERGED:         69
L2C LOAD MSHR MERGED:         25
L2C RFO MSHR MERGED:          0
L2C PREFETCH MSHR MERGED:         44
L2C WRITEBACK MSHR MERGED:          0
L2C TOTAL ACCESSES:    5112038 HITS:    5067372 MISSES:      44666
L2C LOAD ACCESSES:    2363986 HITS:    2336724 MISSES:      27262
L2C RFO ACCESSES:     297633 HITS:     294697 MISSES:       2936
L2C PREFETCH ACCESSES:    1965362 HITS:    1951555 MISSES:      13807
L2C WRITEBACK ACCESSES:     485057 HITS:     484396 MISSES:        661
L2C RQ ACCESS:    2661620
L2C RQ TO_CACHE:    2661354
L2C RQ MERGED:          0
L2C RQ FORWARD:          0
L2C WQ ACCESS:     485057
L2C WQ TO_CACHE:     485057
L2C WQ MERGED:          0
L2C WQ FORWARD:        268
LLC TOTAL     ACCESS:      48686  HIT:      47184  MISS:       1502
LLC LOAD      ACCESS:      27231  HIT:      26274  MISS:        957
LLC RFO       ACCESS:       2936  HIT:       2901  MISS:         35
LLC PREFETCH  ACCESS:      13761  HIT:      13251  MISS:        510
LLC WRITEBACK ACCESS:       4758  HIT:       4758  MISS:          0
LLC PREFETCH  REQUESTED:          0  ISSUED:          0  USEFUL:        649  USELESS:          0
LLC TOTAL MSHR MERGED:          2
LLC LOAD MSHR MERGED:          0
LLC RFO MSHR MERGED:          0
LLC PREFETCH MSHR MERGED:          2
LLC WRITEBACK MSHR MERGED:          0
LLC TOTAL ACCESSES:      48694 HITS:      47190 MISSES:       1504
LLC LOAD ACCESSES:      27237 HITS:      26280 MISSES:        957
LLC RFO ACCESSES:       2936 HITS:       2901 MISSES:         35
LLC PREFETCH ACCESSES:      13763 HITS:      13251 MISSES:        512
LLC WRITEBACK ACCESSES:       4758 HITS:       4758 MISSES:          0
LLC 0 RQ ACCESS:      30173
LLC 0 RQ TO_CACHE:      30167
LLC 0 RQ MERGED:          0
LLC 0 RQ FORWARD:          0
LLC WQ ACCESS:       4758
LLC WQ TO_CACHE:       4758
LLC WQ MERGED:          0
LLC WQ FORWARD:          6
Major fault: 0 Minor fault: 333
CPU 0 L1D next line prefetcher final stats
CPU 0 L2C PC-based stride prefetcher final stats

DRAM Statistics
 CHANNEL 0
 RQ ROW_BUFFER_HIT:        916  ROW_BUFFER_MISS:        586
 DBUS_CONGESTED:        610
 WQ ROW_BUFFER_HIT:          0  ROW_BUFFER_MISS:          0  FULL:          0

 AVG_CONGESTED_CYCLE: 13
LOADS RETIRED: 51169284
INSTR RETIRED: 150000000
