
*** ChampSim Multicore Out-of-Order Simulator ***

Warmup Instructions: 100000000
Simulation Instructions: 150000000
Number of CPUs: 1
LLC sets: 2048
LLC ways: 16
Clean RRIP Policies: 0 Dirty RRIP Policies: 0 PSEL Width: 10 Track Set: 4294967295 PSEL Mask: 15 Demote Mask: 0DS Algo: 0Window size: 64
Off-chip DRAM Size: 4096 MB Channels: 1 Width: 64-bit Data Rate: 1600 MT/s

CPU 0 runs /mnt/beegfs/pchatz06/traces/519.lbm_r.refrate.input1.region_3.w_0.24379.trace.gz
NOT SORTED
TRACE STRING: /mnt/beegfs/pchatz06/traces/519.lbm_r.refrate.input1.region_3.w_0.24379.trace.gz
SORTED
TRACE STRING: /mnt/beegfs/pchatz06/traces/519.lbm_r.refrate.input1.region_3.w_0.24379.trace.gz
INITIAL
TRACE STRING: /mnt/beegfs/pchatz06/traces/519.lbm_r.refrate.input1.region_3.w_0.24379.trace.gz

champsim_seed used: 265

CPU 0 L1D next line prefetcher
CPU 0 L2C IP-based stride prefetcher
Heartbeat CPU 0 instructions: 10000001 cycles: 4347543 heartbeat IPC: 2.30015 cumulative IPC: 2.30015 (Simulation time: 0 hr 0 min 17 sec) 
Heartbeat CPU 0 instructions: 20000000 cycles: 8676980 heartbeat IPC: 2.30977 cumulative IPC: 2.30495 (Simulation time: 0 hr 0 min 34 sec) 
Heartbeat CPU 0 instructions: 30000000 cycles: 13005242 heartbeat IPC: 2.3104 cumulative IPC: 2.30676 (Simulation time: 0 hr 0 min 52 sec) 
Heartbeat CPU 0 instructions: 40000000 cycles: 17337279 heartbeat IPC: 2.30838 cumulative IPC: 2.30717 (Simulation time: 0 hr 1 min 9 sec) 
Heartbeat CPU 0 instructions: 50000000 cycles: 21665610 heartbeat IPC: 2.31036 cumulative IPC: 2.3078 (Simulation time: 0 hr 1 min 26 sec) 
Heartbeat CPU 0 instructions: 60000000 cycles: 25993938 heartbeat IPC: 2.31036 cumulative IPC: 2.30823 (Simulation time: 0 hr 1 min 43 sec) 
Heartbeat CPU 0 instructions: 70000000 cycles: 30321982 heartbeat IPC: 2.31051 cumulative IPC: 2.30856 (Simulation time: 0 hr 2 min 1 sec) 
Heartbeat CPU 0 instructions: 80000000 cycles: 34654926 heartbeat IPC: 2.3079 cumulative IPC: 2.30847 (Simulation time: 0 hr 2 min 18 sec) 
Heartbeat CPU 0 instructions: 90000000 cycles: 38983453 heartbeat IPC: 2.31025 cumulative IPC: 2.30867 (Simulation time: 0 hr 2 min 35 sec) 
Heartbeat CPU 0 instructions: 100000000 cycles: 43311365 heartbeat IPC: 2.31058 cumulative IPC: 2.30886 (Simulation time: 0 hr 2 min 53 sec) 

Warmup complete CPU 0 instructions: 100000003 cycles: 43311366 (Simulation time: 0 hr 2 min 53 sec) 

Heartbeat CPU 0 instructions: 110000002 cycles: 58233963 heartbeat IPC: 0.670125 cumulative IPC: 0.670125 (Simulation time: 0 hr 3 min 18 sec) 
Heartbeat CPU 0 instructions: 120000000 cycles: 73227198 heartbeat IPC: 0.666967 cumulative IPC: 0.668542 (Simulation time: 0 hr 3 min 43 sec) 
Heartbeat CPU 0 instructions: 130000000 cycles: 88272831 heartbeat IPC: 0.664645 cumulative IPC: 0.667238 (Simulation time: 0 hr 4 min 9 sec) 
Heartbeat CPU 0 instructions: 140000000 cycles: 102880589 heartbeat IPC: 0.684568 cumulative IPC: 0.671488 (Simulation time: 0 hr 4 min 34 sec) 
Heartbeat CPU 0 instructions: 150000001 cycles: 117852612 heartbeat IPC: 0.667912 cumulative IPC: 0.67077 (Simulation time: 0 hr 4 min 59 sec) 
Heartbeat CPU 0 instructions: 160000000 cycles: 132590790 heartbeat IPC: 0.67851 cumulative IPC: 0.672047 (Simulation time: 0 hr 5 min 24 sec) 
Heartbeat CPU 0 instructions: 170000003 cycles: 147348908 heartbeat IPC: 0.677593 cumulative IPC: 0.672834 (Simulation time: 0 hr 5 min 49 sec) 
Heartbeat CPU 0 instructions: 180000000 cycles: 162045820 heartbeat IPC: 0.680415 cumulative IPC: 0.673772 (Simulation time: 0 hr 6 min 14 sec) 
Heartbeat CPU 0 instructions: 190000003 cycles: 177090840 heartbeat IPC: 0.664672 cumulative IPC: 0.672749 (Simulation time: 0 hr 6 min 39 sec) 
Heartbeat CPU 0 instructions: 200000000 cycles: 192061828 heartbeat IPC: 0.667958 cumulative IPC: 0.672267 (Simulation time: 0 hr 7 min 4 sec) 
Heartbeat CPU 0 instructions: 210000002 cycles: 207178161 heartbeat IPC: 0.661536 cumulative IPC: 0.671277 (Simulation time: 0 hr 7 min 29 sec) 
Heartbeat CPU 0 instructions: 220000000 cycles: 221661632 heartbeat IPC: 0.690442 cumulative IPC: 0.672833 (Simulation time: 0 hr 7 min 54 sec) 
Heartbeat CPU 0 instructions: 230000002 cycles: 236544177 heartbeat IPC: 0.671928 cumulative IPC: 0.672764 (Simulation time: 0 hr 8 min 19 sec) 
Heartbeat CPU 0 instructions: 240000000 cycles: 251363957 heartbeat IPC: 0.674774 cumulative IPC: 0.672907 (Simulation time: 0 hr 8 min 44 sec) 
*** Reached end of trace for Core: 0 Repeating trace: /mnt/beegfs/pchatz06/traces/519.lbm_r.refrate.input1.region_3.w_0.24379.trace.gz
Heartbeat CPU 0 instructions: 250000002 cycles: 266180445 heartbeat IPC: 0.674924 cumulative IPC: 0.673041 (Simulation time: 0 hr 9 min 9 sec) 
Finished CPU 0 instructions: 150000003 cycles: 222869080 cumulative IPC: 0.673041 (Simulation time: 0 hr 9 min 9 sec) 

CPU 0 Branch Prediction Accuracy: 99.7141% MPKI: 0.02522
Number of Branches: 1322995 Number of Mispredictions: 3783
Number of LOAD Instructions: 62022855
Number of LOAD Instructions (ROI): 62022855
Number of STORE Instructions: 31760803
Number of STORE Instructions (ROI): 31760803
Total Destination Memory Operands: 31760803
Total Destination Memory Operands (ROI): 31760803
Total Source Memory Operands: 62022855
Total Source Memory Operands (ROI): 62022855
Number of DEPENDED LOADS: 8167323
Number of DEPENDED LOADS (ROI): 8167323
Number of SQ_ADDED: 31760772
Number of SQ_ADDED (ROI): 31760772
Number of LQ_ADDED: 62022814
Number of LQ_ADDED (ROI): 62022814
Number of Instructions read from trace: 250000258

ChampSim completed all CPUs

Region of Interest Statistics

CPU 0 cumulative IPC: 0.673041 instructions: 150000003 cycles: 222869080
ITLB TOTAL     ACCESS:   26018818  HIT:   26018818  MISS:          0
ITLB LOAD      ACCESS:   26018818  HIT:   26018818  MISS:          0
ITLB RFO       ACCESS:          0  HIT:          0  MISS:          0
ITLB PREFETCH  ACCESS:          0  HIT:          0  MISS:          0
ITLB WRITEBACK ACCESS:          0  HIT:          0  MISS:          0
ITLB PREFETCH  REQUESTED:          0  ISSUED:          0  USEFUL:          0  USELESS:          0
ITLB TOTAL MSHR MERGED:          0
ITLB LOAD MSHR MERGED:          0
ITLB RFO MSHR MERGED:          0
ITLB PREFETCH MSHR MERGED:          0
ITLB WRITEBACK MSHR MERGED:          0
ITLB TOTAL ACCESSES:   26018818 HITS:   26018818 MISSES:          0
ITLB LOAD ACCESSES:   26018818 HITS:   26018818 MISSES:          0
ITLB RFO ACCESSES:          0 HITS:          0 MISSES:          0
ITLB PREFETCH ACCESSES:          0 HITS:          0 MISSES:          0
ITLB WRITEBACK ACCESSES:          0 HITS:          0 MISSES:          0
ITLB RQ ACCESS:  150000004
ITLB RQ TO_CACHE:   26018819
ITLB RQ MERGED:  123981185
ITLB RQ FORWARD:          0
ITLB WQ ACCESS:          0
ITLB WQ TO_CACHE:          0
ITLB WQ MERGED:          0
ITLB WQ FORWARD:          0
DTLB TOTAL     ACCESS:   28660217  HIT:   28607489  MISS:      52728
DTLB LOAD      ACCESS:   16040499  HIT:   16027316  MISS:      13183
DTLB RFO       ACCESS:   12619718  HIT:   12580173  MISS:      39545
DTLB PREFETCH  ACCESS:          0  HIT:          0  MISS:          0
DTLB WRITEBACK ACCESS:          0  HIT:          0  MISS:          0
DTLB PREFETCH  REQUESTED:          0  ISSUED:          0  USEFUL:          0  USELESS:          0
DTLB TOTAL MSHR MERGED:      23541
DTLB LOAD MSHR MERGED:      23541
DTLB RFO MSHR MERGED:          0
DTLB PREFETCH MSHR MERGED:          0
DTLB WRITEBACK MSHR MERGED:          0
DTLB TOTAL ACCESSES:   28683758 HITS:   28607489 MISSES:      76269
DTLB LOAD ACCESSES:   16064040 HITS:   16027316 MISSES:      36724
DTLB RFO ACCESSES:   12619718 HITS:   12580173 MISSES:      39545
DTLB PREFETCH ACCESSES:          0 HITS:          0 MISSES:          0
DTLB WRITEBACK ACCESSES:          0 HITS:          0 MISSES:          0
DTLB RQ ACCESS:   51448527
DTLB RQ TO_CACHE:   28683759
DTLB RQ MERGED:   22764768
DTLB RQ FORWARD:          0
DTLB WQ ACCESS:          0
DTLB WQ TO_CACHE:          0
DTLB WQ MERGED:          0
DTLB WQ FORWARD:          0
L1D TOTAL     ACCESS:   49992239  HIT:   44423788  MISS:    5568451
L1D LOAD      ACCESS:   18355753  HIT:   17840639  MISS:     515114
L1D RFO       ACCESS:   19043625  HIT:   14319050  MISS:    4724575
L1D PREFETCH  ACCESS:   12592861  HIT:   12264099  MISS:     328762
L1D WRITEBACK ACCESS:          0  HIT:          0  MISS:          0
L1D PREFETCH  REQUESTED:   18670795  ISSUED:   18585614  USEFUL:     328694  USELESS:         68
L1D TOTAL MSHR MERGED:     975146
L1D LOAD MSHR MERGED:     328681
L1D RFO MSHR MERGED:        407
L1D PREFETCH MSHR MERGED:     646058
L1D WRITEBACK MSHR MERGED:          0
L1D TOTAL ACCESSES:   51054448 HITS:   44510851 MISSES:    6543597
L1D LOAD ACCESSES:   18756380 HITS:   17926224 MISSES:     830156
L1D RFO ACCESSES:   19044023 HITS:   14319050 MISSES:    4724973
L1D PREFETCH ACCESSES:   13254045 HITS:   12265577 MISSES:     988468
L1D WRITEBACK ACCESSES:          0 HITS:          0 MISSES:          0
L1D RQ ACCESS:   32399268
L1D RQ TO_CACHE:   18670799
L1D RQ MERGED:   13642884
L1D RQ FORWARD:          0
L1D WQ ACCESS:   19049255
L1D WQ TO_CACHE:   19044024
L1D WQ MERGED:       5231
L1D WQ FORWARD:      87063
L1I TOTAL     ACCESS:   32195406  HIT:   32195406  MISS:          0
L1I LOAD      ACCESS:   32195406  HIT:   32195406  MISS:          0
L1I RFO       ACCESS:          0  HIT:          0  MISS:          0
L1I PREFETCH  ACCESS:          0  HIT:          0  MISS:          0
L1I WRITEBACK ACCESS:          0  HIT:          0  MISS:          0
L1I PREFETCH  REQUESTED:          0  ISSUED:          0  USEFUL:          0  USELESS:          0
L1I TOTAL MSHR MERGED:          0
L1I LOAD MSHR MERGED:          0
L1I RFO MSHR MERGED:          0
L1I PREFETCH MSHR MERGED:          0
L1I WRITEBACK MSHR MERGED:          0
L1I TOTAL ACCESSES:   32195406 HITS:   32195406 MISSES:          0
L1I LOAD ACCESSES:   32195406 HITS:   32195406 MISSES:          0
L1I RFO ACCESSES:          0 HITS:          0 MISSES:          0
L1I PREFETCH ACCESSES:          0 HITS:          0 MISSES:          0
L1I WRITEBACK ACCESSES:          0 HITS:          0 MISSES:          0
L1I RQ ACCESS:  150000001
L1I RQ TO_CACHE:   32195407
L1I RQ MERGED:  117804594
L1I RQ FORWARD:          0
L1I WQ ACCESS:          0
L1I WQ TO_CACHE:          0
L1I WQ MERGED:          0
L1I WQ FORWARD:          0
L2C TOTAL     ACCESS:   10467144  HIT:    7072171  MISS:    3394973
L2C LOAD      ACCESS:     501475  HIT:      72385  MISS:     429090
L2C RFO       ACCESS:    4724566  HIT:    2173679  MISS:    2550887
L2C PREFETCH  ACCESS:     516527  HIT:     101735  MISS:     414792
L2C WRITEBACK ACCESS:    4724576  HIT:    4724372  MISS:        204
L2C PREFETCH  REQUESTED:     242215  ISSUED:     242215  USEFUL:      72385  USELESS:     342451
L2C TOTAL MSHR MERGED:        213
L2C LOAD MSHR MERGED:         46
L2C RFO MSHR MERGED:          0
L2C PREFETCH MSHR MERGED:        167
L2C WRITEBACK MSHR MERGED:          0
L2C TOTAL ACCESSES:   10535237 HITS:    7072171 MISSES:    3463066
L2C LOAD ACCESSES:     501475 HITS:      72385 MISSES:     429090
L2C RFO ACCESSES:    4724566 HITS:    2173679 MISSES:    2550887
L2C PREFETCH ACCESSES:     584620 HITS:     101735 MISSES:     482885
L2C WRITEBACK ACCESSES:    4724576 HITS:    4724372 MISSES:        204
L2C RQ ACCESS:    5226041
L2C RQ TO_CACHE:    5226041
L2C RQ MERGED:          0
L2C RQ FORWARD:          0
L2C WQ ACCESS:    4724576
L2C WQ TO_CACHE:    4724576
L2C WQ MERGED:          0
L2C WQ FORWARD:          0
LLC TOTAL     ACCESS:    6013593  HIT:    2638598  MISS:    3374995
LLC LOAD      ACCESS:     429044  HIT:      24311  MISS:     404733
LLC RFO       ACCESS:    2550887  HIT:      19975  MISS:    2530912
LLC PREFETCH  ACCESS:     482407  HIT:      43261  MISS:     439146
LLC WRITEBACK ACCESS:    2551255  HIT:    2551051  MISS:        204
LLC PREFETCH  REQUESTED:          0  ISSUED:          0  USEFUL:      24311  USELESS:     416875
LLC TOTAL MSHR MERGED:        279
LLC LOAD MSHR MERGED:         14
LLC RFO MSHR MERGED:          0
LLC PREFETCH MSHR MERGED:        265
LLC WRITEBACK MSHR MERGED:          0
LLC TOTAL ACCESSES:    6013872 HITS:    2638598 MISSES:    3375274
LLC LOAD ACCESSES:     429044 HITS:      24311 MISSES:     404733
LLC RFO ACCESSES:    2550887 HITS:      19975 MISSES:    2530912
LLC PREFETCH ACCESSES:     482686 HITS:      43261 MISSES:     439425
LLC WRITEBACK ACCESSES:    2551255 HITS:    2551051 MISSES:        204
LLC 0 RQ ACCESS:    2979931
LLC 0 RQ TO_CACHE:    2979931
LLC 0 RQ MERGED:          0
LLC 0 RQ FORWARD:          0
LLC WQ ACCESS:    2551255
LLC WQ TO_CACHE:    2551255
LLC WQ MERGED:          0
LLC WQ FORWARD:          0
Major fault: 0 Minor fault: 44798
CPU 0 L1D next line prefetcher final stats
CPU 0 L2C PC-based stride prefetcher final stats

DRAM Statistics
 CHANNEL 0
 RQ ROW_BUFFER_HIT:     915443  ROW_BUFFER_MISS:    2459348
 DBUS_CONGESTED:    4076414
 WQ ROW_BUFFER_HIT:     453713  ROW_BUFFER_MISS:    2075011  FULL:          0

 AVG_CONGESTED_CYCLE: 13
LOADS RETIRED: 37208974
INSTR RETIRED: 150000000
