
*** ChampSim Multicore Out-of-Order Simulator ***

Warmup Instructions: 100000000
Simulation Instructions: 150000000
Number of CPUs: 1
LLC sets: 2048
LLC ways: 16
Clean RRIP Policies: 0 Dirty RRIP Policies: 0 PSEL Width: 10 Track Set: 4294967295 PSEL Mask: 15 Demote Mask: 0DS Algo: 0Window size: 64
Off-chip DRAM Size: 4096 MB Channels: 1 Width: 64-bit Data Rate: 1600 MT/s

CPU 0 runs /mnt/beegfs/pchatz06/traces/521.wrf_r.train.input1.region_10.w_0.09693.trace.gz
NOT SORTED
TRACE STRING: /mnt/beegfs/pchatz06/traces/521.wrf_r.train.input1.region_10.w_0.09693.trace.gz
SORTED
TRACE STRING: /mnt/beegfs/pchatz06/traces/521.wrf_r.train.input1.region_10.w_0.09693.trace.gz
INITIAL
TRACE STRING: /mnt/beegfs/pchatz06/traces/521.wrf_r.train.input1.region_10.w_0.09693.trace.gz

champsim_seed used: 267

CPU 0 L1D next line prefetcher
CPU 0 L2C IP-based stride prefetcher
Heartbeat CPU 0 instructions: 10000000 cycles: 5395522 heartbeat IPC: 1.85339 cumulative IPC: 1.85339 (Simulation time: 0 hr 0 min 18 sec) 
Heartbeat CPU 0 instructions: 20000000 cycles: 10692937 heartbeat IPC: 1.88771 cumulative IPC: 1.87039 (Simulation time: 0 hr 0 min 35 sec) 
Heartbeat CPU 0 instructions: 30000000 cycles: 16105060 heartbeat IPC: 1.8477 cumulative IPC: 1.86277 (Simulation time: 0 hr 0 min 51 sec) 
Heartbeat CPU 0 instructions: 40000000 cycles: 21270090 heartbeat IPC: 1.9361 cumulative IPC: 1.88058 (Simulation time: 0 hr 1 min 7 sec) 
Heartbeat CPU 0 instructions: 50000002 cycles: 26686540 heartbeat IPC: 1.84623 cumulative IPC: 1.8736 (Simulation time: 0 hr 1 min 23 sec) 
Heartbeat CPU 0 instructions: 60000000 cycles: 31897025 heartbeat IPC: 1.91921 cumulative IPC: 1.88105 (Simulation time: 0 hr 1 min 39 sec) 
Heartbeat CPU 0 instructions: 70000001 cycles: 37340027 heartbeat IPC: 1.83722 cumulative IPC: 1.87466 (Simulation time: 0 hr 1 min 55 sec) 
Heartbeat CPU 0 instructions: 80000000 cycles: 42514598 heartbeat IPC: 1.93253 cumulative IPC: 1.88171 (Simulation time: 0 hr 2 min 11 sec) 
Heartbeat CPU 0 instructions: 90000000 cycles: 47857291 heartbeat IPC: 1.87172 cumulative IPC: 1.88059 (Simulation time: 0 hr 2 min 27 sec) 
Heartbeat CPU 0 instructions: 100000000 cycles: 53168547 heartbeat IPC: 1.88279 cumulative IPC: 1.88081 (Simulation time: 0 hr 2 min 43 sec) 

Warmup complete CPU 0 instructions: 100000002 cycles: 53168548 (Simulation time: 0 hr 2 min 43 sec) 

Heartbeat CPU 0 instructions: 110000000 cycles: 66629391 heartbeat IPC: 0.742895 cumulative IPC: 0.742895 (Simulation time: 0 hr 3 min 6 sec) 
Heartbeat CPU 0 instructions: 120000000 cycles: 80642599 heartbeat IPC: 0.713612 cumulative IPC: 0.72796 (Simulation time: 0 hr 3 min 30 sec) 
Heartbeat CPU 0 instructions: 130000000 cycles: 94069435 heartbeat IPC: 0.744777 cumulative IPC: 0.73348 (Simulation time: 0 hr 3 min 54 sec) 
Heartbeat CPU 0 instructions: 140000000 cycles: 107657298 heartbeat IPC: 0.735951 cumulative IPC: 0.734096 (Simulation time: 0 hr 4 min 17 sec) 
Heartbeat CPU 0 instructions: 150000000 cycles: 121738929 heartbeat IPC: 0.710145 cumulative IPC: 0.729178 (Simulation time: 0 hr 4 min 41 sec) 
Heartbeat CPU 0 instructions: 160000000 cycles: 135079804 heartbeat IPC: 0.749576 cumulative IPC: 0.7325 (Simulation time: 0 hr 5 min 4 sec) 
Heartbeat CPU 0 instructions: 170000001 cycles: 148958331 heartbeat IPC: 0.720538 cumulative IPC: 0.730767 (Simulation time: 0 hr 5 min 28 sec) 
Heartbeat CPU 0 instructions: 180000000 cycles: 162803361 heartbeat IPC: 0.722281 cumulative IPC: 0.729695 (Simulation time: 0 hr 5 min 51 sec) 
Heartbeat CPU 0 instructions: 190000001 cycles: 176322483 heartbeat IPC: 0.739693 cumulative IPC: 0.730793 (Simulation time: 0 hr 6 min 15 sec) 
Heartbeat CPU 0 instructions: 200000000 cycles: 190507029 heartbeat IPC: 0.704993 cumulative IPC: 0.728128 (Simulation time: 0 hr 6 min 39 sec) 
Heartbeat CPU 0 instructions: 210000001 cycles: 204379414 heartbeat IPC: 0.720857 cumulative IPC: 0.727461 (Simulation time: 0 hr 7 min 2 sec) 
Heartbeat CPU 0 instructions: 220000000 cycles: 218022159 heartbeat IPC: 0.73299 cumulative IPC: 0.727919 (Simulation time: 0 hr 7 min 25 sec) 
Heartbeat CPU 0 instructions: 230000000 cycles: 232339418 heartbeat IPC: 0.698458 cumulative IPC: 0.725564 (Simulation time: 0 hr 7 min 48 sec) 
Heartbeat CPU 0 instructions: 240000000 cycles: 245911813 heartbeat IPC: 0.73679 cumulative IPC: 0.726355 (Simulation time: 0 hr 8 min 11 sec) 
*** Reached end of trace for Core: 0 Repeating trace: /mnt/beegfs/pchatz06/traces/521.wrf_r.train.input1.region_10.w_0.09693.trace.gz
Heartbeat CPU 0 instructions: 250000000 cycles: 259804107 heartbeat IPC: 0.719824 cumulative IPC: 0.725916 (Simulation time: 0 hr 8 min 34 sec) 
Finished CPU 0 instructions: 150000002 cycles: 206635560 cumulative IPC: 0.725916 (Simulation time: 0 hr 8 min 34 sec) 

CPU 0 Branch Prediction Accuracy: 98.289% MPKI: 2.06386
Number of Branches: 18093257 Number of Mispredictions: 309579
Number of LOAD Instructions: 60560342
Number of LOAD Instructions (ROI): 60560342
Number of STORE Instructions: 19793124
Number of STORE Instructions (ROI): 19793124
Total Destination Memory Operands: 21356705
Total Destination Memory Operands (ROI): 21356705
Total Source Memory Operands: 60560342
Total Source Memory Operands (ROI): 60560342
Number of DEPENDED LOADS: 1445802
Number of DEPENDED LOADS (ROI): 1445802
Number of SQ_ADDED: 21356705
Number of SQ_ADDED (ROI): 21356705
Number of LQ_ADDED: 130917581
Number of LQ_ADDED (ROI): 130917581
Number of Instructions read from trace: 250000094

ChampSim completed all CPUs

Region of Interest Statistics

CPU 0 cumulative IPC: 0.725916 instructions: 150000002 cycles: 206635560
ITLB TOTAL     ACCESS:   39306281  HIT:   39306281  MISS:          0
ITLB LOAD      ACCESS:   39306281  HIT:   39306281  MISS:          0
ITLB RFO       ACCESS:          0  HIT:          0  MISS:          0
ITLB PREFETCH  ACCESS:          0  HIT:          0  MISS:          0
ITLB WRITEBACK ACCESS:          0  HIT:          0  MISS:          0
ITLB PREFETCH  REQUESTED:          0  ISSUED:          0  USEFUL:          0  USELESS:          0
ITLB TOTAL MSHR MERGED:          0
ITLB LOAD MSHR MERGED:          0
ITLB RFO MSHR MERGED:          0
ITLB PREFETCH MSHR MERGED:          0
ITLB WRITEBACK MSHR MERGED:          0
ITLB TOTAL ACCESSES:   39306281 HITS:   39306281 MISSES:          0
ITLB LOAD ACCESSES:   39306281 HITS:   39306281 MISSES:          0
ITLB RFO ACCESSES:          0 HITS:          0 MISSES:          0
ITLB PREFETCH ACCESSES:          0 HITS:          0 MISSES:          0
ITLB WRITEBACK ACCESSES:          0 HITS:          0 MISSES:          0
ITLB RQ ACCESS:  149999838
ITLB RQ TO_CACHE:   39306281
ITLB RQ MERGED:  110693557
ITLB RQ FORWARD:          0
ITLB WQ ACCESS:          0
ITLB WQ TO_CACHE:          0
ITLB WQ MERGED:          0
ITLB WQ FORWARD:          0
DTLB TOTAL     ACCESS:   33712946  HIT:   33709343  MISS:       3603
DTLB LOAD      ACCESS:   24330348  HIT:   24328579  MISS:       1769
DTLB RFO       ACCESS:    9382598  HIT:    9380764  MISS:       1834
DTLB PREFETCH  ACCESS:          0  HIT:          0  MISS:          0
DTLB WRITEBACK ACCESS:          0  HIT:          0  MISS:          0
DTLB PREFETCH  REQUESTED:          0  ISSUED:          0  USEFUL:          0  USELESS:          0
DTLB TOTAL MSHR MERGED:       1613
DTLB LOAD MSHR MERGED:        610
DTLB RFO MSHR MERGED:       1003
DTLB PREFETCH MSHR MERGED:          0
DTLB WRITEBACK MSHR MERGED:          0
DTLB TOTAL ACCESSES:   33714559 HITS:   33709343 MISSES:       5216
DTLB LOAD ACCESSES:   24330958 HITS:   24328579 MISSES:       2379
DTLB RFO ACCESSES:    9383601 HITS:    9380764 MISSES:       2837
DTLB PREFETCH ACCESSES:          0 HITS:          0 MISSES:          0
DTLB WRITEBACK ACCESSES:          0 HITS:          0 MISSES:          0
DTLB RQ ACCESS:   49182298
DTLB RQ TO_CACHE:   33714559
DTLB RQ MERGED:   15467739
DTLB RQ FORWARD:          0
DTLB WQ ACCESS:          0
DTLB WQ TO_CACHE:          0
DTLB WQ MERGED:          0
DTLB WQ FORWARD:          0
L1D TOTAL     ACCESS:   62038833  HIT:   61168581  MISS:     870252
L1D LOAD      ACCESS:   25829783  HIT:   25673613  MISS:     156170
L1D RFO       ACCESS:   12674302  HIT:   12397204  MISS:     277098
L1D PREFETCH  ACCESS:   23534748  HIT:   23097764  MISS:     436984
L1D WRITEBACK ACCESS:          0  HIT:          0  MISS:          0
L1D PREFETCH  REQUESTED:   25855626  ISSUED:   25550797  USEFUL:     307612  USELESS:     129353
L1D TOTAL MSHR MERGED:     414958
L1D LOAD MSHR MERGED:      40616
L1D RFO MSHR MERGED:     299168
L1D PREFETCH MSHR MERGED:      75174
L1D WRITEBACK MSHR MERGED:          0
L1D TOTAL ACCESSES:   62461705 HITS:   61176495 MISSES:    1285210
L1D LOAD ACCESSES:   25861536 HITS:   25679523 MISSES:     182013
L1D RFO ACCESSES:   12973458 HITS:   12397204 MISSES:     576254
L1D PREFETCH ACCESSES:   23626711 HITS:   23099768 MISSES:     526943
L1D WRITEBACK ACCESSES:          0 HITS:          0 MISSES:          0
L1D RQ ACCESS:   36012612
L1D RQ TO_CACHE:   25855626
L1D RQ MERGED:   10151076
L1D RQ FORWARD:          0
L1D WQ ACCESS:   13169687
L1D WQ TO_CACHE:   12973458
L1D WQ MERGED:     196229
L1D WQ FORWARD:       7914
L1I TOTAL     ACCESS:   46185329  HIT:   46168555  MISS:      16774
L1I LOAD      ACCESS:   46185329  HIT:   46168555  MISS:      16774
L1I RFO       ACCESS:          0  HIT:          0  MISS:          0
L1I PREFETCH  ACCESS:          0  HIT:          0  MISS:          0
L1I WRITEBACK ACCESS:          0  HIT:          0  MISS:          0
L1I PREFETCH  REQUESTED:          0  ISSUED:          0  USEFUL:          0  USELESS:          0
L1I TOTAL MSHR MERGED:      21254
L1I LOAD MSHR MERGED:      21254
L1I RFO MSHR MERGED:          0
L1I PREFETCH MSHR MERGED:          0
L1I WRITEBACK MSHR MERGED:          0
L1I TOTAL ACCESSES:   46206583 HITS:   46168555 MISSES:      38028
L1I LOAD ACCESSES:   46206583 HITS:   46168555 MISSES:      38028
L1I RFO ACCESSES:          0 HITS:          0 MISSES:          0
L1I PREFETCH ACCESSES:          0 HITS:          0 MISSES:          0
L1I WRITEBACK ACCESSES:          0 HITS:          0 MISSES:          0
L1I RQ ACCESS:  149999839
L1I RQ TO_CACHE:   46206583
L1I RQ MERGED:  103793256
L1I RQ FORWARD:          0
L1I WQ ACCESS:          0
L1I WQ TO_CACHE:          0
L1I WQ MERGED:          0
L1I WQ FORWARD:          0
L2C TOTAL     ACCESS:    1251242  HIT:     954869  MISS:     296373
L2C LOAD      ACCESS:     158169  HIT:     126332  MISS:      31837
L2C RFO       ACCESS:     277086  HIT:     117103  MISS:     159983
L2C PREFETCH  ACCESS:     465590  HIT:     361286  MISS:     104304
L2C WRITEBACK ACCESS:     350397  HIT:     350148  MISS:        249
L2C PREFETCH  REQUESTED:      15249  ISSUED:      15249  USEFUL:      26404  USELESS:      77797
L2C TOTAL MSHR MERGED:        241
L2C LOAD MSHR MERGED:          1
L2C RFO MSHR MERGED:          0
L2C PREFETCH MSHR MERGED:        240
L2C WRITEBACK MSHR MERGED:          0
L2C TOTAL ACCESSES:    1251510 HITS:     954871 MISSES:     296639
L2C LOAD ACCESSES:     158171 HITS:     126334 MISSES:      31837
L2C RFO ACCESSES:     277086 HITS:     117103 MISSES:     159983
L2C PREFETCH ACCESSES:     465856 HITS:     361286 MISSES:     104570
L2C WRITEBACK ACCESSES:     350397 HITS:     350148 MISSES:        249
L2C RQ ACCESS:     435257
L2C RQ TO_CACHE:     435255
L2C RQ MERGED:          0
L2C RQ FORWARD:          0
L2C WQ ACCESS:     350397
L2C WQ TO_CACHE:     350397
L2C WQ MERGED:          0
L2C WQ FORWARD:          2
LLC TOTAL     ACCESS:     490285  HIT:     461136  MISS:      29149
LLC LOAD      ACCESS:      31836  HIT:      28292  MISS:       3544
LLC RFO       ACCESS:     159968  HIT:     159670  MISS:        298
LLC PREFETCH  ACCESS:     104323  HIT:      79032  MISS:      25291
LLC WRITEBACK ACCESS:     194158  HIT:     194142  MISS:         16
LLC PREFETCH  REQUESTED:          0  ISSUED:          0  USEFUL:      14400  USELESS:      12103
LLC TOTAL MSHR MERGED:          0
LLC LOAD MSHR MERGED:          0
LLC RFO MSHR MERGED:          0
LLC PREFETCH MSHR MERGED:          0
LLC WRITEBACK MSHR MERGED:          0
LLC TOTAL ACCESSES:     490307 HITS:     461158 MISSES:      29149
LLC LOAD ACCESSES:      31836 HITS:      28292 MISSES:       3544
LLC RFO ACCESSES:     159983 HITS:     159685 MISSES:        298
LLC PREFETCH ACCESSES:     104330 HITS:      79039 MISSES:      25291
LLC WRITEBACK ACCESSES:     194158 HITS:     194142 MISSES:         16
LLC 0 RQ ACCESS:     191819
LLC 0 RQ TO_CACHE:     191804
LLC 0 RQ MERGED:          0
LLC 0 RQ FORWARD:          0
LLC WQ ACCESS:     194158
LLC WQ TO_CACHE:     194158
LLC WQ MERGED:          0
LLC WQ FORWARD:         22
Major fault: 0 Minor fault: 1954
CPU 0 L1D next line prefetcher final stats
CPU 0 L2C PC-based stride prefetcher final stats

DRAM Statistics
 CHANNEL 0
 RQ ROW_BUFFER_HIT:      18293  ROW_BUFFER_MISS:      10840
 DBUS_CONGESTED:      31397
 WQ ROW_BUFFER_HIT:       4120  ROW_BUFFER_MISS:      13296  FULL:          0

 AVG_CONGESTED_CYCLE: 14
LOADS RETIRED: 36943444
INSTR RETIRED: 150000000
