
*** ChampSim Multicore Out-of-Order Simulator ***

Warmup Instructions: 100000000
Simulation Instructions: 150000000
Number of CPUs: 1
LLC sets: 2048
LLC ways: 16
Clean RRIP Policies: 0 Dirty RRIP Policies: 0 PSEL Width: 10 Track Set: 4294967295 PSEL Mask: 15 Demote Mask: 0DS Algo: 0Window size: 64
Off-chip DRAM Size: 4096 MB Channels: 1 Width: 64-bit Data Rate: 1600 MT/s

CPU 0 runs /mnt/beegfs/pchatz06/traces/523.xalancbmk_r.refrate.input1.region_6.w_0.14187.trace.gz
NOT SORTED
TRACE STRING: /mnt/beegfs/pchatz06/traces/523.xalancbmk_r.refrate.input1.region_6.w_0.14187.trace.gz
SORTED
TRACE STRING: /mnt/beegfs/pchatz06/traces/523.xalancbmk_r.refrate.input1.region_6.w_0.14187.trace.gz
INITIAL
TRACE STRING: /mnt/beegfs/pchatz06/traces/523.xalancbmk_r.refrate.input1.region_6.w_0.14187.trace.gz

champsim_seed used: 261

CPU 0 L1D next line prefetcher
CPU 0 L2C IP-based stride prefetcher
Heartbeat CPU 0 instructions: 10000000 cycles: 5589270 heartbeat IPC: 1.78914 cumulative IPC: 1.78914 (Simulation time: 0 hr 0 min 17 sec) 
Heartbeat CPU 0 instructions: 20000000 cycles: 11775096 heartbeat IPC: 1.6166 cumulative IPC: 1.6985 (Simulation time: 0 hr 0 min 34 sec) 
Heartbeat CPU 0 instructions: 30000000 cycles: 17919047 heartbeat IPC: 1.62762 cumulative IPC: 1.6742 (Simulation time: 0 hr 0 min 51 sec) 
Heartbeat CPU 0 instructions: 40000000 cycles: 23672113 heartbeat IPC: 1.7382 cumulative IPC: 1.68975 (Simulation time: 0 hr 1 min 9 sec) 
Heartbeat CPU 0 instructions: 50000002 cycles: 30166805 heartbeat IPC: 1.53972 cumulative IPC: 1.65745 (Simulation time: 0 hr 1 min 27 sec) 
Heartbeat CPU 0 instructions: 60000000 cycles: 36428210 heartbeat IPC: 1.59709 cumulative IPC: 1.64708 (Simulation time: 0 hr 1 min 46 sec) 
Heartbeat CPU 0 instructions: 70000000 cycles: 42940921 heartbeat IPC: 1.53546 cumulative IPC: 1.63015 (Simulation time: 0 hr 2 min 5 sec) 
Heartbeat CPU 0 instructions: 80000000 cycles: 48904460 heartbeat IPC: 1.67686 cumulative IPC: 1.63584 (Simulation time: 0 hr 2 min 20 sec) 
Heartbeat CPU 0 instructions: 90000001 cycles: 54757407 heartbeat IPC: 1.70854 cumulative IPC: 1.64361 (Simulation time: 0 hr 2 min 36 sec) 
Heartbeat CPU 0 instructions: 100000000 cycles: 60528060 heartbeat IPC: 1.73291 cumulative IPC: 1.65213 (Simulation time: 0 hr 2 min 51 sec) 

Warmup complete CPU 0 instructions: 100000001 cycles: 60528077 (Simulation time: 0 hr 2 min 51 sec) 

Heartbeat CPU 0 instructions: 110000000 cycles: 79289785 heartbeat IPC: 0.533 cumulative IPC: 0.533 (Simulation time: 0 hr 3 min 18 sec) 
Heartbeat CPU 0 instructions: 120000000 cycles: 97682341 heartbeat IPC: 0.543698 cumulative IPC: 0.538296 (Simulation time: 0 hr 3 min 44 sec) 
Heartbeat CPU 0 instructions: 130000000 cycles: 115819112 heartbeat IPC: 0.551366 cumulative IPC: 0.542583 (Simulation time: 0 hr 4 min 10 sec) 
Heartbeat CPU 0 instructions: 140000000 cycles: 131778003 heartbeat IPC: 0.62661 cumulative IPC: 0.561404 (Simulation time: 0 hr 4 min 35 sec) 
Heartbeat CPU 0 instructions: 150000000 cycles: 149196223 heartbeat IPC: 0.574111 cumulative IPC: 0.5639 (Simulation time: 0 hr 5 min 0 sec) 
Heartbeat CPU 0 instructions: 160000000 cycles: 171671965 heartbeat IPC: 0.444924 cumulative IPC: 0.539841 (Simulation time: 0 hr 5 min 28 sec) 
Heartbeat CPU 0 instructions: 170000000 cycles: 203974692 heartbeat IPC: 0.309571 cumulative IPC: 0.487986 (Simulation time: 0 hr 6 min 4 sec) 
Heartbeat CPU 0 instructions: 180000000 cycles: 232605406 heartbeat IPC: 0.349275 cumulative IPC: 0.464907 (Simulation time: 0 hr 6 min 38 sec) 
Heartbeat CPU 0 instructions: 190000001 cycles: 258590739 heartbeat IPC: 0.384833 cumulative IPC: 0.454402 (Simulation time: 0 hr 7 min 11 sec) 
Heartbeat CPU 0 instructions: 200000000 cycles: 288592060 heartbeat IPC: 0.333319 cumulative IPC: 0.438473 (Simulation time: 0 hr 7 min 45 sec) 
Heartbeat CPU 0 instructions: 210000000 cycles: 319390329 heartbeat IPC: 0.324694 cumulative IPC: 0.424936 (Simulation time: 0 hr 8 min 21 sec) 
Heartbeat CPU 0 instructions: 220000000 cycles: 350278112 heartbeat IPC: 0.323753 cumulative IPC: 0.41415 (Simulation time: 0 hr 8 min 56 sec) 
Heartbeat CPU 0 instructions: 230000001 cycles: 378392283 heartbeat IPC: 0.355693 cumulative IPC: 0.40898 (Simulation time: 0 hr 9 min 28 sec) 
Heartbeat CPU 0 instructions: 240000000 cycles: 403347079 heartbeat IPC: 0.400725 cumulative IPC: 0.408379 (Simulation time: 0 hr 9 min 59 sec) 
*** Reached end of trace for Core: 0 Repeating trace: /mnt/beegfs/pchatz06/traces/523.xalancbmk_r.refrate.input1.region_6.w_0.14187.trace.gz
Heartbeat CPU 0 instructions: 250000000 cycles: 430957246 heartbeat IPC: 0.362185 cumulative IPC: 0.404936 (Simulation time: 0 hr 10 min 31 sec) 
Finished CPU 0 instructions: 150000002 cycles: 370429171 cumulative IPC: 0.404936 (Simulation time: 0 hr 10 min 31 sec) 

CPU 0 Branch Prediction Accuracy: 99.5215% MPKI: 1.26385
Number of Branches: 39616080 Number of Mispredictions: 189578
Number of LOAD Instructions: 80530269
Number of LOAD Instructions (ROI): 80530269
Number of STORE Instructions: 20118770
Number of STORE Instructions (ROI): 20118770
Total Destination Memory Operands: 22291694
Total Destination Memory Operands (ROI): 22291694
Total Source Memory Operands: 80530269
Total Source Memory Operands (ROI): 80530269
Number of DEPENDED LOADS: 1235059
Number of DEPENDED LOADS (ROI): 1235059
Number of SQ_ADDED: 22291694
Number of SQ_ADDED (ROI): 22291694
Number of LQ_ADDED: 93339877
Number of LQ_ADDED (ROI): 93339877
Number of Instructions read from trace: 250000256

ChampSim completed all CPUs

Region of Interest Statistics

CPU 0 cumulative IPC: 0.404936 instructions: 150000002 cycles: 370429171
ITLB TOTAL     ACCESS:   53644764  HIT:   53643028  MISS:       1736
ITLB LOAD      ACCESS:   53644764  HIT:   53643028  MISS:       1736
ITLB RFO       ACCESS:          0  HIT:          0  MISS:          0
ITLB PREFETCH  ACCESS:          0  HIT:          0  MISS:          0
ITLB WRITEBACK ACCESS:          0  HIT:          0  MISS:          0
ITLB PREFETCH  REQUESTED:          0  ISSUED:          0  USEFUL:          0  USELESS:          0
ITLB TOTAL MSHR MERGED:       2445
ITLB LOAD MSHR MERGED:       2445
ITLB RFO MSHR MERGED:          0
ITLB PREFETCH MSHR MERGED:          0
ITLB WRITEBACK MSHR MERGED:          0
ITLB TOTAL ACCESSES:   53647209 HITS:   53643028 MISSES:       4181
ITLB LOAD ACCESSES:   53647209 HITS:   53643028 MISSES:       4181
ITLB RFO ACCESSES:          0 HITS:          0 MISSES:          0
ITLB PREFETCH ACCESSES:          0 HITS:          0 MISSES:          0
ITLB WRITEBACK ACCESSES:          0 HITS:          0 MISSES:          0
ITLB RQ ACCESS:  150000000
ITLB RQ TO_CACHE:   53647210
ITLB RQ MERGED:   96352790
ITLB RQ FORWARD:          0
ITLB WQ ACCESS:          0
ITLB WQ TO_CACHE:          0
ITLB WQ MERGED:          0
ITLB WQ FORWARD:          0
DTLB TOTAL     ACCESS:   39487906  HIT:   36018262  MISS:    3469644
DTLB LOAD      ACCESS:   28328699  HIT:   24884798  MISS:    3443901
DTLB RFO       ACCESS:   11159207  HIT:   11133464  MISS:      25743
DTLB PREFETCH  ACCESS:          0  HIT:          0  MISS:          0
DTLB WRITEBACK ACCESS:          0  HIT:          0  MISS:          0
DTLB PREFETCH  REQUESTED:          0  ISSUED:          0  USEFUL:          0  USELESS:          0
DTLB TOTAL MSHR MERGED:     407222
DTLB LOAD MSHR MERGED:     402114
DTLB RFO MSHR MERGED:       5108
DTLB PREFETCH MSHR MERGED:          0
DTLB WRITEBACK MSHR MERGED:          0
DTLB TOTAL ACCESSES:   39895128 HITS:   36018262 MISSES:    3876866
DTLB LOAD ACCESSES:   28730813 HITS:   24884798 MISSES:    3846015
DTLB RFO ACCESSES:   11164315 HITS:   11133464 MISSES:      30851
DTLB PREFETCH ACCESSES:          0 HITS:          0 MISSES:          0
DTLB WRITEBACK ACCESSES:          0 HITS:          0 MISSES:          0
DTLB RQ ACCESS:   60700797
DTLB RQ TO_CACHE:   39895129
DTLB RQ MERGED:   20805668
DTLB RQ FORWARD:          0
DTLB WQ ACCESS:          0
DTLB WQ TO_CACHE:          0
DTLB WQ MERGED:          0
DTLB WQ FORWARD:          0
L1D TOTAL     ACCESS:   57703305  HIT:   45247190  MISS:   12456115
L1D LOAD      ACCESS:   25982929  HIT:   19166701  MISS:    6816228
L1D RFO       ACCESS:   10609882  HIT:   10462455  MISS:     147427
L1D PREFETCH  ACCESS:   21110494  HIT:   15618034  MISS:    5492460
L1D WRITEBACK ACCESS:          0  HIT:          0  MISS:          0
L1D PREFETCH  REQUESTED:   26520775  ISSUED:   25576870  USEFUL:    1435977  USELESS:    4056428
L1D TOTAL MSHR MERGED:    4448279
L1D LOAD MSHR MERGED:     829257
L1D RFO MSHR MERGED:    1586969
L1D PREFETCH MSHR MERGED:    2032053
L1D WRITEBACK MSHR MERGED:          0
L1D TOTAL ACCESSES:   62159201 HITS:   45254807 MISSES:   16904394
L1D LOAD ACCESSES:   26520803 HITS:   19166729 MISSES:    7354074
L1D RFO ACCESSES:   12196027 HITS:   10462455 MISSES:    1733572
L1D PREFETCH ACCESSES:   23442371 HITS:   15625623 MISSES:    7816748
L1D WRITEBACK ACCESSES:          0 HITS:          0 MISSES:          0
L1D RQ ACCESS:   48322433
L1D RQ TO_CACHE:   26520775
L1D RQ MERGED:   21801630
L1D RQ FORWARD:          0
L1D WQ ACCESS:   12378392
L1D WQ TO_CACHE:   12196027
L1D WQ MERGED:     182365
L1D WQ FORWARD:       7617
L1I TOTAL     ACCESS:   61193669  HIT:   61011482  MISS:     182187
L1I LOAD      ACCESS:   61193669  HIT:   61011482  MISS:     182187
L1I RFO       ACCESS:          0  HIT:          0  MISS:          0
L1I PREFETCH  ACCESS:          0  HIT:          0  MISS:          0
L1I WRITEBACK ACCESS:          0  HIT:          0  MISS:          0
L1I PREFETCH  REQUESTED:          0  ISSUED:          0  USEFUL:          0  USELESS:          0
L1I TOTAL MSHR MERGED:     142088
L1I LOAD MSHR MERGED:     142088
L1I RFO MSHR MERGED:          0
L1I PREFETCH MSHR MERGED:          0
L1I WRITEBACK MSHR MERGED:          0
L1I TOTAL ACCESSES:   61335757 HITS:   61011482 MISSES:     324275
L1I LOAD ACCESSES:   61335757 HITS:   61011482 MISSES:     324275
L1I RFO ACCESSES:          0 HITS:          0 MISSES:          0
L1I PREFETCH ACCESSES:          0 HITS:          0 MISSES:          0
L1I WRITEBACK ACCESSES:          0 HITS:          0 MISSES:          0
L1I RQ ACCESS:  149999997
L1I RQ TO_CACHE:   61335757
L1I RQ MERGED:   88664240
L1I RQ FORWARD:          0
L1I WQ ACCESS:          0
L1I WQ TO_CACHE:          0
L1I WQ MERGED:          0
L1I WQ FORWARD:          0
L2C TOTAL     ACCESS:   13140660  HIT:    5651706  MISS:    7488954
L2C LOAD      ACCESS:    6706951  HIT:    2529119  MISS:    4177832
L2C RFO       ACCESS:     146593  HIT:      35757  MISS:     110836
L2C PREFETCH  ACCESS:    5933293  HIT:    2733105  MISS:    3200188
L2C WRITEBACK ACCESS:     353823  HIT:     353725  MISS:         98
L2C PREFETCH  REQUESTED:     277200  ISSUED:     277200  USEFUL:     103311  USELESS:    3097305
L2C TOTAL MSHR MERGED:      12688
L2C LOAD MSHR MERGED:          2
L2C RFO MSHR MERGED:          7
L2C PREFETCH MSHR MERGED:      12679
L2C WRITEBACK MSHR MERGED:          0
L2C TOTAL ACCESSES:   13153436 HITS:    5651794 MISSES:    7501642
L2C LOAD ACCESSES:    6707004 HITS:    2529172 MISSES:    4177832
L2C RFO ACCESSES:     146603 HITS:      35767 MISSES:     110836
L2C PREFETCH ACCESSES:    5946006 HITS:    2733130 MISSES:    3212876
L2C WRITEBACK ACCESSES:     353823 HITS:     353725 MISSES:         98
L2C RQ ACCESS:    6853607
L2C RQ TO_CACHE:    6853544
L2C RQ MERGED:          0
L2C RQ FORWARD:          0
L2C WQ ACCESS:     353824
L2C WQ TO_CACHE:     353824
L2C WQ MERGED:          0
L2C WQ FORWARD:         88
LLC TOTAL     ACCESS:    7722790  HIT:    7623550  MISS:      99240
LLC LOAD      ACCESS:    4177827  HIT:    4161254  MISS:      16573
LLC RFO       ACCESS:     110828  HIT:      50864  MISS:      59964
LLC PREFETCH  ACCESS:    3200197  HIT:    3177691  MISS:      22506
LLC WRITEBACK ACCESS:     233938  HIT:     233741  MISS:        197
LLC PREFETCH  REQUESTED:          0  ISSUED:          0  USEFUL:       8708  USELESS:      12077
LLC TOTAL MSHR MERGED:          0
LLC LOAD MSHR MERGED:          0
LLC RFO MSHR MERGED:          0
LLC PREFETCH MSHR MERGED:          0
LLC WRITEBACK MSHR MERGED:          0
LLC TOTAL ACCESSES:    7722794 HITS:    7623554 MISSES:      99240
LLC LOAD ACCESSES:    4177830 HITS:    4161257 MISSES:      16573
LLC RFO ACCESSES:     110829 HITS:      50865 MISSES:      59964
LLC PREFETCH ACCESSES:    3200197 HITS:    3177691 MISSES:      22506
LLC WRITEBACK ACCESSES:     233938 HITS:     233741 MISSES:        197
LLC 0 RQ ACCESS:    4288659
LLC 0 RQ TO_CACHE:    4288655
LLC 0 RQ MERGED:          0
LLC 0 RQ FORWARD:          0
LLC WQ ACCESS:     233938
LLC WQ TO_CACHE:     233938
LLC WQ MERGED:          0
LLC WQ FORWARD:          4
Major fault: 0 Minor fault: 4426
CPU 0 L1D next line prefetcher final stats
CPU 0 L2C PC-based stride prefetcher final stats

DRAM Statistics
 CHANNEL 0
 RQ ROW_BUFFER_HIT:      44309  ROW_BUFFER_MISS:      54672
 DBUS_CONGESTED:      90342
 WQ ROW_BUFFER_HIT:      13338  ROW_BUFFER_MISS:      76197  FULL:          0

 AVG_CONGESTED_CYCLE: 14
LOADS RETIRED: 49051940
INSTR RETIRED: 150000000
