
*** ChampSim Multicore Out-of-Order Simulator ***

Warmup Instructions: 100000000
Simulation Instructions: 150000000
Number of CPUs: 1
LLC sets: 2048
LLC ways: 16
Clean RRIP Policies: 0 Dirty RRIP Policies: 0 PSEL Width: 10 Track Set: 4294967295 PSEL Mask: 15 Demote Mask: 0DS Algo: 0Window size: 64
Off-chip DRAM Size: 4096 MB Channels: 1 Width: 64-bit Data Rate: 1600 MT/s

CPU 0 runs /mnt/beegfs/pchatz06/traces/523.xalancbmk_r.refrate.input1.region_16.w_0.06442.trace.gz
NOT SORTED
TRACE STRING: /mnt/beegfs/pchatz06/traces/523.xalancbmk_r.refrate.input1.region_16.w_0.06442.trace.gz
SORTED
TRACE STRING: /mnt/beegfs/pchatz06/traces/523.xalancbmk_r.refrate.input1.region_16.w_0.06442.trace.gz
INITIAL
TRACE STRING: /mnt/beegfs/pchatz06/traces/523.xalancbmk_r.refrate.input1.region_16.w_0.06442.trace.gz

champsim_seed used: 256

CPU 0 L1D next line prefetcher
CPU 0 L2C IP-based stride prefetcher
Heartbeat CPU 0 instructions: 10000002 cycles: 4818654 heartbeat IPC: 2.07527 cumulative IPC: 2.07527 (Simulation time: 0 hr 0 min 15 sec) 
Heartbeat CPU 0 instructions: 20000000 cycles: 9732768 heartbeat IPC: 2.03495 cumulative IPC: 2.05491 (Simulation time: 0 hr 0 min 30 sec) 
Heartbeat CPU 0 instructions: 30000000 cycles: 14744781 heartbeat IPC: 1.99521 cumulative IPC: 2.03462 (Simulation time: 0 hr 0 min 45 sec) 
Heartbeat CPU 0 instructions: 40000000 cycles: 19933096 heartbeat IPC: 1.92741 cumulative IPC: 2.00671 (Simulation time: 0 hr 1 min 1 sec) 
Heartbeat CPU 0 instructions: 50000000 cycles: 25475252 heartbeat IPC: 1.80435 cumulative IPC: 1.96269 (Simulation time: 0 hr 1 min 17 sec) 
Heartbeat CPU 0 instructions: 60000000 cycles: 31782468 heartbeat IPC: 1.58549 cumulative IPC: 1.88783 (Simulation time: 0 hr 1 min 33 sec) 
Heartbeat CPU 0 instructions: 70000000 cycles: 37739533 heartbeat IPC: 1.67868 cumulative IPC: 1.85482 (Simulation time: 0 hr 1 min 50 sec) 
Heartbeat CPU 0 instructions: 80000000 cycles: 43924302 heartbeat IPC: 1.61688 cumulative IPC: 1.82132 (Simulation time: 0 hr 2 min 7 sec) 
Heartbeat CPU 0 instructions: 90000000 cycles: 50023418 heartbeat IPC: 1.63958 cumulative IPC: 1.79916 (Simulation time: 0 hr 2 min 24 sec) 
Heartbeat CPU 0 instructions: 100000000 cycles: 55552700 heartbeat IPC: 1.80855 cumulative IPC: 1.80009 (Simulation time: 0 hr 2 min 40 sec) 

Warmup complete CPU 0 instructions: 100000001 cycles: 55552705 (Simulation time: 0 hr 2 min 40 sec) 

Heartbeat CPU 0 instructions: 110000001 cycles: 79762416 heartbeat IPC: 0.413057 cumulative IPC: 0.413057 (Simulation time: 0 hr 3 min 8 sec) 
Heartbeat CPU 0 instructions: 120000000 cycles: 99835528 heartbeat IPC: 0.498179 cumulative IPC: 0.451642 (Simulation time: 0 hr 3 min 34 sec) 
Heartbeat CPU 0 instructions: 130000002 cycles: 119367747 heartbeat IPC: 0.511975 cumulative IPC: 0.470109 (Simulation time: 0 hr 4 min 0 sec) 
Heartbeat CPU 0 instructions: 140000000 cycles: 138395435 heartbeat IPC: 0.52555 cumulative IPC: 0.482843 (Simulation time: 0 hr 4 min 25 sec) 
Heartbeat CPU 0 instructions: 150000001 cycles: 156923150 heartbeat IPC: 0.539732 cumulative IPC: 0.49324 (Simulation time: 0 hr 4 min 50 sec) 
Heartbeat CPU 0 instructions: 160000000 cycles: 175031091 heartbeat IPC: 0.552244 cumulative IPC: 0.502183 (Simulation time: 0 hr 5 min 15 sec) 
Heartbeat CPU 0 instructions: 170000001 cycles: 191782839 heartbeat IPC: 0.596953 cumulative IPC: 0.513836 (Simulation time: 0 hr 5 min 38 sec) 
Heartbeat CPU 0 instructions: 180000000 cycles: 208803114 heartbeat IPC: 0.587534 cumulative IPC: 0.522021 (Simulation time: 0 hr 6 min 1 sec) 
Heartbeat CPU 0 instructions: 190000001 cycles: 230874528 heartbeat IPC: 0.453075 cumulative IPC: 0.513342 (Simulation time: 0 hr 6 min 27 sec) 
Heartbeat CPU 0 instructions: 200000000 cycles: 261455391 heartbeat IPC: 0.327002 cumulative IPC: 0.485666 (Simulation time: 0 hr 6 min 59 sec) 
Heartbeat CPU 0 instructions: 210000002 cycles: 288143510 heartbeat IPC: 0.374699 cumulative IPC: 0.472934 (Simulation time: 0 hr 7 min 30 sec) 
Heartbeat CPU 0 instructions: 220000000 cycles: 319742054 heartbeat IPC: 0.31647 cumulative IPC: 0.45422 (Simulation time: 0 hr 8 min 3 sec) 
Heartbeat CPU 0 instructions: 230000002 cycles: 347691420 heartbeat IPC: 0.35779 cumulative IPC: 0.444994 (Simulation time: 0 hr 8 min 35 sec) 
Heartbeat CPU 0 instructions: 240000000 cycles: 371227067 heartbeat IPC: 0.424887 cumulative IPC: 0.443495 (Simulation time: 0 hr 9 min 3 sec) 
*** Reached end of trace for Core: 0 Repeating trace: /mnt/beegfs/pchatz06/traces/523.xalancbmk_r.refrate.input1.region_16.w_0.06442.trace.gz
Heartbeat CPU 0 instructions: 250000001 cycles: 391910470 heartbeat IPC: 0.483479 cumulative IPC: 0.445954 (Simulation time: 0 hr 9 min 29 sec) 
Finished CPU 0 instructions: 150000000 cycles: 336357765 cumulative IPC: 0.445954 (Simulation time: 0 hr 9 min 29 sec) 

CPU 0 Branch Prediction Accuracy: 99.5398% MPKI: 1.1985
Number of Branches: 39063869 Number of Mispredictions: 179775
Number of LOAD Instructions: 78057639
Number of LOAD Instructions (ROI): 78057639
Number of STORE Instructions: 16794195
Number of STORE Instructions (ROI): 16794195
Total Destination Memory Operands: 18494000
Total Destination Memory Operands (ROI): 18494000
Total Source Memory Operands: 78057639
Total Source Memory Operands (ROI): 78057639
Number of DEPENDED LOADS: 978886
Number of DEPENDED LOADS (ROI): 978886
Number of SQ_ADDED: 18494000
Number of SQ_ADDED (ROI): 18494000
Number of LQ_ADDED: 89846021
Number of LQ_ADDED (ROI): 89846021
Number of Instructions read from trace: 250000013

ChampSim completed all CPUs

Region of Interest Statistics

CPU 0 cumulative IPC: 0.445954 instructions: 150000000 cycles: 336357765
ITLB TOTAL     ACCESS:   51510280  HIT:   51507488  MISS:       2792
ITLB LOAD      ACCESS:   51510280  HIT:   51507488  MISS:       2792
ITLB RFO       ACCESS:          0  HIT:          0  MISS:          0
ITLB PREFETCH  ACCESS:          0  HIT:          0  MISS:          0
ITLB WRITEBACK ACCESS:          0  HIT:          0  MISS:          0
ITLB PREFETCH  REQUESTED:          0  ISSUED:          0  USEFUL:          0  USELESS:          0
ITLB TOTAL MSHR MERGED:       4208
ITLB LOAD MSHR MERGED:       4208
ITLB RFO MSHR MERGED:          0
ITLB PREFETCH MSHR MERGED:          0
ITLB WRITEBACK MSHR MERGED:          0
ITLB TOTAL ACCESSES:   51514488 HITS:   51507488 MISSES:       7000
ITLB LOAD ACCESSES:   51514488 HITS:   51507488 MISSES:       7000
ITLB RFO ACCESSES:          0 HITS:          0 MISSES:          0
ITLB PREFETCH ACCESSES:          0 HITS:          0 MISSES:          0
ITLB WRITEBACK ACCESSES:          0 HITS:          0 MISSES:          0
ITLB RQ ACCESS:  149999757
ITLB RQ TO_CACHE:   51514488
ITLB RQ MERGED:   98485269
ITLB RQ FORWARD:          0
ITLB WQ ACCESS:          0
ITLB WQ TO_CACHE:          0
ITLB WQ MERGED:          0
ITLB WQ FORWARD:          0
DTLB TOTAL     ACCESS:   39353088  HIT:   36596978  MISS:    2756110
DTLB LOAD      ACCESS:   27043276  HIT:   24310044  MISS:    2733232
DTLB RFO       ACCESS:   12309812  HIT:   12286934  MISS:      22878
DTLB PREFETCH  ACCESS:          0  HIT:          0  MISS:          0
DTLB WRITEBACK ACCESS:          0  HIT:          0  MISS:          0
DTLB PREFETCH  REQUESTED:          0  ISSUED:          0  USEFUL:          0  USELESS:          0
DTLB TOTAL MSHR MERGED:     328076
DTLB LOAD MSHR MERGED:     321655
DTLB RFO MSHR MERGED:       6421
DTLB PREFETCH MSHR MERGED:          0
DTLB WRITEBACK MSHR MERGED:          0
DTLB TOTAL ACCESSES:   39681164 HITS:   36596978 MISSES:    3084186
DTLB LOAD ACCESSES:   27364931 HITS:   24310044 MISSES:    3054887
DTLB RFO ACCESSES:   12316233 HITS:   12286934 MISSES:      29299
DTLB PREFETCH ACCESSES:          0 HITS:          0 MISSES:          0
DTLB WRITEBACK ACCESSES:          0 HITS:          0 MISSES:          0
DTLB RQ ACCESS:   57721639
DTLB RQ TO_CACHE:   39681164
DTLB RQ MERGED:   18040475
DTLB RQ FORWARD:          0
DTLB WQ ACCESS:          0
DTLB WQ TO_CACHE:          0
DTLB WQ MERGED:          0
DTLB WQ FORWARD:          0
L1D TOTAL     ACCESS:   54157251  HIT:   43712466  MISS:   10444785
L1D LOAD      ACCESS:   24089248  HIT:   18455231  MISS:    5634017
L1D RFO       ACCESS:   10363748  HIT:   10166521  MISS:     197227
L1D PREFETCH  ACCESS:   19704255  HIT:   15090714  MISS:    4613541
L1D WRITEBACK ACCESS:          0  HIT:          0  MISS:          0
L1D PREFETCH  REQUESTED:   24605961  ISSUED:   24182989  USEFUL:    1297815  USELESS:    3315814
L1D TOTAL MSHR MERGED:    5483422
L1D LOAD MSHR MERGED:     750305
L1D RFO MSHR MERGED:    2977166
L1D PREFETCH MSHR MERGED:    1755951
L1D WRITEBACK MSHR MERGED:          0
L1D TOTAL ACCESSES:   59641535 HITS:   43713327 MISSES:   15928208
L1D LOAD ACCESSES:   24606048 HITS:   18455318 MISSES:    6150730
L1D RFO ACCESSES:   13339798 HITS:   10166521 MISSES:    3173277
L1D PREFETCH ACCESSES:   21695689 HITS:   15091488 MISSES:    6604201
L1D WRITEBACK ACCESSES:          0 HITS:          0 MISSES:          0
L1D RQ ACCESS:   44219921
L1D RQ TO_CACHE:   24605961
L1D RQ MERGED:   19613873
L1D RQ FORWARD:          0
L1D WQ ACCESS:   13501718
L1D WQ TO_CACHE:   13339798
L1D WQ MERGED:     161920
L1D WQ FORWARD:        861
L1I TOTAL     ACCESS:   61988006  HIT:   61807975  MISS:     180031
L1I LOAD      ACCESS:   61988006  HIT:   61807975  MISS:     180031
L1I RFO       ACCESS:          0  HIT:          0  MISS:          0
L1I PREFETCH  ACCESS:          0  HIT:          0  MISS:          0
L1I WRITEBACK ACCESS:          0  HIT:          0  MISS:          0
L1I PREFETCH  REQUESTED:          0  ISSUED:          0  USEFUL:          0  USELESS:          0
L1I TOTAL MSHR MERGED:     136136
L1I LOAD MSHR MERGED:     136136
L1I RFO MSHR MERGED:          0
L1I PREFETCH MSHR MERGED:          0
L1I WRITEBACK MSHR MERGED:          0
L1I TOTAL ACCESSES:   62124142 HITS:   61807975 MISSES:     316167
L1I LOAD ACCESSES:   62124142 HITS:   61807975 MISSES:     316167
L1I RFO ACCESSES:          0 HITS:          0 MISSES:          0
L1I PREFETCH ACCESSES:          0 HITS:          0 MISSES:          0
L1I WRITEBACK ACCESSES:          0 HITS:          0 MISSES:          0
L1I RQ ACCESS:  149999757
L1I RQ TO_CACHE:   62124142
L1I RQ MERGED:   87875615
L1I RQ FORWARD:          0
L1I WQ ACCESS:          0
L1I WQ TO_CACHE:          0
L1I WQ MERGED:          0
L1I WQ FORWARD:          0
L2C TOTAL     ACCESS:   11154753  HIT:    5029471  MISS:    6125282
L2C LOAD      ACCESS:    5580393  HIT:    2201014  MISS:    3379379
L2C RFO       ACCESS:     196095  HIT:      32547  MISS:     163548
L2C PREFETCH  ACCESS:    5004053  HIT:    2421814  MISS:    2582239
L2C WRITEBACK ACCESS:     374212  HIT:     374096  MISS:        116
L2C PREFETCH  REQUESTED:     293182  ISSUED:     293182  USEFUL:      88501  USELESS:    2494235
L2C TOTAL MSHR MERGED:      12903
L2C LOAD MSHR MERGED:         23
L2C RFO MSHR MERGED:          1
L2C PREFETCH MSHR MERGED:      12879
L2C WRITEBACK MSHR MERGED:          0
L2C TOTAL ACCESSES:   11167744 HITS:    5029554 MISSES:    6138190
L2C LOAD ACCESSES:    5580456 HITS:    2201076 MISSES:    3379380
L2C RFO ACCESSES:     196111 HITS:      32563 MISSES:     163548
L2C PREFETCH ACCESSES:    5016965 HITS:    2421819 MISSES:    2595146
L2C WRITEBACK ACCESSES:     374212 HITS:     374096 MISSES:        116
L2C RQ ACCESS:    5776567
L2C RQ TO_CACHE:    5776489
L2C RQ MERGED:          0
L2C RQ FORWARD:          0
L2C WQ ACCESS:     374212
L2C WQ TO_CACHE:     374212
L2C WQ MERGED:          0
L2C WQ FORWARD:         83
LLC TOTAL     ACCESS:    6392142  HIT:    6218069  MISS:     174073
LLC LOAD      ACCESS:    3379355  HIT:    3357590  MISS:      21765
LLC RFO       ACCESS:     163547  HIT:      41956  MISS:     121591
LLC PREFETCH  ACCESS:    2582266  HIT:    2551743  MISS:      30523
LLC WRITEBACK ACCESS:     266974  HIT:     266780  MISS:        194
LLC PREFETCH  REQUESTED:          0  ISSUED:          0  USEFUL:       9746  USELESS:      24201
LLC TOTAL MSHR MERGED:          0
LLC LOAD MSHR MERGED:          0
LLC RFO MSHR MERGED:          0
LLC PREFETCH MSHR MERGED:          0
LLC WRITEBACK MSHR MERGED:          0
LLC TOTAL ACCESSES:    6392145 HITS:    6218070 MISSES:     174075
LLC LOAD ACCESSES:    3379357 HITS:    3357591 MISSES:      21766
LLC RFO ACCESSES:     163547 HITS:      41956 MISSES:     121591
LLC PREFETCH ACCESSES:    2582267 HITS:    2551743 MISSES:      30524
LLC WRITEBACK ACCESSES:     266974 HITS:     266780 MISSES:        194
LLC 0 RQ ACCESS:    3542904
LLC 0 RQ TO_CACHE:    3542903
LLC 0 RQ MERGED:          0
LLC 0 RQ FORWARD:          0
LLC WQ ACCESS:     266974
LLC WQ TO_CACHE:     266974
LLC WQ MERGED:          0
LLC WQ FORWARD:          1
Major fault: 0 Minor fault: 7019
CPU 0 L1D next line prefetcher final stats
CPU 0 L2C PC-based stride prefetcher final stats

DRAM Statistics
 CHANNEL 0
 RQ ROW_BUFFER_HIT:      85576  ROW_BUFFER_MISS:      88221
 DBUS_CONGESTED:     144131
 WQ ROW_BUFFER_HIT:      22729  ROW_BUFFER_MISS:     121752  FULL:          0

 AVG_CONGESTED_CYCLE: 14
LOADS RETIRED: 44930141
INSTR RETIRED: 150000000
