
*** ChampSim Multicore Out-of-Order Simulator ***

Warmup Instructions: 100000000
Simulation Instructions: 150000000
Number of CPUs: 1
LLC sets: 2048
LLC ways: 16
Clean RRIP Policies: 0 Dirty RRIP Policies: 0 PSEL Width: 10 Track Set: 4294967295 PSEL Mask: 15 Demote Mask: 0DS Algo: 0Window size: 64
Off-chip DRAM Size: 4096 MB Channels: 1 Width: 64-bit Data Rate: 1600 MT/s

CPU 0 runs /mnt/beegfs/pchatz06/traces/525.x264_r.train.input1.region_9.w_0.15654.trace.gz
NOT SORTED
TRACE STRING: /mnt/beegfs/pchatz06/traces/525.x264_r.train.input1.region_9.w_0.15654.trace.gz
SORTED
TRACE STRING: /mnt/beegfs/pchatz06/traces/525.x264_r.train.input1.region_9.w_0.15654.trace.gz
INITIAL
TRACE STRING: /mnt/beegfs/pchatz06/traces/525.x264_r.train.input1.region_9.w_0.15654.trace.gz

champsim_seed used: 261

CPU 0 L1D next line prefetcher
CPU 0 L2C IP-based stride prefetcher
Heartbeat CPU 0 instructions: 10000000 cycles: 3881972 heartbeat IPC: 2.57601 cumulative IPC: 2.57601 (Simulation time: 0 hr 0 min 13 sec) 
Heartbeat CPU 0 instructions: 20000000 cycles: 7779920 heartbeat IPC: 2.56545 cumulative IPC: 2.57072 (Simulation time: 0 hr 0 min 25 sec) 
Heartbeat CPU 0 instructions: 30000000 cycles: 11465362 heartbeat IPC: 2.71338 cumulative IPC: 2.61658 (Simulation time: 0 hr 0 min 38 sec) 
Heartbeat CPU 0 instructions: 40000000 cycles: 15134782 heartbeat IPC: 2.72523 cumulative IPC: 2.64292 (Simulation time: 0 hr 0 min 52 sec) 
Heartbeat CPU 0 instructions: 50000003 cycles: 18799779 heartbeat IPC: 2.72852 cumulative IPC: 2.65961 (Simulation time: 0 hr 1 min 5 sec) 
Heartbeat CPU 0 instructions: 60000000 cycles: 22553787 heartbeat IPC: 2.66382 cumulative IPC: 2.66031 (Simulation time: 0 hr 1 min 18 sec) 
Heartbeat CPU 0 instructions: 70000003 cycles: 26643594 heartbeat IPC: 2.4451 cumulative IPC: 2.62727 (Simulation time: 0 hr 1 min 30 sec) 
Heartbeat CPU 0 instructions: 80000000 cycles: 30362941 heartbeat IPC: 2.68864 cumulative IPC: 2.63479 (Simulation time: 0 hr 1 min 44 sec) 
Heartbeat CPU 0 instructions: 90000001 cycles: 34061429 heartbeat IPC: 2.70381 cumulative IPC: 2.64228 (Simulation time: 0 hr 1 min 57 sec) 
Heartbeat CPU 0 instructions: 100000000 cycles: 37767078 heartbeat IPC: 2.69858 cumulative IPC: 2.64781 (Simulation time: 0 hr 2 min 10 sec) 

Warmup complete CPU 0 instructions: 100000002 cycles: 37767079 (Simulation time: 0 hr 2 min 10 sec) 

Heartbeat CPU 0 instructions: 110000000 cycles: 44039018 heartbeat IPC: 1.5944 cumulative IPC: 1.5944 (Simulation time: 0 hr 2 min 26 sec) 
Heartbeat CPU 0 instructions: 120000000 cycles: 50452070 heartbeat IPC: 1.55932 cumulative IPC: 1.57667 (Simulation time: 0 hr 2 min 41 sec) 
Heartbeat CPU 0 instructions: 130000002 cycles: 56543459 heartbeat IPC: 1.64166 cumulative IPC: 1.59775 (Simulation time: 0 hr 2 min 57 sec) 
Heartbeat CPU 0 instructions: 140000000 cycles: 63056163 heartbeat IPC: 1.53546 cumulative IPC: 1.58171 (Simulation time: 0 hr 3 min 13 sec) 
Heartbeat CPU 0 instructions: 150000003 cycles: 69506784 heartbeat IPC: 1.55024 cumulative IPC: 1.57531 (Simulation time: 0 hr 3 min 28 sec) 
Heartbeat CPU 0 instructions: 160000000 cycles: 76004610 heartbeat IPC: 1.53898 cumulative IPC: 1.56914 (Simulation time: 0 hr 3 min 44 sec) 
Heartbeat CPU 0 instructions: 170000002 cycles: 82273042 heartbeat IPC: 1.5953 cumulative IPC: 1.57282 (Simulation time: 0 hr 4 min 0 sec) 
Heartbeat CPU 0 instructions: 180000000 cycles: 88790816 heartbeat IPC: 1.53427 cumulative IPC: 1.5679 (Simulation time: 0 hr 4 min 15 sec) 
Heartbeat CPU 0 instructions: 190000000 cycles: 94824092 heartbeat IPC: 1.65747 cumulative IPC: 1.57737 (Simulation time: 0 hr 4 min 31 sec) 
Heartbeat CPU 0 instructions: 200000000 cycles: 101265485 heartbeat IPC: 1.55246 cumulative IPC: 1.57484 (Simulation time: 0 hr 4 min 46 sec) 
Heartbeat CPU 0 instructions: 210000001 cycles: 107920822 heartbeat IPC: 1.50255 cumulative IPC: 1.56798 (Simulation time: 0 hr 5 min 2 sec) 
Heartbeat CPU 0 instructions: 220000000 cycles: 114577409 heartbeat IPC: 1.50227 cumulative IPC: 1.56229 (Simulation time: 0 hr 5 min 18 sec) 
Heartbeat CPU 0 instructions: 230000001 cycles: 120957493 heartbeat IPC: 1.56738 cumulative IPC: 1.56268 (Simulation time: 0 hr 5 min 34 sec) 
Heartbeat CPU 0 instructions: 240000000 cycles: 127448537 heartbeat IPC: 1.54058 cumulative IPC: 1.56108 (Simulation time: 0 hr 5 min 50 sec) 
*** Reached end of trace for Core: 0 Repeating trace: /mnt/beegfs/pchatz06/traces/525.x264_r.train.input1.region_9.w_0.15654.trace.gz
Heartbeat CPU 0 instructions: 250000000 cycles: 133786779 heartbeat IPC: 1.57772 cumulative IPC: 1.56218 (Simulation time: 0 hr 6 min 5 sec) 
Finished CPU 0 instructions: 150000001 cycles: 96019703 cumulative IPC: 1.56218 (Simulation time: 0 hr 6 min 5 sec) 

CPU 0 Branch Prediction Accuracy: 94.497% MPKI: 1.68771
Number of Branches: 4600326 Number of Mispredictions: 253156
Number of LOAD Instructions: 55766159
Number of LOAD Instructions (ROI): 55766159
Number of STORE Instructions: 11646278
Number of STORE Instructions (ROI): 11646278
Total Destination Memory Operands: 12717907
Total Destination Memory Operands (ROI): 12717907
Total Source Memory Operands: 55766159
Total Source Memory Operands (ROI): 55766159
Number of DEPENDED LOADS: 2312259
Number of DEPENDED LOADS (ROI): 2312259
Number of SQ_ADDED: 12717907
Number of SQ_ADDED (ROI): 12717907
Number of LQ_ADDED: 61499617
Number of LQ_ADDED (ROI): 61499617
Number of Instructions read from trace: 250000257

ChampSim completed all CPUs

Region of Interest Statistics

CPU 0 cumulative IPC: 1.56218 instructions: 150000001 cycles: 96019703
ITLB TOTAL     ACCESS:   26277105  HIT:   26277105  MISS:          0
ITLB LOAD      ACCESS:   26277105  HIT:   26277105  MISS:          0
ITLB RFO       ACCESS:          0  HIT:          0  MISS:          0
ITLB PREFETCH  ACCESS:          0  HIT:          0  MISS:          0
ITLB WRITEBACK ACCESS:          0  HIT:          0  MISS:          0
ITLB PREFETCH  REQUESTED:          0  ISSUED:          0  USEFUL:          0  USELESS:          0
ITLB TOTAL MSHR MERGED:          0
ITLB LOAD MSHR MERGED:          0
ITLB RFO MSHR MERGED:          0
ITLB PREFETCH MSHR MERGED:          0
ITLB WRITEBACK MSHR MERGED:          0
ITLB TOTAL ACCESSES:   26277105 HITS:   26277105 MISSES:          0
ITLB LOAD ACCESSES:   26277105 HITS:   26277105 MISSES:          0
ITLB RFO ACCESSES:          0 HITS:          0 MISSES:          0
ITLB PREFETCH ACCESSES:          0 HITS:          0 MISSES:          0
ITLB WRITEBACK ACCESSES:          0 HITS:          0 MISSES:          0
ITLB RQ ACCESS:  150000001
ITLB RQ TO_CACHE:   26277105
ITLB RQ MERGED:  123722896
ITLB RQ FORWARD:          0
ITLB WQ ACCESS:          0
ITLB WQ TO_CACHE:          0
ITLB WQ MERGED:          0
ITLB WQ FORWARD:          0
DTLB TOTAL     ACCESS:   22666564  HIT:   22621220  MISS:      45344
DTLB LOAD      ACCESS:   17468535  HIT:   17428633  MISS:      39902
DTLB RFO       ACCESS:    5198029  HIT:    5192587  MISS:       5442
DTLB PREFETCH  ACCESS:          0  HIT:          0  MISS:          0
DTLB WRITEBACK ACCESS:          0  HIT:          0  MISS:          0
DTLB PREFETCH  REQUESTED:          0  ISSUED:          0  USEFUL:          0  USELESS:          0
DTLB TOTAL MSHR MERGED:      46858
DTLB LOAD MSHR MERGED:      42625
DTLB RFO MSHR MERGED:       4233
DTLB PREFETCH MSHR MERGED:          0
DTLB WRITEBACK MSHR MERGED:          0
DTLB TOTAL ACCESSES:   22713423 HITS:   22621220 MISSES:      92203
DTLB LOAD ACCESSES:   17511161 HITS:   17428633 MISSES:      82528
DTLB RFO ACCESSES:    5202262 HITS:    5192587 MISSES:       9675
DTLB PREFETCH ACCESSES:          0 HITS:          0 MISSES:          0
DTLB WRITEBACK ACCESSES:          0 HITS:          0 MISSES:          0
DTLB RQ ACCESS:   39733655
DTLB RQ TO_CACHE:   22713425
DTLB RQ MERGED:   17020230
DTLB RQ FORWARD:          0
DTLB WQ ACCESS:          0
DTLB WQ TO_CACHE:          0
DTLB WQ MERGED:          0
DTLB WQ FORWARD:          0
L1D TOTAL     ACCESS:   30028677  HIT:   29598993  MISS:     429684
L1D LOAD      ACCESS:   13649487  HIT:   13457123  MISS:     192364
L1D RFO       ACCESS:    7133843  HIT:    7097214  MISS:      36629
L1D PREFETCH  ACCESS:    9245347  HIT:    9044656  MISS:     200691
L1D WRITEBACK ACCESS:          0  HIT:          0  MISS:          0
L1D PREFETCH  REQUESTED:   13750311  ISSUED:   13375920  USEFUL:      28181  USELESS:     172518
L1D TOTAL MSHR MERGED:     221943
L1D LOAD MSHR MERGED:     102282
L1D RFO MSHR MERGED:      71731
L1D PREFETCH MSHR MERGED:      47930
L1D WRITEBACK MSHR MERGED:          0
L1D TOTAL ACCESSES:   30259603 HITS:   29607976 MISSES:     651627
L1D LOAD ACCESSES:   13750355 HITS:   13457167 MISSES:     293188
L1D RFO ACCESSES:    7205386 HITS:    7097214 MISSES:     108172
L1D PREFETCH ACCESSES:    9303862 HITS:    9053595 MISSES:     250267
L1D WRITEBACK ACCESSES:          0 HITS:          0 MISSES:          0
L1D RQ ACCESS:   32078817
L1D RQ TO_CACHE:   13750312
L1D RQ MERGED:   18328461
L1D RQ FORWARD:          0
L1D WQ ACCESS:    7654835
L1D WQ TO_CACHE:    7205386
L1D WQ MERGED:     449449
L1D WQ FORWARD:       8983
L1I TOTAL     ACCESS:   31386696  HIT:   31185710  MISS:     200986
L1I LOAD      ACCESS:   31386696  HIT:   31185710  MISS:     200986
L1I RFO       ACCESS:          0  HIT:          0  MISS:          0
L1I PREFETCH  ACCESS:          0  HIT:          0  MISS:          0
L1I WRITEBACK ACCESS:          0  HIT:          0  MISS:          0
L1I PREFETCH  REQUESTED:          0  ISSUED:          0  USEFUL:          0  USELESS:          0
L1I TOTAL MSHR MERGED:     219968
L1I LOAD MSHR MERGED:     219968
L1I RFO MSHR MERGED:          0
L1I PREFETCH MSHR MERGED:          0
L1I WRITEBACK MSHR MERGED:          0
L1I TOTAL ACCESSES:   31606664 HITS:   31185710 MISSES:     420954
L1I LOAD ACCESSES:   31606664 HITS:   31185710 MISSES:     420954
L1I RFO ACCESSES:          0 HITS:          0 MISSES:          0
L1I PREFETCH ACCESSES:          0 HITS:          0 MISSES:          0
L1I WRITEBACK ACCESSES:          0 HITS:          0 MISSES:          0
L1I RQ ACCESS:  150000003
L1I RQ TO_CACHE:   31606664
L1I RQ MERGED:  118393339
L1I RQ FORWARD:          0
L1I WQ ACCESS:          0
L1I WQ TO_CACHE:          0
L1I WQ MERGED:          0
L1I WQ FORWARD:          0
L2C TOTAL     ACCESS:     719576  HIT:     597044  MISS:     122532
L2C LOAD      ACCESS:     391889  HIT:     325083  MISS:      66806
L2C RFO       ACCESS:      36410  HIT:      28653  MISS:       7757
L2C PREFETCH  ACCESS:     240923  HIT:     193480  MISS:      47443
L2C WRITEBACK ACCESS:      50354  HIT:      49828  MISS:        526
L2C PREFETCH  REQUESTED:      41503  ISSUED:      41503  USEFUL:      20145  USELESS:      27464
L2C TOTAL MSHR MERGED:        756
L2C LOAD MSHR MERGED:        239
L2C RFO MSHR MERGED:          0
L2C PREFETCH MSHR MERGED:        517
L2C WRITEBACK MSHR MERGED:          0
L2C TOTAL ACCESSES:     720398 HITS:     597078 MISSES:     123320
L2C LOAD ACCESSES:     391892 HITS:     325086 MISSES:      66806
L2C RFO ACCESSES:      36441 HITS:      28684 MISSES:       7757
L2C PREFETCH ACCESSES:     241711 HITS:     193480 MISSES:      48231
L2C WRITEBACK ACCESSES:      50354 HITS:      49828 MISSES:        526
L2C RQ ACCESS:     428333
L2C RQ TO_CACHE:     428299
L2C RQ MERGED:          0
L2C RQ FORWARD:          0
L2C WQ ACCESS:      50354
L2C WQ TO_CACHE:      50354
L2C WQ MERGED:          0
L2C WQ FORWARD:         34
LLC TOTAL     ACCESS:     133035  HIT:     111219  MISS:      21816
LLC LOAD      ACCESS:      66567  HIT:      63302  MISS:       3265
LLC RFO       ACCESS:       7757  HIT:       4522  MISS:       3235
LLC PREFETCH  ACCESS:      47714  HIT:      32419  MISS:      15295
LLC WRITEBACK ACCESS:      10997  HIT:      10976  MISS:         21
LLC PREFETCH  REQUESTED:          0  ISSUED:          0  USEFUL:       4364  USELESS:       8768
LLC TOTAL MSHR MERGED:          0
LLC LOAD MSHR MERGED:          0
LLC RFO MSHR MERGED:          0
LLC PREFETCH MSHR MERGED:          0
LLC WRITEBACK MSHR MERGED:          0
LLC TOTAL ACCESSES:     133035 HITS:     111219 MISSES:      21816
LLC LOAD ACCESSES:      66567 HITS:      63302 MISSES:       3265
LLC RFO ACCESSES:       7757 HITS:       4522 MISSES:       3235
LLC PREFETCH ACCESSES:      47714 HITS:      32419 MISSES:      15295
LLC WRITEBACK ACCESSES:      10997 HITS:      10976 MISSES:         21
LLC 0 RQ ACCESS:      74324
LLC 0 RQ TO_CACHE:      74324
LLC 0 RQ MERGED:          0
LLC 0 RQ FORWARD:          0
LLC WQ ACCESS:      10997
LLC WQ TO_CACHE:      10997
LLC WQ MERGED:          0
LLC WQ FORWARD:          0
Major fault: 0 Minor fault: 1346
CPU 0 L1D next line prefetcher final stats
CPU 0 L2C PC-based stride prefetcher final stats

DRAM Statistics
 CHANNEL 0
 RQ ROW_BUFFER_HIT:       6920  ROW_BUFFER_MISS:      14875
 DBUS_CONGESTED:       9018
 WQ ROW_BUFFER_HIT:        382  ROW_BUFFER_MISS:       2651  FULL:          0

 AVG_CONGESTED_CYCLE: 12
LOADS RETIRED: 33470347
INSTR RETIRED: 150000000
