
*** ChampSim Multicore Out-of-Order Simulator ***

Warmup Instructions: 100000000
Simulation Instructions: 150000000
Number of CPUs: 1
LLC sets: 2048
LLC ways: 16
Clean RRIP Policies: 0 Dirty RRIP Policies: 0 PSEL Width: 10 Track Set: 4294967295 PSEL Mask: 15 Demote Mask: 0DS Algo: 0Window size: 64
Off-chip DRAM Size: 4096 MB Channels: 1 Width: 64-bit Data Rate: 1600 MT/s

CPU 0 runs /mnt/beegfs/pchatz06/traces/525.x264_r.train.input1.region_3.w_0.16510.trace.gz
NOT SORTED
TRACE STRING: /mnt/beegfs/pchatz06/traces/525.x264_r.train.input1.region_3.w_0.16510.trace.gz
SORTED
TRACE STRING: /mnt/beegfs/pchatz06/traces/525.x264_r.train.input1.region_3.w_0.16510.trace.gz
INITIAL
TRACE STRING: /mnt/beegfs/pchatz06/traces/525.x264_r.train.input1.region_3.w_0.16510.trace.gz

champsim_seed used: 253

CPU 0 L1D next line prefetcher
CPU 0 L2C IP-based stride prefetcher
Heartbeat CPU 0 instructions: 10000001 cycles: 3698756 heartbeat IPC: 2.70361 cumulative IPC: 2.70361 (Simulation time: 0 hr 0 min 13 sec) 
Heartbeat CPU 0 instructions: 20000000 cycles: 7379660 heartbeat IPC: 2.71672 cumulative IPC: 2.71015 (Simulation time: 0 hr 0 min 26 sec) 
Heartbeat CPU 0 instructions: 30000002 cycles: 11075791 heartbeat IPC: 2.70553 cumulative IPC: 2.70861 (Simulation time: 0 hr 0 min 39 sec) 
Heartbeat CPU 0 instructions: 40000000 cycles: 15034992 heartbeat IPC: 2.52576 cumulative IPC: 2.66046 (Simulation time: 0 hr 0 min 53 sec) 
Heartbeat CPU 0 instructions: 50000002 cycles: 19082300 heartbeat IPC: 2.47078 cumulative IPC: 2.62023 (Simulation time: 0 hr 1 min 6 sec) 
Heartbeat CPU 0 instructions: 60000000 cycles: 22871167 heartbeat IPC: 2.63931 cumulative IPC: 2.62339 (Simulation time: 0 hr 1 min 19 sec) 
Heartbeat CPU 0 instructions: 70000003 cycles: 26579728 heartbeat IPC: 2.69646 cumulative IPC: 2.63359 (Simulation time: 0 hr 1 min 32 sec) 
Heartbeat CPU 0 instructions: 80000000 cycles: 30252904 heartbeat IPC: 2.72244 cumulative IPC: 2.64437 (Simulation time: 0 hr 1 min 46 sec) 
Heartbeat CPU 0 instructions: 90000002 cycles: 34175318 heartbeat IPC: 2.54945 cumulative IPC: 2.63348 (Simulation time: 0 hr 2 min 0 sec) 
Heartbeat CPU 0 instructions: 100000000 cycles: 38326138 heartbeat IPC: 2.40916 cumulative IPC: 2.60919 (Simulation time: 0 hr 2 min 13 sec) 

Warmup complete CPU 0 instructions: 100000001 cycles: 38326139 (Simulation time: 0 hr 2 min 13 sec) 

Heartbeat CPU 0 instructions: 110000000 cycles: 44569052 heartbeat IPC: 1.60182 cumulative IPC: 1.60182 (Simulation time: 0 hr 2 min 29 sec) 
Heartbeat CPU 0 instructions: 120000000 cycles: 50835204 heartbeat IPC: 1.59588 cumulative IPC: 1.59884 (Simulation time: 0 hr 2 min 45 sec) 
Heartbeat CPU 0 instructions: 130000003 cycles: 57381099 heartbeat IPC: 1.52768 cumulative IPC: 1.57439 (Simulation time: 0 hr 3 min 1 sec) 
Heartbeat CPU 0 instructions: 140000000 cycles: 63725860 heartbeat IPC: 1.5761 cumulative IPC: 1.57482 (Simulation time: 0 hr 3 min 17 sec) 
Heartbeat CPU 0 instructions: 150000002 cycles: 69890229 heartbeat IPC: 1.62223 cumulative IPC: 1.58408 (Simulation time: 0 hr 3 min 33 sec) 
Heartbeat CPU 0 instructions: 160000000 cycles: 76083467 heartbeat IPC: 1.61466 cumulative IPC: 1.5891 (Simulation time: 0 hr 3 min 49 sec) 
Heartbeat CPU 0 instructions: 170000002 cycles: 82410150 heartbeat IPC: 1.58061 cumulative IPC: 1.58788 (Simulation time: 0 hr 4 min 6 sec) 
Heartbeat CPU 0 instructions: 180000000 cycles: 88765330 heartbeat IPC: 1.57352 cumulative IPC: 1.58607 (Simulation time: 0 hr 4 min 22 sec) 
Heartbeat CPU 0 instructions: 190000002 cycles: 95036041 heartbeat IPC: 1.59472 cumulative IPC: 1.58702 (Simulation time: 0 hr 4 min 38 sec) 
Heartbeat CPU 0 instructions: 200000000 cycles: 101123864 heartbeat IPC: 1.64262 cumulative IPC: 1.59241 (Simulation time: 0 hr 4 min 54 sec) 
Heartbeat CPU 0 instructions: 210000001 cycles: 107458666 heartbeat IPC: 1.57858 cumulative IPC: 1.59115 (Simulation time: 0 hr 5 min 10 sec) 
Heartbeat CPU 0 instructions: 220000000 cycles: 113732595 heartbeat IPC: 1.5939 cumulative IPC: 1.59138 (Simulation time: 0 hr 5 min 27 sec) 
Heartbeat CPU 0 instructions: 230000002 cycles: 119890870 heartbeat IPC: 1.62383 cumulative IPC: 1.59383 (Simulation time: 0 hr 5 min 43 sec) 
Heartbeat CPU 0 instructions: 240000000 cycles: 126056755 heartbeat IPC: 1.62183 cumulative IPC: 1.59579 (Simulation time: 0 hr 5 min 59 sec) 
*** Reached end of trace for Core: 0 Repeating trace: /mnt/beegfs/pchatz06/traces/525.x264_r.train.input1.region_3.w_0.16510.trace.gz
Heartbeat CPU 0 instructions: 250000001 cycles: 132268887 heartbeat IPC: 1.60975 cumulative IPC: 1.59672 (Simulation time: 0 hr 6 min 15 sec) 
Finished CPU 0 instructions: 150000000 cycles: 93942748 cumulative IPC: 1.59672 (Simulation time: 0 hr 6 min 15 sec) 

CPU 0 Branch Prediction Accuracy: 94.9368% MPKI: 1.45899
Number of Branches: 4322362 Number of Mispredictions: 218848
Number of LOAD Instructions: 56180696
Number of LOAD Instructions (ROI): 56180696
Number of STORE Instructions: 11038674
Number of STORE Instructions (ROI): 11038674
Total Destination Memory Operands: 12071903
Total Destination Memory Operands (ROI): 12071903
Total Source Memory Operands: 56180696
Total Source Memory Operands (ROI): 56180696
Number of DEPENDED LOADS: 2262620
Number of DEPENDED LOADS (ROI): 2262620
Number of SQ_ADDED: 12071903
Number of SQ_ADDED (ROI): 12071903
Number of LQ_ADDED: 61767440
Number of LQ_ADDED (ROI): 61767440
Number of Instructions read from trace: 250000184

ChampSim completed all CPUs

Region of Interest Statistics

CPU 0 cumulative IPC: 1.59672 instructions: 150000000 cycles: 93942748
ITLB TOTAL     ACCESS:   26577728  HIT:   26577727  MISS:          1
ITLB LOAD      ACCESS:   26577728  HIT:   26577727  MISS:          1
ITLB RFO       ACCESS:          0  HIT:          0  MISS:          0
ITLB PREFETCH  ACCESS:          0  HIT:          0  MISS:          0
ITLB WRITEBACK ACCESS:          0  HIT:          0  MISS:          0
ITLB PREFETCH  REQUESTED:          0  ISSUED:          0  USEFUL:          0  USELESS:          0
ITLB TOTAL MSHR MERGED:          0
ITLB LOAD MSHR MERGED:          0
ITLB RFO MSHR MERGED:          0
ITLB PREFETCH MSHR MERGED:          0
ITLB WRITEBACK MSHR MERGED:          0
ITLB TOTAL ACCESSES:   26577728 HITS:   26577727 MISSES:          1
ITLB LOAD ACCESSES:   26577728 HITS:   26577727 MISSES:          1
ITLB RFO ACCESSES:          0 HITS:          0 MISSES:          0
ITLB PREFETCH ACCESSES:          0 HITS:          0 MISSES:          0
ITLB WRITEBACK ACCESSES:          0 HITS:          0 MISSES:          0
ITLB RQ ACCESS:  149999930
ITLB RQ TO_CACHE:   26577728
ITLB RQ MERGED:  123422202
ITLB RQ FORWARD:          0
ITLB WQ ACCESS:          0
ITLB WQ TO_CACHE:          0
ITLB WQ MERGED:          0
ITLB WQ FORWARD:          0
DTLB TOTAL     ACCESS:   22279009  HIT:   22231936  MISS:      47073
DTLB LOAD      ACCESS:   17398509  HIT:   17359453  MISS:      39056
DTLB RFO       ACCESS:    4880500  HIT:    4872483  MISS:       8017
DTLB PREFETCH  ACCESS:          0  HIT:          0  MISS:          0
DTLB WRITEBACK ACCESS:          0  HIT:          0  MISS:          0
DTLB PREFETCH  REQUESTED:          0  ISSUED:          0  USEFUL:          0  USELESS:          0
DTLB TOTAL MSHR MERGED:      41966
DTLB LOAD MSHR MERGED:      35535
DTLB RFO MSHR MERGED:       6431
DTLB PREFETCH MSHR MERGED:          0
DTLB WRITEBACK MSHR MERGED:          0
DTLB TOTAL ACCESSES:   22320975 HITS:   22231936 MISSES:      89039
DTLB LOAD ACCESSES:   17434044 HITS:   17359453 MISSES:      74591
DTLB RFO ACCESSES:    4886931 HITS:    4872483 MISSES:      14448
DTLB PREFETCH ACCESSES:          0 HITS:          0 MISSES:          0
DTLB WRITEBACK ACCESSES:          0 HITS:          0 MISSES:          0
DTLB RQ ACCESS:   39540566
DTLB RQ TO_CACHE:   22320976
DTLB RQ MERGED:   17219590
DTLB RQ FORWARD:          0
DTLB WQ ACCESS:          0
DTLB WQ TO_CACHE:          0
DTLB WQ MERGED:          0
DTLB WQ FORWARD:          0
L1D TOTAL     ACCESS:   29058812  HIT:   28601735  MISS:     457077
L1D LOAD      ACCESS:   13430440  HIT:   13228872  MISS:     201568
L1D RFO       ACCESS:    6670877  HIT:    6624770  MISS:      46107
L1D PREFETCH  ACCESS:    8957495  HIT:    8748093  MISS:     209402
L1D WRITEBACK ACCESS:          0  HIT:          0  MISS:          0
L1D PREFETCH  REQUESTED:   13519377  ISSUED:   13197030  USEFUL:      31424  USELESS:     177949
L1D TOTAL MSHR MERGED:     215470
L1D LOAD MSHR MERGED:      90381
L1D RFO MSHR MERGED:      79381
L1D PREFETCH MSHR MERGED:      45708
L1D WRITEBACK MSHR MERGED:          0
L1D TOTAL ACCESSES:   29293362 HITS:   28620813 MISSES:     672549
L1D LOAD ACCESSES:   13519430 HITS:   13228925 MISSES:     290505
L1D RFO ACCESSES:    6749990 HITS:    6624770 MISSES:     125220
L1D PREFETCH ACCESSES:    9023942 HITS:    8767118 MISSES:     256824
L1D WRITEBACK ACCESSES:          0 HITS:          0 MISSES:          0
L1D RQ ACCESS:   32326830
L1D RQ TO_CACHE:   13519378
L1D RQ MERGED:   18807399
L1D RQ FORWARD:          0
L1D WQ ACCESS:    7213735
L1D WQ TO_CACHE:    6749990
L1D WQ MERGED:     463745
L1D WQ FORWARD:      19078
L1I TOTAL     ACCESS:   31780762  HIT:   31574195  MISS:     206567
L1I LOAD      ACCESS:   31780762  HIT:   31574195  MISS:     206567
L1I RFO       ACCESS:          0  HIT:          0  MISS:          0
L1I PREFETCH  ACCESS:          0  HIT:          0  MISS:          0
L1I WRITEBACK ACCESS:          0  HIT:          0  MISS:          0
L1I PREFETCH  REQUESTED:          0  ISSUED:          0  USEFUL:          0  USELESS:          0
L1I TOTAL MSHR MERGED:     207296
L1I LOAD MSHR MERGED:     207296
L1I RFO MSHR MERGED:          0
L1I PREFETCH MSHR MERGED:          0
L1I WRITEBACK MSHR MERGED:          0
L1I TOTAL ACCESSES:   31988058 HITS:   31574195 MISSES:     413863
L1I LOAD ACCESSES:   31988058 HITS:   31574195 MISSES:     413863
L1I RFO ACCESSES:          0 HITS:          0 MISSES:          0
L1I PREFETCH ACCESSES:          0 HITS:          0 MISSES:          0
L1I WRITEBACK ACCESSES:          0 HITS:          0 MISSES:          0
L1I RQ ACCESS:  149999934
L1I RQ TO_CACHE:   31988058
L1I RQ MERGED:  118011876
L1I RQ FORWARD:          0
L1I WQ ACCESS:          0
L1I WQ TO_CACHE:          0
L1I WQ MERGED:          0
L1I WQ FORWARD:          0
L2C TOTAL     ACCESS:     775156  HIT:     694954  MISS:      80202
L2C LOAD      ACCESS:     406689  HIT:     373704  MISS:      32985
L2C RFO       ACCESS:      45824  HIT:      38686  MISS:       7138
L2C PREFETCH  ACCESS:     259781  HIT:     220050  MISS:      39731
L2C WRITEBACK ACCESS:      62862  HIT:      62514  MISS:        348
L2C PREFETCH  REQUESTED:      51772  ISSUED:      51772  USEFUL:      24119  USELESS:      15655
L2C TOTAL MSHR MERGED:        492
L2C LOAD MSHR MERGED:        140
L2C RFO MSHR MERGED:          0
L2C PREFETCH MSHR MERGED:        352
L2C WRITEBACK MSHR MERGED:          0
L2C TOTAL ACCESSES:     775686 HITS:     694977 MISSES:      80709
L2C LOAD ACCESSES:     406691 HITS:     373705 MISSES:      32986
L2C RFO ACCESSES:      45839 HITS:      38701 MISSES:       7138
L2C PREFETCH ACCESSES:     260294 HITS:     220057 MISSES:      40237
L2C WRITEBACK ACCESSES:      62862 HITS:      62514 MISSES:        348
L2C RQ ACCESS:     452530
L2C RQ TO_CACHE:     452514
L2C RQ MERGED:          0
L2C RQ FORWARD:          0
L2C WQ ACCESS:      62862
L2C WQ TO_CACHE:      62862
L2C WQ MERGED:          0
L2C WQ FORWARD:         23
LLC TOTAL     ACCESS:      90331  HIT:      65153  MISS:      25178
LLC LOAD      ACCESS:      32845  HIT:      30277  MISS:       2568
LLC RFO       ACCESS:       7138  HIT:       2370  MISS:       4768
LLC PREFETCH  ACCESS:      39880  HIT:      22077  MISS:      17803
LLC WRITEBACK ACCESS:      10468  HIT:      10429  MISS:         39
LLC PREFETCH  REQUESTED:          0  ISSUED:          0  USEFUL:       2722  USELESS:      12103
LLC TOTAL MSHR MERGED:          3
LLC LOAD MSHR MERGED:          1
LLC RFO MSHR MERGED:          0
LLC PREFETCH MSHR MERGED:          2
LLC WRITEBACK MSHR MERGED:          0
LLC TOTAL ACCESSES:      90335 HITS:      65154 MISSES:      25181
LLC LOAD ACCESSES:      32845 HITS:      30277 MISSES:       2568
LLC RFO ACCESSES:       7138 HITS:       2370 MISSES:       4768
LLC PREFETCH ACCESSES:      39884 HITS:      22078 MISSES:      17806
LLC WRITEBACK ACCESSES:      10468 HITS:      10429 MISSES:         39
LLC 0 RQ ACCESS:      39984
LLC 0 RQ TO_CACHE:      39984
LLC 0 RQ MERGED:          0
LLC 0 RQ FORWARD:          0
LLC WQ ACCESS:      10468
LLC WQ TO_CACHE:      10468
LLC WQ MERGED:          0
LLC WQ FORWARD:          1
Major fault: 0 Minor fault: 1410
CPU 0 L1D next line prefetcher final stats
CPU 0 L2C PC-based stride prefetcher final stats

DRAM Statistics
 CHANNEL 0
 RQ ROW_BUFFER_HIT:       8159  ROW_BUFFER_MISS:      16980
 DBUS_CONGESTED:       9085
 WQ ROW_BUFFER_HIT:        377  ROW_BUFFER_MISS:       2717  FULL:          0

 AVG_CONGESTED_CYCLE: 12
LOADS RETIRED: 33699764
INSTR RETIRED: 150000000
