
*** ChampSim Multicore Out-of-Order Simulator ***

Warmup Instructions: 100000000
Simulation Instructions: 150000000
Number of CPUs: 1
LLC sets: 2048
LLC ways: 16
Clean RRIP Policies: 0 Dirty RRIP Policies: 0 PSEL Width: 10 Track Set: 4294967295 PSEL Mask: 15 Demote Mask: 0DS Algo: 0Window size: 64
Off-chip DRAM Size: 4096 MB Channels: 1 Width: 64-bit Data Rate: 1600 MT/s

CPU 0 runs /mnt/beegfs/pchatz06/traces/526.blender_r.refrate.input1.region_11.w_0.15739.trace.gz
NOT SORTED
TRACE STRING: /mnt/beegfs/pchatz06/traces/526.blender_r.refrate.input1.region_11.w_0.15739.trace.gz
SORTED
TRACE STRING: /mnt/beegfs/pchatz06/traces/526.blender_r.refrate.input1.region_11.w_0.15739.trace.gz
INITIAL
TRACE STRING: /mnt/beegfs/pchatz06/traces/526.blender_r.refrate.input1.region_11.w_0.15739.trace.gz

champsim_seed used: 265

CPU 0 L1D next line prefetcher
CPU 0 L2C IP-based stride prefetcher
Heartbeat CPU 0 instructions: 10000003 cycles: 5325553 heartbeat IPC: 1.87774 cumulative IPC: 1.87774 (Simulation time: 0 hr 0 min 13 sec) 
Heartbeat CPU 0 instructions: 20000000 cycles: 10659844 heartbeat IPC: 1.87466 cumulative IPC: 1.8762 (Simulation time: 0 hr 0 min 27 sec) 
Heartbeat CPU 0 instructions: 30000000 cycles: 16045606 heartbeat IPC: 1.85675 cumulative IPC: 1.86967 (Simulation time: 0 hr 0 min 40 sec) 
Heartbeat CPU 0 instructions: 40000000 cycles: 21439445 heartbeat IPC: 1.85397 cumulative IPC: 1.86572 (Simulation time: 0 hr 0 min 53 sec) 
Heartbeat CPU 0 instructions: 50000002 cycles: 26833877 heartbeat IPC: 1.85376 cumulative IPC: 1.86332 (Simulation time: 0 hr 1 min 6 sec) 
Heartbeat CPU 0 instructions: 60000000 cycles: 32249500 heartbeat IPC: 1.84651 cumulative IPC: 1.86049 (Simulation time: 0 hr 1 min 20 sec) 
Heartbeat CPU 0 instructions: 70000000 cycles: 37691788 heartbeat IPC: 1.83746 cumulative IPC: 1.85717 (Simulation time: 0 hr 1 min 33 sec) 
Heartbeat CPU 0 instructions: 80000000 cycles: 43080365 heartbeat IPC: 1.85578 cumulative IPC: 1.85699 (Simulation time: 0 hr 1 min 46 sec) 
Heartbeat CPU 0 instructions: 90000002 cycles: 48393948 heartbeat IPC: 1.88197 cumulative IPC: 1.85974 (Simulation time: 0 hr 1 min 59 sec) 
Heartbeat CPU 0 instructions: 100000000 cycles: 53710928 heartbeat IPC: 1.88077 cumulative IPC: 1.86182 (Simulation time: 0 hr 2 min 13 sec) 

Warmup complete CPU 0 instructions: 100000002 cycles: 53710932 (Simulation time: 0 hr 2 min 13 sec) 

Heartbeat CPU 0 instructions: 110000001 cycles: 65820605 heartbeat IPC: 0.825786 cumulative IPC: 0.825786 (Simulation time: 0 hr 2 min 31 sec) 
Heartbeat CPU 0 instructions: 120000000 cycles: 77969019 heartbeat IPC: 0.823153 cumulative IPC: 0.824467 (Simulation time: 0 hr 2 min 50 sec) 
Heartbeat CPU 0 instructions: 130000000 cycles: 90291158 heartbeat IPC: 0.811547 cumulative IPC: 0.820115 (Simulation time: 0 hr 3 min 8 sec) 
Heartbeat CPU 0 instructions: 140000000 cycles: 102597742 heartbeat IPC: 0.812573 cumulative IPC: 0.818217 (Simulation time: 0 hr 3 min 26 sec) 
Heartbeat CPU 0 instructions: 150000003 cycles: 115095210 heartbeat IPC: 0.800162 cumulative IPC: 0.814541 (Simulation time: 0 hr 3 min 44 sec) 
Heartbeat CPU 0 instructions: 160000000 cycles: 127560431 heartbeat IPC: 0.802232 cumulative IPC: 0.812463 (Simulation time: 0 hr 4 min 3 sec) 
Heartbeat CPU 0 instructions: 170000001 cycles: 139957035 heartbeat IPC: 0.806673 cumulative IPC: 0.811631 (Simulation time: 0 hr 4 min 21 sec) 
Heartbeat CPU 0 instructions: 180000000 cycles: 152320935 heartbeat IPC: 0.808806 cumulative IPC: 0.811277 (Simulation time: 0 hr 4 min 39 sec) 
Heartbeat CPU 0 instructions: 190000001 cycles: 164573644 heartbeat IPC: 0.816146 cumulative IPC: 0.811815 (Simulation time: 0 hr 4 min 58 sec) 
Heartbeat CPU 0 instructions: 200000000 cycles: 176779284 heartbeat IPC: 0.819293 cumulative IPC: 0.812557 (Simulation time: 0 hr 5 min 16 sec) 
Heartbeat CPU 0 instructions: 210000000 cycles: 189030779 heartbeat IPC: 0.816227 cumulative IPC: 0.812889 (Simulation time: 0 hr 5 min 34 sec) 
Heartbeat CPU 0 instructions: 220000000 cycles: 201367558 heartbeat IPC: 0.810584 cumulative IPC: 0.812696 (Simulation time: 0 hr 5 min 52 sec) 
Heartbeat CPU 0 instructions: 230000000 cycles: 213707841 heartbeat IPC: 0.810354 cumulative IPC: 0.812516 (Simulation time: 0 hr 6 min 10 sec) 
Heartbeat CPU 0 instructions: 240000000 cycles: 226105920 heartbeat IPC: 0.806577 cumulative IPC: 0.812089 (Simulation time: 0 hr 6 min 29 sec) 
*** Reached end of trace for Core: 0 Repeating trace: /mnt/beegfs/pchatz06/traces/526.blender_r.refrate.input1.region_11.w_0.15739.trace.gz
Heartbeat CPU 0 instructions: 250000000 cycles: 238458666 heartbeat IPC: 0.809537 cumulative IPC: 0.811918 (Simulation time: 0 hr 6 min 47 sec) 
Finished CPU 0 instructions: 150000001 cycles: 184747736 cumulative IPC: 0.811918 (Simulation time: 0 hr 6 min 47 sec) 

CPU 0 Branch Prediction Accuracy: 93.8237% MPKI: 9.99285
Number of Branches: 24268838 Number of Mispredictions: 1498928
Number of LOAD Instructions: 78276293
Number of LOAD Instructions (ROI): 78276293
Number of STORE Instructions: 12189640
Number of STORE Instructions (ROI): 12189640
Total Destination Memory Operands: 12255326
Total Destination Memory Operands (ROI): 12255326
Total Source Memory Operands: 78276293
Total Source Memory Operands (ROI): 78276293
Number of DEPENDED LOADS: 1945270
Number of DEPENDED LOADS (ROI): 1945270
Number of SQ_ADDED: 12255326
Number of SQ_ADDED (ROI): 12255326
Number of LQ_ADDED: 78676660
Number of LQ_ADDED (ROI): 78676660
Number of Instructions read from trace: 250000009

ChampSim completed all CPUs

Region of Interest Statistics

CPU 0 cumulative IPC: 0.811918 instructions: 150000001 cycles: 184747736
ITLB TOTAL     ACCESS:   22725630  HIT:   22725630  MISS:          0
ITLB LOAD      ACCESS:   22725630  HIT:   22725630  MISS:          0
ITLB RFO       ACCESS:          0  HIT:          0  MISS:          0
ITLB PREFETCH  ACCESS:          0  HIT:          0  MISS:          0
ITLB WRITEBACK ACCESS:          0  HIT:          0  MISS:          0
ITLB PREFETCH  REQUESTED:          0  ISSUED:          0  USEFUL:          0  USELESS:          0
ITLB TOTAL MSHR MERGED:          0
ITLB LOAD MSHR MERGED:          0
ITLB RFO MSHR MERGED:          0
ITLB PREFETCH MSHR MERGED:          0
ITLB WRITEBACK MSHR MERGED:          0
ITLB TOTAL ACCESSES:   22725630 HITS:   22725630 MISSES:          0
ITLB LOAD ACCESSES:   22725630 HITS:   22725630 MISSES:          0
ITLB RFO ACCESSES:          0 HITS:          0 MISSES:          0
ITLB PREFETCH ACCESSES:          0 HITS:          0 MISSES:          0
ITLB WRITEBACK ACCESSES:          0 HITS:          0 MISSES:          0
ITLB RQ ACCESS:  149999959
ITLB RQ TO_CACHE:   22725630
ITLB RQ MERGED:  127274329
ITLB RQ FORWARD:          0
ITLB WQ ACCESS:          0
ITLB WQ TO_CACHE:          0
ITLB WQ MERGED:          0
ITLB WQ FORWARD:          0
DTLB TOTAL     ACCESS:   25735320  HIT:   25625626  MISS:     109694
DTLB LOAD      ACCESS:   19869247  HIT:   19760412  MISS:     108835
DTLB RFO       ACCESS:    5866073  HIT:    5865214  MISS:        859
DTLB PREFETCH  ACCESS:          0  HIT:          0  MISS:          0
DTLB WRITEBACK ACCESS:          0  HIT:          0  MISS:          0
DTLB PREFETCH  REQUESTED:          0  ISSUED:          0  USEFUL:          0  USELESS:          0
DTLB TOTAL MSHR MERGED:      16298
DTLB LOAD MSHR MERGED:      15519
DTLB RFO MSHR MERGED:        779
DTLB PREFETCH MSHR MERGED:          0
DTLB WRITEBACK MSHR MERGED:          0
DTLB TOTAL ACCESSES:   25751618 HITS:   25625626 MISSES:     125992
DTLB LOAD ACCESSES:   19884766 HITS:   19760412 MISSES:     124354
DTLB RFO ACCESSES:    5866852 HITS:    5865214 MISSES:       1638
DTLB PREFETCH ACCESSES:          0 HITS:          0 MISSES:          0
DTLB WRITEBACK ACCESSES:          0 HITS:          0 MISSES:          0
DTLB RQ ACCESS:   53140332
DTLB RQ TO_CACHE:   25751618
DTLB RQ MERGED:   27388714
DTLB RQ FORWARD:          0
DTLB WQ ACCESS:          0
DTLB WQ TO_CACHE:          0
DTLB WQ MERGED:          0
DTLB WQ FORWARD:          0
L1D TOTAL     ACCESS:   42358558  HIT:   41429752  MISS:     928806
L1D LOAD      ACCESS:   19033332  HIT:   18548048  MISS:     485284
L1D RFO       ACCESS:    7307891  HIT:    7280553  MISS:      27338
L1D PREFETCH  ACCESS:   16017335  HIT:   15601151  MISS:     416184
L1D WRITEBACK ACCESS:          0  HIT:          0  MISS:          0
L1D PREFETCH  REQUESTED:   19069605  ISSUED:   18883000  USEFUL:     109752  USELESS:     306422
L1D TOTAL MSHR MERGED:     154037
L1D LOAD MSHR MERGED:      43269
L1D RFO MSHR MERGED:      39170
L1D PREFETCH MSHR MERGED:      71598
L1D WRITEBACK MSHR MERGED:          0
L1D TOTAL ACCESSES:   42526077 HITS:   41443234 MISSES:    1082843
L1D LOAD ACCESSES:   19069609 HITS:   18548052 MISSES:     521557
L1D RFO ACCESSES:    7346882 HITS:    7280553 MISSES:      66329
L1D PREFETCH ACCESSES:   16109586 HITS:   15614629 MISSES:     494957
L1D WRITEBACK ACCESSES:          0 HITS:          0 MISSES:          0
L1D RQ ACCESS:   45791285
L1D RQ TO_CACHE:   19069605
L1D RQ MERGED:   26721676
L1D RQ FORWARD:          0
L1D WQ ACCESS:    7349051
L1D WQ TO_CACHE:    7346882
L1D WQ MERGED:       2169
L1D WQ FORWARD:      13482
L1I TOTAL     ACCESS:   28266490  HIT:   28200759  MISS:      65731
L1I LOAD      ACCESS:   28266490  HIT:   28200759  MISS:      65731
L1I RFO       ACCESS:          0  HIT:          0  MISS:          0
L1I PREFETCH  ACCESS:          0  HIT:          0  MISS:          0
L1I WRITEBACK ACCESS:          0  HIT:          0  MISS:          0
L1I PREFETCH  REQUESTED:          0  ISSUED:          0  USEFUL:          0  USELESS:          0
L1I TOTAL MSHR MERGED:      51190
L1I LOAD MSHR MERGED:      51190
L1I RFO MSHR MERGED:          0
L1I PREFETCH MSHR MERGED:          0
L1I WRITEBACK MSHR MERGED:          0
L1I TOTAL ACCESSES:   28317680 HITS:   28200759 MISSES:     116921
L1I LOAD ACCESSES:   28317680 HITS:   28200759 MISSES:     116921
L1I RFO ACCESSES:          0 HITS:          0 MISSES:          0
L1I PREFETCH ACCESSES:          0 HITS:          0 MISSES:          0
L1I WRITEBACK ACCESSES:          0 HITS:          0 MISSES:          0
L1I RQ ACCESS:  149999959
L1I RQ TO_CACHE:   28317680
L1I RQ MERGED:  121682279
L1I RQ FORWARD:          0
L1I WQ ACCESS:          0
L1I WQ TO_CACHE:          0
L1I WQ MERGED:          0
L1I WQ FORWARD:          0
L2C TOTAL     ACCESS:    1040059  HIT:     842216  MISS:     197843
L2C LOAD      ACCESS:     544018  HIT:     428658  MISS:     115360
L2C RFO       ACCESS:      27070  HIT:      23833  MISS:       3237
L2C PREFETCH  ACCESS:     431181  HIT:     352281  MISS:      78900
L2C WRITEBACK ACCESS:      37790  HIT:      37444  MISS:        346
L2C PREFETCH  REQUESTED:       8114  ISSUED:       8114  USEFUL:       3038  USELESS:      75896
L2C TOTAL MSHR MERGED:         47
L2C LOAD MSHR MERGED:          8
L2C RFO MSHR MERGED:          0
L2C PREFETCH MSHR MERGED:         39
L2C WRITEBACK MSHR MERGED:          0
L2C TOTAL ACCESSES:    1040198 HITS:     842308 MISSES:     197890
L2C LOAD ACCESSES:     544019 HITS:     428659 MISSES:     115360
L2C RFO ACCESSES:      27159 HITS:      23922 MISSES:       3237
L2C PREFETCH ACCESSES:     431230 HITS:     352283 MISSES:      78947
L2C WRITEBACK ACCESSES:      37790 HITS:      37444 MISSES:        346
L2C RQ ACCESS:     571178
L2C RQ TO_CACHE:     571088
L2C RQ MERGED:          0
L2C RQ FORWARD:          0
L2C WQ ACCESS:      37790
L2C WQ TO_CACHE:      37790
L2C WQ MERGED:          0
L2C WQ FORWARD:         92
LLC TOTAL     ACCESS:     202300  HIT:     195654  MISS:       6646
LLC LOAD      ACCESS:     115352  HIT:     111644  MISS:       3708
LLC RFO       ACCESS:       3234  HIT:       3226  MISS:          8
LLC PREFETCH  ACCESS:      78908  HIT:      75982  MISS:       2926
LLC WRITEBACK ACCESS:       4806  HIT:       4802  MISS:          4
LLC PREFETCH  REQUESTED:          0  ISSUED:          0  USEFUL:       1245  USELESS:        436
LLC TOTAL MSHR MERGED:          0
LLC LOAD MSHR MERGED:          0
LLC RFO MSHR MERGED:          0
LLC PREFETCH MSHR MERGED:          0
LLC WRITEBACK MSHR MERGED:          0
LLC TOTAL ACCESSES:     202303 HITS:     195657 MISSES:       6646
LLC LOAD ACCESSES:     115352 HITS:     111644 MISSES:       3708
LLC RFO ACCESSES:       3237 HITS:       3229 MISSES:          8
LLC PREFETCH ACCESSES:      78908 HITS:      75982 MISSES:       2926
LLC WRITEBACK ACCESSES:       4806 HITS:       4802 MISSES:          4
LLC 0 RQ ACCESS:     118589
LLC 0 RQ TO_CACHE:     118586
LLC 0 RQ MERGED:          0
LLC 0 RQ FORWARD:          0
LLC WQ ACCESS:       4806
LLC WQ TO_CACHE:       4806
LLC WQ MERGED:          0
LLC WQ FORWARD:          3
Major fault: 0 Minor fault: 1291
CPU 0 L1D next line prefetcher final stats
CPU 0 L2C PC-based stride prefetcher final stats

DRAM Statistics
 CHANNEL 0
 RQ ROW_BUFFER_HIT:       1110  ROW_BUFFER_MISS:       5532
 DBUS_CONGESTED:       2524
 WQ ROW_BUFFER_HIT:          0  ROW_BUFFER_MISS:          0  FULL:          0

 AVG_CONGESTED_CYCLE: 12
LOADS RETIRED: 46994184
INSTR RETIRED: 150000000
