
*** ChampSim Multicore Out-of-Order Simulator ***

Warmup Instructions: 100000000
Simulation Instructions: 150000000
Number of CPUs: 1
LLC sets: 2048
LLC ways: 16
Clean RRIP Policies: 0 Dirty RRIP Policies: 0 PSEL Width: 10 Track Set: 4294967295 PSEL Mask: 15 Demote Mask: 0DS Algo: 0Window size: 64
Off-chip DRAM Size: 4096 MB Channels: 1 Width: 64-bit Data Rate: 1600 MT/s

CPU 0 runs /mnt/beegfs/pchatz06/traces/526.blender_r.train.input1.region_8.w_0.08597.trace.gz
NOT SORTED
TRACE STRING: /mnt/beegfs/pchatz06/traces/526.blender_r.train.input1.region_8.w_0.08597.trace.gz
SORTED
TRACE STRING: /mnt/beegfs/pchatz06/traces/526.blender_r.train.input1.region_8.w_0.08597.trace.gz
INITIAL
TRACE STRING: /mnt/beegfs/pchatz06/traces/526.blender_r.train.input1.region_8.w_0.08597.trace.gz

champsim_seed used: 269

CPU 0 L1D next line prefetcher
CPU 0 L2C IP-based stride prefetcher
Heartbeat CPU 0 instructions: 10000003 cycles: 5579933 heartbeat IPC: 1.79214 cumulative IPC: 1.79214 (Simulation time: 0 hr 0 min 13 sec) 
Heartbeat CPU 0 instructions: 20000000 cycles: 11177000 heartbeat IPC: 1.78665 cumulative IPC: 1.78939 (Simulation time: 0 hr 0 min 25 sec) 
Heartbeat CPU 0 instructions: 30000000 cycles: 16796217 heartbeat IPC: 1.77961 cumulative IPC: 1.78612 (Simulation time: 0 hr 0 min 38 sec) 
Heartbeat CPU 0 instructions: 40000000 cycles: 22394160 heartbeat IPC: 1.78637 cumulative IPC: 1.78618 (Simulation time: 0 hr 0 min 50 sec) 
Heartbeat CPU 0 instructions: 50000001 cycles: 27992644 heartbeat IPC: 1.7862 cumulative IPC: 1.78618 (Simulation time: 0 hr 1 min 3 sec) 
Heartbeat CPU 0 instructions: 60000000 cycles: 33575260 heartbeat IPC: 1.79127 cumulative IPC: 1.78703 (Simulation time: 0 hr 1 min 15 sec) 
Heartbeat CPU 0 instructions: 70000001 cycles: 39169445 heartbeat IPC: 1.78757 cumulative IPC: 1.78711 (Simulation time: 0 hr 1 min 28 sec) 
Heartbeat CPU 0 instructions: 80000000 cycles: 44746272 heartbeat IPC: 1.79313 cumulative IPC: 1.78786 (Simulation time: 0 hr 1 min 41 sec) 
Heartbeat CPU 0 instructions: 90000002 cycles: 50334370 heartbeat IPC: 1.78952 cumulative IPC: 1.78804 (Simulation time: 0 hr 1 min 53 sec) 
Heartbeat CPU 0 instructions: 100000000 cycles: 55907156 heartbeat IPC: 1.79443 cumulative IPC: 1.78868 (Simulation time: 0 hr 2 min 6 sec) 

Warmup complete CPU 0 instructions: 100000002 cycles: 55907157 (Simulation time: 0 hr 2 min 6 sec) 

Heartbeat CPU 0 instructions: 110000001 cycles: 68498255 heartbeat IPC: 0.794212 cumulative IPC: 0.794212 (Simulation time: 0 hr 2 min 23 sec) 
Heartbeat CPU 0 instructions: 120000000 cycles: 81102568 heartbeat IPC: 0.793379 cumulative IPC: 0.793795 (Simulation time: 0 hr 2 min 40 sec) 
Heartbeat CPU 0 instructions: 130000001 cycles: 93640683 heartbeat IPC: 0.797568 cumulative IPC: 0.795049 (Simulation time: 0 hr 2 min 57 sec) 
Heartbeat CPU 0 instructions: 140000000 cycles: 106170400 heartbeat IPC: 0.798103 cumulative IPC: 0.79581 (Simulation time: 0 hr 3 min 14 sec) 
Heartbeat CPU 0 instructions: 150000000 cycles: 118665465 heartbeat IPC: 0.800316 cumulative IPC: 0.796707 (Simulation time: 0 hr 3 min 32 sec) 
Heartbeat CPU 0 instructions: 160000000 cycles: 131151931 heartbeat IPC: 0.800867 cumulative IPC: 0.797398 (Simulation time: 0 hr 3 min 49 sec) 
Heartbeat CPU 0 instructions: 170000000 cycles: 143697755 heartbeat IPC: 0.797078 cumulative IPC: 0.797352 (Simulation time: 0 hr 4 min 6 sec) 
Heartbeat CPU 0 instructions: 180000000 cycles: 156199992 heartbeat IPC: 0.799857 cumulative IPC: 0.797664 (Simulation time: 0 hr 4 min 23 sec) 
Heartbeat CPU 0 instructions: 190000000 cycles: 168850186 heartbeat IPC: 0.790502 cumulative IPC: 0.796862 (Simulation time: 0 hr 4 min 40 sec) 
Heartbeat CPU 0 instructions: 200000000 cycles: 181490270 heartbeat IPC: 0.791134 cumulative IPC: 0.796285 (Simulation time: 0 hr 4 min 57 sec) 
Heartbeat CPU 0 instructions: 210000002 cycles: 194052196 heartbeat IPC: 0.796056 cumulative IPC: 0.796265 (Simulation time: 0 hr 5 min 14 sec) 
Heartbeat CPU 0 instructions: 220000000 cycles: 206512640 heartbeat IPC: 0.802539 cumulative IPC: 0.796784 (Simulation time: 0 hr 5 min 31 sec) 
Heartbeat CPU 0 instructions: 230000002 cycles: 219036181 heartbeat IPC: 0.798496 cumulative IPC: 0.796915 (Simulation time: 0 hr 5 min 48 sec) 
Heartbeat CPU 0 instructions: 240000000 cycles: 231576939 heartbeat IPC: 0.7974 cumulative IPC: 0.79695 (Simulation time: 0 hr 6 min 6 sec) 
*** Reached end of trace for Core: 0 Repeating trace: /mnt/beegfs/pchatz06/traces/526.blender_r.train.input1.region_8.w_0.08597.trace.gz
Heartbeat CPU 0 instructions: 250000003 cycles: 243962443 heartbeat IPC: 0.807396 cumulative IPC: 0.797638 (Simulation time: 0 hr 6 min 23 sec) 
Finished CPU 0 instructions: 150000001 cycles: 188055286 cumulative IPC: 0.797638 (Simulation time: 0 hr 6 min 23 sec) 

CPU 0 Branch Prediction Accuracy: 93.41% MPKI: 10.9602
Number of Branches: 24947275 Number of Mispredictions: 1644028
Number of LOAD Instructions: 80589919
Number of LOAD Instructions (ROI): 80589919
Number of STORE Instructions: 11130350
Number of STORE Instructions (ROI): 11130350
Total Destination Memory Operands: 11207430
Total Destination Memory Operands (ROI): 11207430
Total Source Memory Operands: 80589919
Total Source Memory Operands (ROI): 80589919
Number of DEPENDED LOADS: 1639843
Number of DEPENDED LOADS (ROI): 1639843
Number of SQ_ADDED: 11207430
Number of SQ_ADDED (ROI): 11207430
Number of LQ_ADDED: 81059208
Number of LQ_ADDED (ROI): 81059208
Number of Instructions read from trace: 250000049

ChampSim completed all CPUs

Region of Interest Statistics

CPU 0 cumulative IPC: 0.797638 instructions: 150000001 cycles: 188055286
ITLB TOTAL     ACCESS:   22458094  HIT:   22458094  MISS:          0
ITLB LOAD      ACCESS:   22458094  HIT:   22458094  MISS:          0
ITLB RFO       ACCESS:          0  HIT:          0  MISS:          0
ITLB PREFETCH  ACCESS:          0  HIT:          0  MISS:          0
ITLB WRITEBACK ACCESS:          0  HIT:          0  MISS:          0
ITLB PREFETCH  REQUESTED:          0  ISSUED:          0  USEFUL:          0  USELESS:          0
ITLB TOTAL MSHR MERGED:          0
ITLB LOAD MSHR MERGED:          0
ITLB RFO MSHR MERGED:          0
ITLB PREFETCH MSHR MERGED:          0
ITLB WRITEBACK MSHR MERGED:          0
ITLB TOTAL ACCESSES:   22458094 HITS:   22458094 MISSES:          0
ITLB LOAD ACCESSES:   22458094 HITS:   22458094 MISSES:          0
ITLB RFO ACCESSES:          0 HITS:          0 MISSES:          0
ITLB PREFETCH ACCESSES:          0 HITS:          0 MISSES:          0
ITLB WRITEBACK ACCESSES:          0 HITS:          0 MISSES:          0
ITLB RQ ACCESS:  149999974
ITLB RQ TO_CACHE:   22458094
ITLB RQ MERGED:  127541880
ITLB RQ FORWARD:          0
ITLB WQ ACCESS:          0
ITLB WQ TO_CACHE:          0
ITLB WQ MERGED:          0
ITLB WQ FORWARD:          0
DTLB TOTAL     ACCESS:   25662669  HIT:   25549000  MISS:     113669
DTLB LOAD      ACCESS:   20239613  HIT:   20126678  MISS:     112935
DTLB RFO       ACCESS:    5423056  HIT:    5422322  MISS:        734
DTLB PREFETCH  ACCESS:          0  HIT:          0  MISS:          0
DTLB WRITEBACK ACCESS:          0  HIT:          0  MISS:          0
DTLB PREFETCH  REQUESTED:          0  ISSUED:          0  USEFUL:          0  USELESS:          0
DTLB TOTAL MSHR MERGED:      14868
DTLB LOAD MSHR MERGED:      14128
DTLB RFO MSHR MERGED:        740
DTLB PREFETCH MSHR MERGED:          0
DTLB WRITEBACK MSHR MERGED:          0
DTLB TOTAL ACCESSES:   25677537 HITS:   25549000 MISSES:     128537
DTLB LOAD ACCESSES:   20253741 HITS:   20126678 MISSES:     127063
DTLB RFO ACCESSES:    5423796 HITS:    5422322 MISSES:       1474
DTLB PREFETCH ACCESSES:          0 HITS:          0 MISSES:          0
DTLB WRITEBACK ACCESSES:          0 HITS:          0 MISSES:          0
DTLB RQ ACCESS:   54131859
DTLB RQ TO_CACHE:   25677537
DTLB RQ MERGED:   28454322
DTLB RQ FORWARD:          0
DTLB WQ ACCESS:          0
DTLB WQ TO_CACHE:          0
DTLB WQ MERGED:          0
DTLB WQ FORWARD:          0
L1D TOTAL     ACCESS:   41105958  HIT:   40054182  MISS:    1051776
L1D LOAD      ACCESS:   18814178  HIT:   18248861  MISS:     565317
L1D RFO       ACCESS:    6676732  HIT:    6657825  MISS:      18907
L1D PREFETCH  ACCESS:   15615048  HIT:   15147496  MISS:     467552
L1D WRITEBACK ACCESS:          0  HIT:          0  MISS:          0
L1D PREFETCH  REQUESTED:   18862519  ISSUED:   18645573  USEFUL:     129919  USELESS:     337635
L1D TOTAL MSHR MERGED:     179513
L1D LOAD MSHR MERGED:      57045
L1D RFO MSHR MERGED:      28695
L1D PREFETCH MSHR MERGED:      93773
L1D WRITEBACK MSHR MERGED:          0
L1D TOTAL ACCESSES:   41289021 HITS:   40057730 MISSES:    1231291
L1D LOAD ACCESSES:   18862521 HITS:   18248863 MISSES:     613658
L1D RFO ACCESSES:    6705242 HITS:    6657825 MISSES:      47417
L1D PREFETCH ACCESSES:   15721258 HITS:   15151042 MISSES:     570216
L1D WRITEBACK ACCESSES:          0 HITS:          0 MISSES:          0
L1D RQ ACCESS:   47425778
L1D RQ TO_CACHE:   18862519
L1D RQ MERGED:   28563257
L1D RQ FORWARD:          0
L1D WQ ACCESS:    6706083
L1D WQ TO_CACHE:    6705242
L1D WQ MERGED:        841
L1D WQ FORWARD:       3548
L1I TOTAL     ACCESS:   27986034  HIT:   27945556  MISS:      40478
L1I LOAD      ACCESS:   27986034  HIT:   27945556  MISS:      40478
L1I RFO       ACCESS:          0  HIT:          0  MISS:          0
L1I PREFETCH  ACCESS:          0  HIT:          0  MISS:          0
L1I WRITEBACK ACCESS:          0  HIT:          0  MISS:          0
L1I PREFETCH  REQUESTED:          0  ISSUED:          0  USEFUL:          0  USELESS:          0
L1I TOTAL MSHR MERGED:      27920
L1I LOAD MSHR MERGED:      27920
L1I RFO MSHR MERGED:          0
L1I PREFETCH MSHR MERGED:          0
L1I WRITEBACK MSHR MERGED:          0
L1I TOTAL ACCESSES:   28013954 HITS:   27945556 MISSES:      68398
L1I LOAD ACCESSES:   28013954 HITS:   27945556 MISSES:      68398
L1I RFO ACCESSES:          0 HITS:          0 MISSES:          0
L1I PREFETCH ACCESSES:          0 HITS:          0 MISSES:          0
L1I WRITEBACK ACCESSES:          0 HITS:          0 MISSES:          0
L1I RQ ACCESS:  149999978
L1I RQ TO_CACHE:   28013954
L1I RQ MERGED:  121986024
L1I RQ FORWARD:          0
L1I WQ ACCESS:          0
L1I WQ TO_CACHE:          0
L1I WQ MERGED:          0
L1I WQ FORWARD:          0
L2C TOTAL     ACCESS:    1124967  HIT:     854087  MISS:     270880
L2C LOAD      ACCESS:     597087  HIT:     440626  MISS:     156461
L2C RFO       ACCESS:      18714  HIT:      12417  MISS:       6297
L2C PREFETCH  ACCESS:     481016  HIT:     373544  MISS:     107472
L2C WRITEBACK ACCESS:      28150  HIT:      27500  MISS:        650
L2C PREFETCH  REQUESTED:       4792  ISSUED:       4792  USEFUL:       7580  USELESS:      99915
L2C TOTAL MSHR MERGED:          7
L2C LOAD MSHR MERGED:          1
L2C RFO MSHR MERGED:          0
L2C PREFETCH MSHR MERGED:          6
L2C WRITEBACK MSHR MERGED:          0
L2C TOTAL ACCESSES:    1125165 HITS:     854270 MISSES:     270895
L2C LOAD ACCESSES:     597090 HITS:     440629 MISSES:     156461
L2C RFO ACCESSES:      18722 HITS:      12425 MISSES:       6297
L2C PREFETCH ACCESSES:     481203 HITS:     373716 MISSES:     107487
L2C WRITEBACK ACCESSES:      28150 HITS:      27500 MISSES:        650
L2C RQ ACCESS:     615813
L2C RQ TO_CACHE:     615802
L2C RQ MERGED:          0
L2C RQ FORWARD:          0
L2C WQ ACCESS:      28150
L2C WQ TO_CACHE:      28150
L2C WQ MERGED:          0
L2C WQ FORWARD:        183
LLC TOTAL     ACCESS:     279269  HIT:     271634  MISS:       7635
LLC LOAD      ACCESS:     156460  HIT:     152218  MISS:       4242
LLC RFO       ACCESS:       6297  HIT:       6295  MISS:          2
LLC PREFETCH  ACCESS:     107481  HIT:     104092  MISS:       3389
LLC WRITEBACK ACCESS:       9031  HIT:       9029  MISS:          2
LLC PREFETCH  REQUESTED:          0  ISSUED:          0  USEFUL:       1325  USELESS:        402
LLC TOTAL MSHR MERGED:          0
LLC LOAD MSHR MERGED:          0
LLC RFO MSHR MERGED:          0
LLC PREFETCH MSHR MERGED:          0
LLC WRITEBACK MSHR MERGED:          0
LLC TOTAL ACCESSES:     279269 HITS:     271634 MISSES:       7635
LLC LOAD ACCESSES:     156460 HITS:     152218 MISSES:       4242
LLC RFO ACCESSES:       6297 HITS:       6295 MISSES:          2
LLC PREFETCH ACCESSES:     107481 HITS:     104092 MISSES:       3389
LLC WRITEBACK ACCESSES:       9031 HITS:       9029 MISSES:          2
LLC 0 RQ ACCESS:     162757
LLC 0 RQ TO_CACHE:     162757
LLC 0 RQ MERGED:          0
LLC 0 RQ FORWARD:          0
LLC WQ ACCESS:       9031
LLC WQ TO_CACHE:       9031
LLC WQ MERGED:          0
LLC WQ FORWARD:          0
Major fault: 0 Minor fault: 1447
CPU 0 L1D next line prefetcher final stats
CPU 0 L2C PC-based stride prefetcher final stats

DRAM Statistics
 CHANNEL 0
 RQ ROW_BUFFER_HIT:       2003  ROW_BUFFER_MISS:       5630
 DBUS_CONGESTED:       2960
 WQ ROW_BUFFER_HIT:          0  ROW_BUFFER_MISS:          0  FULL:          0

 AVG_CONGESTED_CYCLE: 12
LOADS RETIRED: 48428461
INSTR RETIRED: 150000000
