
*** ChampSim Multicore Out-of-Order Simulator ***

Warmup Instructions: 100000000
Simulation Instructions: 150000000
Number of CPUs: 1
LLC sets: 2048
LLC ways: 16
Clean RRIP Policies: 0 Dirty RRIP Policies: 0 PSEL Width: 10 Track Set: 4294967295 PSEL Mask: 15 Demote Mask: 0DS Algo: 0Window size: 64
Off-chip DRAM Size: 4096 MB Channels: 1 Width: 64-bit Data Rate: 1600 MT/s

CPU 0 runs /mnt/beegfs/pchatz06/traces/526.blender_r.refrate.input1.region_8.w_0.06795.trace.gz
NOT SORTED
TRACE STRING: /mnt/beegfs/pchatz06/traces/526.blender_r.refrate.input1.region_8.w_0.06795.trace.gz
SORTED
TRACE STRING: /mnt/beegfs/pchatz06/traces/526.blender_r.refrate.input1.region_8.w_0.06795.trace.gz
INITIAL
TRACE STRING: /mnt/beegfs/pchatz06/traces/526.blender_r.refrate.input1.region_8.w_0.06795.trace.gz

champsim_seed used: 267

CPU 0 L1D next line prefetcher
CPU 0 L2C IP-based stride prefetcher
Heartbeat CPU 0 instructions: 10000001 cycles: 5416107 heartbeat IPC: 1.84634 cumulative IPC: 1.84634 (Simulation time: 0 hr 0 min 13 sec) 
Heartbeat CPU 0 instructions: 20000000 cycles: 10775794 heartbeat IPC: 1.86578 cumulative IPC: 1.85601 (Simulation time: 0 hr 0 min 26 sec) 
Heartbeat CPU 0 instructions: 30000000 cycles: 16293127 heartbeat IPC: 1.81247 cumulative IPC: 1.84127 (Simulation time: 0 hr 0 min 39 sec) 
Heartbeat CPU 0 instructions: 40000000 cycles: 21855600 heartbeat IPC: 1.79776 cumulative IPC: 1.83019 (Simulation time: 0 hr 0 min 53 sec) 
Heartbeat CPU 0 instructions: 50000001 cycles: 27437719 heartbeat IPC: 1.79143 cumulative IPC: 1.82231 (Simulation time: 0 hr 1 min 6 sec) 
Heartbeat CPU 0 instructions: 60000000 cycles: 32922257 heartbeat IPC: 1.82331 cumulative IPC: 1.82248 (Simulation time: 0 hr 1 min 19 sec) 
Heartbeat CPU 0 instructions: 70000000 cycles: 38311862 heartbeat IPC: 1.85542 cumulative IPC: 1.82711 (Simulation time: 0 hr 1 min 32 sec) 
Heartbeat CPU 0 instructions: 80000000 cycles: 43696748 heartbeat IPC: 1.85705 cumulative IPC: 1.8308 (Simulation time: 0 hr 1 min 45 sec) 
Heartbeat CPU 0 instructions: 90000001 cycles: 49104993 heartbeat IPC: 1.84903 cumulative IPC: 1.83281 (Simulation time: 0 hr 1 min 58 sec) 
Heartbeat CPU 0 instructions: 100000000 cycles: 54477747 heartbeat IPC: 1.86124 cumulative IPC: 1.83561 (Simulation time: 0 hr 2 min 12 sec) 

Warmup complete CPU 0 instructions: 100000001 cycles: 54477748 (Simulation time: 0 hr 2 min 12 sec) 

Heartbeat CPU 0 instructions: 110000003 cycles: 67202756 heartbeat IPC: 0.785854 cumulative IPC: 0.785854 (Simulation time: 0 hr 2 min 30 sec) 
Heartbeat CPU 0 instructions: 120000000 cycles: 82001232 heartbeat IPC: 0.675745 cumulative IPC: 0.726652 (Simulation time: 0 hr 2 min 49 sec) 
Heartbeat CPU 0 instructions: 130000003 cycles: 96203687 heartbeat IPC: 0.704104 cumulative IPC: 0.718977 (Simulation time: 0 hr 3 min 8 sec) 
Heartbeat CPU 0 instructions: 140000000 cycles: 108875749 heartbeat IPC: 0.789137 cumulative IPC: 0.735321 (Simulation time: 0 hr 3 min 26 sec) 
Heartbeat CPU 0 instructions: 150000002 cycles: 122917662 heartbeat IPC: 0.712154 cumulative IPC: 0.730568 (Simulation time: 0 hr 3 min 45 sec) 
Heartbeat CPU 0 instructions: 160000000 cycles: 136200201 heartbeat IPC: 0.752868 cumulative IPC: 0.734192 (Simulation time: 0 hr 4 min 3 sec) 
Heartbeat CPU 0 instructions: 170000000 cycles: 148015160 heartbeat IPC: 0.846385 cumulative IPC: 0.748364 (Simulation time: 0 hr 4 min 21 sec) 
Heartbeat CPU 0 instructions: 180000000 cycles: 159836257 heartbeat IPC: 0.845945 cumulative IPC: 0.759312 (Simulation time: 0 hr 4 min 38 sec) 
Heartbeat CPU 0 instructions: 190000000 cycles: 171665524 heartbeat IPC: 0.845361 cumulative IPC: 0.767998 (Simulation time: 0 hr 4 min 56 sec) 
Heartbeat CPU 0 instructions: 200000000 cycles: 185673655 heartbeat IPC: 0.713871 cumulative IPC: 0.762219 (Simulation time: 0 hr 5 min 15 sec) 
Heartbeat CPU 0 instructions: 210000000 cycles: 200184234 heartbeat IPC: 0.689152 cumulative IPC: 0.754942 (Simulation time: 0 hr 5 min 34 sec) 
Heartbeat CPU 0 instructions: 220000000 cycles: 213930597 heartbeat IPC: 0.727465 cumulative IPC: 0.752574 (Simulation time: 0 hr 5 min 52 sec) 
Heartbeat CPU 0 instructions: 230000000 cycles: 226860578 heartbeat IPC: 0.773396 cumulative IPC: 0.754135 (Simulation time: 0 hr 6 min 10 sec) 
Heartbeat CPU 0 instructions: 240000000 cycles: 240372779 heartbeat IPC: 0.740072 cumulative IPC: 0.753113 (Simulation time: 0 hr 6 min 29 sec) 
*** Reached end of trace for Core: 0 Repeating trace: /mnt/beegfs/pchatz06/traces/526.blender_r.refrate.input1.region_8.w_0.06795.trace.gz
Heartbeat CPU 0 instructions: 250000002 cycles: 254565443 heartbeat IPC: 0.704589 cumulative IPC: 0.749671 (Simulation time: 0 hr 6 min 48 sec) 
Finished CPU 0 instructions: 150000001 cycles: 200087695 cumulative IPC: 0.749671 (Simulation time: 0 hr 6 min 48 sec) 

CPU 0 Branch Prediction Accuracy: 93.8267% MPKI: 9.78774
Number of Branches: 23782485 Number of Mispredictions: 1468161
Number of LOAD Instructions: 78644485
Number of LOAD Instructions (ROI): 78644485
Number of STORE Instructions: 13148132
Number of STORE Instructions (ROI): 13148132
Total Destination Memory Operands: 13212812
Total Destination Memory Operands (ROI): 13212812
Total Source Memory Operands: 78644485
Total Source Memory Operands (ROI): 78644485
Number of DEPENDED LOADS: 1883993
Number of DEPENDED LOADS (ROI): 1883993
Number of SQ_ADDED: 13212800
Number of SQ_ADDED (ROI): 13212800
Number of LQ_ADDED: 78795205
Number of LQ_ADDED (ROI): 78795205
Number of Instructions read from trace: 250000254

ChampSim completed all CPUs

Region of Interest Statistics

CPU 0 cumulative IPC: 0.749671 instructions: 150000001 cycles: 200087695
ITLB TOTAL     ACCESS:   23368134  HIT:   23368134  MISS:          0
ITLB LOAD      ACCESS:   23368134  HIT:   23368134  MISS:          0
ITLB RFO       ACCESS:          0  HIT:          0  MISS:          0
ITLB PREFETCH  ACCESS:          0  HIT:          0  MISS:          0
ITLB WRITEBACK ACCESS:          0  HIT:          0  MISS:          0
ITLB PREFETCH  REQUESTED:          0  ISSUED:          0  USEFUL:          0  USELESS:          0
ITLB TOTAL MSHR MERGED:          0
ITLB LOAD MSHR MERGED:          0
ITLB RFO MSHR MERGED:          0
ITLB PREFETCH MSHR MERGED:          0
ITLB WRITEBACK MSHR MERGED:          0
ITLB TOTAL ACCESSES:   23368134 HITS:   23368134 MISSES:          0
ITLB LOAD ACCESSES:   23368134 HITS:   23368134 MISSES:          0
ITLB RFO ACCESSES:          0 HITS:          0 MISSES:          0
ITLB PREFETCH ACCESSES:          0 HITS:          0 MISSES:          0
ITLB WRITEBACK ACCESSES:          0 HITS:          0 MISSES:          0
ITLB RQ ACCESS:  150000154
ITLB RQ TO_CACHE:   23368134
ITLB RQ MERGED:  126632020
ITLB RQ FORWARD:          0
ITLB WQ ACCESS:          0
ITLB WQ TO_CACHE:          0
ITLB WQ MERGED:          0
ITLB WQ FORWARD:          0
DTLB TOTAL     ACCESS:   27594494  HIT:   27443220  MISS:     151274
DTLB LOAD      ACCESS:   21107378  HIT:   20957302  MISS:     150076
DTLB RFO       ACCESS:    6487116  HIT:    6485918  MISS:       1198
DTLB PREFETCH  ACCESS:          0  HIT:          0  MISS:          0
DTLB WRITEBACK ACCESS:          0  HIT:          0  MISS:          0
DTLB PREFETCH  REQUESTED:          0  ISSUED:          0  USEFUL:          0  USELESS:          0
DTLB TOTAL MSHR MERGED:      70546
DTLB LOAD MSHR MERGED:      69991
DTLB RFO MSHR MERGED:        555
DTLB PREFETCH MSHR MERGED:          0
DTLB WRITEBACK MSHR MERGED:          0
DTLB TOTAL ACCESSES:   27665040 HITS:   27443220 MISSES:     221820
DTLB LOAD ACCESSES:   21177369 HITS:   20957302 MISSES:     220067
DTLB RFO ACCESSES:    6487671 HITS:    6485918 MISSES:       1753
DTLB PREFETCH ACCESSES:          0 HITS:          0 MISSES:          0
DTLB WRITEBACK ACCESSES:          0 HITS:          0 MISSES:          0
DTLB RQ ACCESS:   54108350
DTLB RQ TO_CACHE:   27665040
DTLB RQ MERGED:   26443310
DTLB RQ FORWARD:          0
DTLB WQ ACCESS:          0
DTLB WQ TO_CACHE:          0
DTLB WQ MERGED:          0
DTLB WQ FORWARD:          0
L1D TOTAL     ACCESS:   45886836  HIT:   44810091  MISS:    1076745
L1D LOAD      ACCESS:   20340090  HIT:   19772608  MISS:     567482
L1D RFO       ACCESS:    8108932  HIT:    8086319  MISS:      22613
L1D PREFETCH  ACCESS:   17437814  HIT:   16951164  MISS:     486650
L1D WRITEBACK ACCESS:          0  HIT:          0  MISS:          0
L1D PREFETCH  REQUESTED:   20409497  ISSUED:   20057238  USEFUL:     162642  USELESS:     323983
L1D TOTAL MSHR MERGED:     273030
L1D LOAD MSHR MERGED:      85363
L1D RFO MSHR MERGED:      40973
L1D PREFETCH MSHR MERGED:     146694
L1D WRITEBACK MSHR MERGED:          0
L1D TOTAL ACCESSES:   46171494 HITS:   44821715 MISSES:    1349779
L1D LOAD ACCESSES:   20409499 HITS:   19772610 MISSES:     636889
L1D RFO ACCESSES:    8149842 HITS:    8086319 MISSES:      63523
L1D PREFETCH ACCESSES:   17612153 HITS:   16962786 MISSES:     649367
L1D WRITEBACK ACCESSES:          0 HITS:          0 MISSES:          0
L1D RQ ACCESS:   45956813
L1D RQ TO_CACHE:   20409497
L1D RQ MERGED:   25547314
L1D RQ FORWARD:          0
L1D WQ ACCESS:    8151532
L1D WQ TO_CACHE:    8149842
L1D WQ MERGED:       1690
L1D WQ FORWARD:      11624
L1I TOTAL     ACCESS:   29137360  HIT:   29089923  MISS:      47437
L1I LOAD      ACCESS:   29137360  HIT:   29089923  MISS:      47437
L1I RFO       ACCESS:          0  HIT:          0  MISS:          0
L1I PREFETCH  ACCESS:          0  HIT:          0  MISS:          0
L1I WRITEBACK ACCESS:          0  HIT:          0  MISS:          0
L1I PREFETCH  REQUESTED:          0  ISSUED:          0  USEFUL:          0  USELESS:          0
L1I TOTAL MSHR MERGED:      34780
L1I LOAD MSHR MERGED:      34780
L1I RFO MSHR MERGED:          0
L1I PREFETCH MSHR MERGED:          0
L1I WRITEBACK MSHR MERGED:          0
L1I TOTAL ACCESSES:   29172147 HITS:   29089923 MISSES:      82224
L1I LOAD ACCESSES:   29172147 HITS:   29089923 MISSES:      82224
L1I RFO ACCESSES:          0 HITS:          0 MISSES:          0
L1I PREFETCH ACCESSES:          0 HITS:          0 MISSES:          0
L1I WRITEBACK ACCESSES:          0 HITS:          0 MISSES:          0
L1I RQ ACCESS:  150000158
L1I RQ TO_CACHE:   29172147
L1I RQ MERGED:  120828011
L1I RQ FORWARD:          0
L1I WQ ACCESS:          0
L1I WQ TO_CACHE:          0
L1I WQ MERGED:          0
L1I WQ FORWARD:          0
L2C TOTAL     ACCESS:    1199188  HIT:     726494  MISS:     472694
L2C LOAD      ACCESS:     598958  HIT:     355368  MISS:     243590
L2C RFO       ACCESS:      22547  HIT:      15281  MISS:       7266
L2C PREFETCH  ACCESS:     541735  HIT:     320441  MISS:     221294
L2C WRITEBACK ACCESS:      35948  HIT:      35404  MISS:        544
L2C PREFETCH  REQUESTED:      40340  ISSUED:      40340  USEFUL:      13170  USELESS:     207886
L2C TOTAL MSHR MERGED:         86
L2C LOAD MSHR MERGED:         13
L2C RFO MSHR MERGED:          0
L2C PREFETCH MSHR MERGED:         73
L2C WRITEBACK MSHR MERGED:          0
L2C TOTAL ACCESSES:    1199308 HITS:     726502 MISSES:     472806
L2C LOAD ACCESSES:     598967 HITS:     355371 MISSES:     243596
L2C RFO ACCESSES:      22550 HITS:      15284 MISSES:       7266
L2C PREFETCH ACCESSES:     541843 HITS:     320443 MISSES:     221400
L2C WRITEBACK ACCESSES:      35948 HITS:      35404 MISSES:        544
L2C RQ ACCESS:     621520
L2C RQ TO_CACHE:     621514
L2C RQ MERGED:          0
L2C RQ FORWARD:          0
L2C WQ ACCESS:      35948
L2C WQ TO_CACHE:      35948
L2C WQ MERGED:          0
L2C WQ FORWARD:          8
LLC TOTAL     ACCESS:     482425  HIT:     427926  MISS:      54499
LLC LOAD      ACCESS:     243577  HIT:     215385  MISS:      28192
LLC RFO       ACCESS:       7266  HIT:       7254  MISS:         12
LLC PREFETCH  ACCESS:     221324  HIT:     195036  MISS:      26288
LLC WRITEBACK ACCESS:      10258  HIT:      10251  MISS:          7
LLC PREFETCH  REQUESTED:          0  ISSUED:          0  USEFUL:       4819  USELESS:      22435
LLC TOTAL MSHR MERGED:          0
LLC LOAD MSHR MERGED:          0
LLC RFO MSHR MERGED:          0
LLC PREFETCH MSHR MERGED:          0
LLC WRITEBACK MSHR MERGED:          0
LLC TOTAL ACCESSES:     482427 HITS:     427928 MISSES:      54499
LLC LOAD ACCESSES:     243578 HITS:     215386 MISSES:      28192
LLC RFO ACCESSES:       7266 HITS:       7254 MISSES:         12
LLC PREFETCH ACCESSES:     221325 HITS:     195037 MISSES:      26288
LLC WRITEBACK ACCESSES:      10258 HITS:      10251 MISSES:          7
LLC 0 RQ ACCESS:     250849
LLC 0 RQ TO_CACHE:     250849
LLC 0 RQ MERGED:          0
LLC 0 RQ FORWARD:          0
LLC WQ ACCESS:      10258
LLC WQ TO_CACHE:      10258
LLC WQ MERGED:          0
LLC WQ FORWARD:          1
Major fault: 0 Minor fault: 2593
CPU 0 L1D next line prefetcher final stats
CPU 0 L2C PC-based stride prefetcher final stats

DRAM Statistics
 CHANNEL 0
 RQ ROW_BUFFER_HIT:      19581  ROW_BUFFER_MISS:      34879
 DBUS_CONGESTED:      21331
 WQ ROW_BUFFER_HIT:         36  ROW_BUFFER_MISS:         58  FULL:          0

 AVG_CONGESTED_CYCLE: 12
LOADS RETIRED: 47168349
INSTR RETIRED: 150000000
