
*** ChampSim Multicore Out-of-Order Simulator ***

Warmup Instructions: 100000000
Simulation Instructions: 150000000
Number of CPUs: 1
LLC sets: 2048
LLC ways: 16
Clean RRIP Policies: 0 Dirty RRIP Policies: 0 PSEL Width: 10 Track Set: 4294967295 PSEL Mask: 15 Demote Mask: 0DS Algo: 0Window size: 64
Off-chip DRAM Size: 4096 MB Channels: 1 Width: 64-bit Data Rate: 1600 MT/s

CPU 0 runs /mnt/beegfs/pchatz06/traces/527.cam4_r.train.input1.region_17.w_0.03053.trace.gz
NOT SORTED
TRACE STRING: /mnt/beegfs/pchatz06/traces/527.cam4_r.train.input1.region_17.w_0.03053.trace.gz
SORTED
TRACE STRING: /mnt/beegfs/pchatz06/traces/527.cam4_r.train.input1.region_17.w_0.03053.trace.gz
INITIAL
TRACE STRING: /mnt/beegfs/pchatz06/traces/527.cam4_r.train.input1.region_17.w_0.03053.trace.gz

champsim_seed used: 251

CPU 0 L1D next line prefetcher
CPU 0 L2C IP-based stride prefetcher
Heartbeat CPU 0 instructions: 10000002 cycles: 4214176 heartbeat IPC: 2.37294 cumulative IPC: 2.37294 (Simulation time: 0 hr 0 min 11 sec) 
Heartbeat CPU 0 instructions: 20000000 cycles: 8345514 heartbeat IPC: 2.42052 cumulative IPC: 2.3965 (Simulation time: 0 hr 0 min 21 sec) 
Heartbeat CPU 0 instructions: 30000001 cycles: 12548912 heartbeat IPC: 2.37903 cumulative IPC: 2.39065 (Simulation time: 0 hr 0 min 32 sec) 
Heartbeat CPU 0 instructions: 40000000 cycles: 16683230 heartbeat IPC: 2.41878 cumulative IPC: 2.39762 (Simulation time: 0 hr 0 min 42 sec) 
Heartbeat CPU 0 instructions: 50000001 cycles: 20834449 heartbeat IPC: 2.40893 cumulative IPC: 2.39987 (Simulation time: 0 hr 0 min 52 sec) 
Heartbeat CPU 0 instructions: 60000000 cycles: 27192334 heartbeat IPC: 1.57285 cumulative IPC: 2.2065 (Simulation time: 0 hr 1 min 11 sec) 
Heartbeat CPU 0 instructions: 70000003 cycles: 31684294 heartbeat IPC: 2.2262 cumulative IPC: 2.2093 (Simulation time: 0 hr 1 min 28 sec) 
Heartbeat CPU 0 instructions: 80000000 cycles: 36179155 heartbeat IPC: 2.22476 cumulative IPC: 2.21122 (Simulation time: 0 hr 1 min 44 sec) 
Heartbeat CPU 0 instructions: 90000002 cycles: 40674009 heartbeat IPC: 2.22477 cumulative IPC: 2.21272 (Simulation time: 0 hr 2 min 1 sec) 
Heartbeat CPU 0 instructions: 100000000 cycles: 45162288 heartbeat IPC: 2.22802 cumulative IPC: 2.21424 (Simulation time: 0 hr 2 min 18 sec) 

Warmup complete CPU 0 instructions: 100000002 cycles: 45162294 (Simulation time: 0 hr 2 min 18 sec) 

Heartbeat CPU 0 instructions: 110000000 cycles: 57621968 heartbeat IPC: 0.802589 cumulative IPC: 0.802589 (Simulation time: 0 hr 2 min 42 sec) 
Heartbeat CPU 0 instructions: 120000000 cycles: 70082540 heartbeat IPC: 0.802531 cumulative IPC: 0.80256 (Simulation time: 0 hr 3 min 6 sec) 
Heartbeat CPU 0 instructions: 130000000 cycles: 82522811 heartbeat IPC: 0.803841 cumulative IPC: 0.802987 (Simulation time: 0 hr 3 min 29 sec) 
Heartbeat CPU 0 instructions: 140000000 cycles: 94938314 heartbeat IPC: 0.805445 cumulative IPC: 0.8036 (Simulation time: 0 hr 3 min 53 sec) 
Heartbeat CPU 0 instructions: 150000000 cycles: 107353367 heartbeat IPC: 0.805474 cumulative IPC: 0.803974 (Simulation time: 0 hr 4 min 17 sec) 
Heartbeat CPU 0 instructions: 160000000 cycles: 119797776 heartbeat IPC: 0.803574 cumulative IPC: 0.803907 (Simulation time: 0 hr 4 min 41 sec) 
Heartbeat CPU 0 instructions: 170000000 cycles: 132220210 heartbeat IPC: 0.804995 cumulative IPC: 0.804062 (Simulation time: 0 hr 5 min 5 sec) 
Heartbeat CPU 0 instructions: 180000000 cycles: 159214023 heartbeat IPC: 0.370455 cumulative IPC: 0.701436 (Simulation time: 0 hr 5 min 37 sec) 
Heartbeat CPU 0 instructions: 190000000 cycles: 171539907 heartbeat IPC: 0.811301 cumulative IPC: 0.712151 (Simulation time: 0 hr 6 min 0 sec) 
Heartbeat CPU 0 instructions: 200000000 cycles: 185672754 heartbeat IPC: 0.707572 cumulative IPC: 0.711691 (Simulation time: 0 hr 6 min 24 sec) 
Heartbeat CPU 0 instructions: 210000000 cycles: 197943715 heartbeat IPC: 0.814932 cumulative IPC: 0.719983 (Simulation time: 0 hr 6 min 47 sec) 
Heartbeat CPU 0 instructions: 220000000 cycles: 208248988 heartbeat IPC: 0.970377 cumulative IPC: 0.735805 (Simulation time: 0 hr 7 min 8 sec) 
Heartbeat CPU 0 instructions: 230000002 cycles: 218688941 heartbeat IPC: 0.957859 cumulative IPC: 0.749164 (Simulation time: 0 hr 7 min 30 sec) 
Heartbeat CPU 0 instructions: 240000000 cycles: 229142014 heartbeat IPC: 0.956656 cumulative IPC: 0.760953 (Simulation time: 0 hr 7 min 51 sec) 
*** Reached end of trace for Core: 0 Repeating trace: /mnt/beegfs/pchatz06/traces/527.cam4_r.train.input1.region_17.w_0.03053.trace.gz
Heartbeat CPU 0 instructions: 250000002 cycles: 239269544 heartbeat IPC: 0.987408 cumulative IPC: 0.772769 (Simulation time: 0 hr 8 min 12 sec) 
Finished CPU 0 instructions: 150000000 cycles: 194107250 cumulative IPC: 0.772769 (Simulation time: 0 hr 8 min 12 sec) 

CPU 0 Branch Prediction Accuracy: 99.2321% MPKI: 0.50366
Number of Branches: 9838728 Number of Mispredictions: 75549
Number of LOAD Instructions: 58864980
Number of LOAD Instructions (ROI): 58864980
Number of STORE Instructions: 25817613
Number of STORE Instructions (ROI): 25817613
Total Destination Memory Operands: 29216022
Total Destination Memory Operands (ROI): 29216022
Total Source Memory Operands: 58864980
Total Source Memory Operands (ROI): 58864980
Number of DEPENDED LOADS: 4887922
Number of DEPENDED LOADS (ROI): 4887922
Number of SQ_ADDED: 29216019
Number of SQ_ADDED (ROI): 29216019
Number of LQ_ADDED: 67620005
Number of LQ_ADDED (ROI): 67620005
Number of Instructions read from trace: 250000050

ChampSim completed all CPUs

Region of Interest Statistics

CPU 0 cumulative IPC: 0.772769 instructions: 150000000 cycles: 194107250
ITLB TOTAL     ACCESS:   39251227  HIT:   39251215  MISS:         12
ITLB LOAD      ACCESS:   39251227  HIT:   39251215  MISS:         12
ITLB RFO       ACCESS:          0  HIT:          0  MISS:          0
ITLB PREFETCH  ACCESS:          0  HIT:          0  MISS:          0
ITLB WRITEBACK ACCESS:          0  HIT:          0  MISS:          0
ITLB PREFETCH  REQUESTED:          0  ISSUED:          0  USEFUL:          0  USELESS:          0
ITLB TOTAL MSHR MERGED:         29
ITLB LOAD MSHR MERGED:         29
ITLB RFO MSHR MERGED:          0
ITLB PREFETCH MSHR MERGED:          0
ITLB WRITEBACK MSHR MERGED:          0
ITLB TOTAL ACCESSES:   39251256 HITS:   39251215 MISSES:         41
ITLB LOAD ACCESSES:   39251256 HITS:   39251215 MISSES:         41
ITLB RFO ACCESSES:          0 HITS:          0 MISSES:          0
ITLB PREFETCH ACCESSES:          0 HITS:          0 MISSES:          0
ITLB WRITEBACK ACCESSES:          0 HITS:          0 MISSES:          0
ITLB RQ ACCESS:  149999794
ITLB RQ TO_CACHE:   39251256
ITLB RQ MERGED:  110748538
ITLB RQ FORWARD:          0
ITLB WQ ACCESS:          0
ITLB WQ TO_CACHE:          0
ITLB WQ MERGED:          0
ITLB WQ FORWARD:          0
DTLB TOTAL     ACCESS:   35551462  HIT:   35515752  MISS:      35710
DTLB LOAD      ACCESS:   22404457  HIT:   22381841  MISS:      22616
DTLB RFO       ACCESS:   13147005  HIT:   13133911  MISS:      13094
DTLB PREFETCH  ACCESS:          0  HIT:          0  MISS:          0
DTLB WRITEBACK ACCESS:          0  HIT:          0  MISS:          0
DTLB PREFETCH  REQUESTED:          0  ISSUED:          0  USEFUL:          0  USELESS:          0
DTLB TOTAL MSHR MERGED:      37639
DTLB LOAD MSHR MERGED:      20645
DTLB RFO MSHR MERGED:      16994
DTLB PREFETCH MSHR MERGED:          0
DTLB WRITEBACK MSHR MERGED:          0
DTLB TOTAL ACCESSES:   35589101 HITS:   35515752 MISSES:      73349
DTLB LOAD ACCESSES:   22425102 HITS:   22381841 MISSES:      43261
DTLB RFO ACCESSES:   13163999 HITS:   13133911 MISSES:      30088
DTLB PREFETCH ACCESSES:          0 HITS:          0 MISSES:          0
DTLB WRITEBACK ACCESSES:          0 HITS:          0 MISSES:          0
DTLB RQ ACCESS:   56740566
DTLB RQ TO_CACHE:   35589101
DTLB RQ MERGED:   21151465
DTLB RQ FORWARD:          0
DTLB WQ ACCESS:          0
DTLB WQ TO_CACHE:          0
DTLB WQ MERGED:          0
DTLB WQ FORWARD:          0
L1D TOTAL     ACCESS:   49811767  HIT:   43576381  MISS:    6235386
L1D LOAD      ACCESS:   20786595  HIT:   18906996  MISS:    1879599
L1D RFO       ACCESS:   13487408  HIT:   11255089  MISS:    2232319
L1D PREFETCH  ACCESS:   15537764  HIT:   13414296  MISS:    2123468
L1D WRITEBACK ACCESS:          0  HIT:          0  MISS:          0
L1D PREFETCH  REQUESTED:   21689365  ISSUED:   21499719  USEFUL:    1256578  USELESS:     866914
L1D TOTAL MSHR MERGED:    9951631
L1D LOAD MSHR MERGED:    1514471
L1D RFO MSHR MERGED:    6324083
L1D PREFETCH MSHR MERGED:    2113077
L1D WRITEBACK MSHR MERGED:          0
L1D TOTAL ACCESSES:   59768156 HITS:   43581137 MISSES:   16187019
L1D LOAD ACCESSES:   21693000 HITS:   18910631 MISSES:    2782369
L1D RFO ACCESSES:   19811300 HITS:   11255089 MISSES:    8556211
L1D PREFETCH ACCESSES:   18263856 HITS:   13415417 MISSES:    4848439
L1D WRITEBACK ACCESSES:          0 HITS:          0 MISSES:          0
L1D RQ ACCESS:   36566710
L1D RQ TO_CACHE:   21689365
L1D RQ MERGED:   14873710
L1D RQ FORWARD:          0
L1D WQ ACCESS:   20173862
L1D WQ TO_CACHE:   19811300
L1D WQ MERGED:     362562
L1D WQ FORWARD:       4756
L1I TOTAL     ACCESS:   46970587  HIT:   46970049  MISS:        538
L1I LOAD      ACCESS:   46970587  HIT:   46970049  MISS:        538
L1I RFO       ACCESS:          0  HIT:          0  MISS:          0
L1I PREFETCH  ACCESS:          0  HIT:          0  MISS:          0
L1I WRITEBACK ACCESS:          0  HIT:          0  MISS:          0
L1I PREFETCH  REQUESTED:          0  ISSUED:          0  USEFUL:          0  USELESS:          0
L1I TOTAL MSHR MERGED:       1061
L1I LOAD MSHR MERGED:       1061
L1I RFO MSHR MERGED:          0
L1I PREFETCH MSHR MERGED:          0
L1I WRITEBACK MSHR MERGED:          0
L1I TOTAL ACCESSES:   46971651 HITS:   46970049 MISSES:       1602
L1I LOAD ACCESSES:   46971651 HITS:   46970049 MISSES:       1602
L1I RFO ACCESSES:          0 HITS:          0 MISSES:          0
L1I PREFETCH ACCESSES:          0 HITS:          0 MISSES:          0
L1I WRITEBACK ACCESSES:          0 HITS:          0 MISSES:          0
L1I RQ ACCESS:  149999794
L1I RQ TO_CACHE:   46971651
L1I RQ MERGED:  103028143
L1I RQ FORWARD:          0
L1I WQ ACCESS:          0
L1I WQ TO_CACHE:          0
L1I WQ MERGED:          0
L1I WQ FORWARD:          0
L2C TOTAL     ACCESS:    9149661  HIT:    6979548  MISS:    2170113
L2C LOAD      ACCESS:    1268226  HIT:    1078030  MISS:     190196
L2C RFO       ACCESS:    2228766  HIT:    1400188  MISS:     828578
L2C PREFETCH  ACCESS:    3226054  HIT:    2075002  MISS:    1151052
L2C WRITEBACK ACCESS:    2426615  HIT:    2426328  MISS:        287
L2C PREFETCH  REQUESTED:     576207  ISSUED:     576195  USEFUL:      94289  USELESS:    1056395
L2C TOTAL MSHR MERGED:       3981
L2C LOAD MSHR MERGED:        475
L2C RFO MSHR MERGED:          0
L2C PREFETCH MSHR MERGED:       3506
L2C WRITEBACK MSHR MERGED:          0
L2C TOTAL ACCESSES:    9158511 HITS:    6983237 MISSES:    2175274
L2C LOAD ACCESSES:    1268439 HITS:    1078239 MISSES:     190200
L2C RFO ACCESSES:    2232128 HITS:    1403550 MISSES:     828578
L2C PREFETCH ACCESSES:    3231329 HITS:    2075120 MISSES:    1156209
L2C WRITEBACK ACCESSES:    2426615 HITS:    2426328 MISSES:        287
L2C RQ ACCESS:    3500567
L2C RQ TO_CACHE:    3496996
L2C RQ MERGED:          0
L2C RQ FORWARD:          0
L2C WQ ACCESS:    2426616
L2C WQ TO_CACHE:    2426616
L2C WQ MERGED:          0
L2C WQ FORWARD:       3689
LLC TOTAL     ACCESS:    3141902  HIT:    2142467  MISS:     999435
LLC LOAD      ACCESS:     189720  HIT:     115039  MISS:      74681
LLC RFO       ACCESS:     828508  HIT:     483081  MISS:     345427
LLC PREFETCH  ACCESS:    1152371  HIT:     573178  MISS:     579193
LLC WRITEBACK ACCESS:     971303  HIT:     971169  MISS:        134
LLC PREFETCH  REQUESTED:          0  ISSUED:          0  USEFUL:      74563  USELESS:     493011
LLC TOTAL MSHR MERGED:        219
LLC LOAD MSHR MERGED:         43
LLC RFO MSHR MERGED:          0
LLC PREFETCH MSHR MERGED:        176
LLC WRITEBACK MSHR MERGED:          0
LLC TOTAL ACCESSES:    3142207 HITS:    2142552 MISSES:     999655
LLC LOAD ACCESSES:     189722 HITS:     115040 MISSES:      74682
LLC RFO ACCESSES:     828578 HITS:     483151 MISSES:     345427
LLC PREFETCH ACCESSES:    1152604 HITS:     573192 MISSES:     579412
LLC WRITEBACK ACCESSES:     971303 HITS:     971169 MISSES:        134
LLC 0 RQ ACCESS:    1018303
LLC 0 RQ TO_CACHE:    1018232
LLC 0 RQ MERGED:          0
LLC 0 RQ FORWARD:          0
LLC WQ ACCESS:     971303
LLC WQ TO_CACHE:     971303
LLC WQ MERGED:          0
LLC WQ FORWARD:         85
Major fault: 0 Minor fault: 12202
CPU 0 L1D next line prefetcher final stats
CPU 0 L2C PC-based stride prefetcher final stats

DRAM Statistics
 CHANNEL 0
 RQ ROW_BUFFER_HIT:     621685  ROW_BUFFER_MISS:     377598
 DBUS_CONGESTED:     813072
 WQ ROW_BUFFER_HIT:     198794  ROW_BUFFER_MISS:     313050  FULL:          0

 AVG_CONGESTED_CYCLE: 13
LOADS RETIRED: 39365135
INSTR RETIRED: 150000000
