
*** ChampSim Multicore Out-of-Order Simulator ***

Warmup Instructions: 100000000
Simulation Instructions: 150000000
Number of CPUs: 1
LLC sets: 2048
LLC ways: 16
Clean RRIP Policies: 0 Dirty RRIP Policies: 0 PSEL Width: 10 Track Set: 4294967295 PSEL Mask: 15 Demote Mask: 0DS Algo: 0Window size: 64
Off-chip DRAM Size: 4096 MB Channels: 1 Width: 64-bit Data Rate: 1600 MT/s

CPU 0 runs /mnt/beegfs/pchatz06/traces/527.cam4_r.refrate.input1.region_13.w_0.02873.trace.gz
NOT SORTED
TRACE STRING: /mnt/beegfs/pchatz06/traces/527.cam4_r.refrate.input1.region_13.w_0.02873.trace.gz
SORTED
TRACE STRING: /mnt/beegfs/pchatz06/traces/527.cam4_r.refrate.input1.region_13.w_0.02873.trace.gz
INITIAL
TRACE STRING: /mnt/beegfs/pchatz06/traces/527.cam4_r.refrate.input1.region_13.w_0.02873.trace.gz

champsim_seed used: 260

CPU 0 L1D next line prefetcher
CPU 0 L2C IP-based stride prefetcher
Heartbeat CPU 0 instructions: 10000002 cycles: 3779111 heartbeat IPC: 2.64613 cumulative IPC: 2.64613 (Simulation time: 0 hr 0 min 11 sec) 
Heartbeat CPU 0 instructions: 20000000 cycles: 7527593 heartbeat IPC: 2.66775 cumulative IPC: 2.65689 (Simulation time: 0 hr 0 min 22 sec) 
Heartbeat CPU 0 instructions: 30000000 cycles: 11322527 heartbeat IPC: 2.63509 cumulative IPC: 2.64959 (Simulation time: 0 hr 0 min 33 sec) 
Heartbeat CPU 0 instructions: 40000000 cycles: 15179288 heartbeat IPC: 2.59285 cumulative IPC: 2.63517 (Simulation time: 0 hr 0 min 43 sec) 
Heartbeat CPU 0 instructions: 50000000 cycles: 19092978 heartbeat IPC: 2.55513 cumulative IPC: 2.61876 (Simulation time: 0 hr 0 min 54 sec) 
Heartbeat CPU 0 instructions: 60000000 cycles: 22998173 heartbeat IPC: 2.56069 cumulative IPC: 2.6089 (Simulation time: 0 hr 1 min 4 sec) 
Heartbeat CPU 0 instructions: 70000000 cycles: 26842067 heartbeat IPC: 2.60153 cumulative IPC: 2.60785 (Simulation time: 0 hr 1 min 14 sec) 
Heartbeat CPU 0 instructions: 80000000 cycles: 30606724 heartbeat IPC: 2.65628 cumulative IPC: 2.6138 (Simulation time: 0 hr 1 min 25 sec) 
Heartbeat CPU 0 instructions: 90000000 cycles: 34357673 heartbeat IPC: 2.66599 cumulative IPC: 2.6195 (Simulation time: 0 hr 1 min 36 sec) 
Heartbeat CPU 0 instructions: 100000000 cycles: 38160721 heartbeat IPC: 2.62947 cumulative IPC: 2.6205 (Simulation time: 0 hr 1 min 47 sec) 

Warmup complete CPU 0 instructions: 100000004 cycles: 38160723 (Simulation time: 0 hr 1 min 47 sec) 

Heartbeat CPU 0 instructions: 110000003 cycles: 47388019 heartbeat IPC: 1.08374 cumulative IPC: 1.08374 (Simulation time: 0 hr 2 min 4 sec) 
Heartbeat CPU 0 instructions: 120000000 cycles: 56773537 heartbeat IPC: 1.06547 cumulative IPC: 1.07453 (Simulation time: 0 hr 2 min 22 sec) 
Heartbeat CPU 0 instructions: 130000002 cycles: 66126953 heartbeat IPC: 1.06913 cumulative IPC: 1.07272 (Simulation time: 0 hr 2 min 39 sec) 
Heartbeat CPU 0 instructions: 140000000 cycles: 75235577 heartbeat IPC: 1.09786 cumulative IPC: 1.0789 (Simulation time: 0 hr 2 min 57 sec) 
Heartbeat CPU 0 instructions: 150000000 cycles: 84118346 heartbeat IPC: 1.12578 cumulative IPC: 1.08796 (Simulation time: 0 hr 3 min 15 sec) 
Heartbeat CPU 0 instructions: 160000000 cycles: 92973460 heartbeat IPC: 1.12929 cumulative IPC: 1.09464 (Simulation time: 0 hr 3 min 32 sec) 
Heartbeat CPU 0 instructions: 170000000 cycles: 101964867 heartbeat IPC: 1.11217 cumulative IPC: 1.09711 (Simulation time: 0 hr 3 min 50 sec) 
Heartbeat CPU 0 instructions: 180000000 cycles: 111243538 heartbeat IPC: 1.07774 cumulative IPC: 1.09465 (Simulation time: 0 hr 4 min 8 sec) 
Heartbeat CPU 0 instructions: 190000002 cycles: 120652289 heartbeat IPC: 1.06284 cumulative IPC: 1.09102 (Simulation time: 0 hr 4 min 25 sec) 
Heartbeat CPU 0 instructions: 200000000 cycles: 129973184 heartbeat IPC: 1.07286 cumulative IPC: 1.08918 (Simulation time: 0 hr 4 min 42 sec) 
Heartbeat CPU 0 instructions: 210000002 cycles: 139060607 heartbeat IPC: 1.10042 cumulative IPC: 1.09019 (Simulation time: 0 hr 5 min 0 sec) 
Heartbeat CPU 0 instructions: 220000000 cycles: 147904599 heartbeat IPC: 1.13071 cumulative IPC: 1.09346 (Simulation time: 0 hr 5 min 18 sec) 
Heartbeat CPU 0 instructions: 230000000 cycles: 156782606 heartbeat IPC: 1.12638 cumulative IPC: 1.09592 (Simulation time: 0 hr 5 min 36 sec) 
Heartbeat CPU 0 instructions: 240000000 cycles: 165774207 heartbeat IPC: 1.11215 cumulative IPC: 1.09706 (Simulation time: 0 hr 5 min 53 sec) 
*** Reached end of trace for Core: 0 Repeating trace: /mnt/beegfs/pchatz06/traces/527.cam4_r.refrate.input1.region_13.w_0.02873.trace.gz
Heartbeat CPU 0 instructions: 250000000 cycles: 180236055 heartbeat IPC: 0.691475 cumulative IPC: 1.05578 (Simulation time: 0 hr 6 min 16 sec) 
Finished CPU 0 instructions: 150000000 cycles: 142075334 cumulative IPC: 1.05578 (Simulation time: 0 hr 6 min 16 sec) 

CPU 0 Branch Prediction Accuracy: 98.5425% MPKI: 3.49084
Number of Branches: 35926515 Number of Mispredictions: 523626
Number of LOAD Instructions: 60935619
Number of LOAD Instructions (ROI): 60935619
Number of STORE Instructions: 6532988
Number of STORE Instructions (ROI): 6532988
Total Destination Memory Operands: 6941680
Total Destination Memory Operands (ROI): 6941680
Total Source Memory Operands: 60935619
Total Source Memory Operands (ROI): 60935619
Number of DEPENDED LOADS: 279144
Number of DEPENDED LOADS (ROI): 279144
Number of SQ_ADDED: 6941680
Number of SQ_ADDED (ROI): 6941680
Number of LQ_ADDED: 72495427
Number of LQ_ADDED (ROI): 72495427
Number of Instructions read from trace: 250000256

ChampSim completed all CPUs

Region of Interest Statistics

CPU 0 cumulative IPC: 1.05578 instructions: 150000000 cycles: 142075334
ITLB TOTAL     ACCESS:   29965035  HIT:   29965017  MISS:         18
ITLB LOAD      ACCESS:   29965035  HIT:   29965017  MISS:         18
ITLB RFO       ACCESS:          0  HIT:          0  MISS:          0
ITLB PREFETCH  ACCESS:          0  HIT:          0  MISS:          0
ITLB WRITEBACK ACCESS:          0  HIT:          0  MISS:          0
ITLB PREFETCH  REQUESTED:          0  ISSUED:          0  USEFUL:          0  USELESS:          0
ITLB TOTAL MSHR MERGED:         12
ITLB LOAD MSHR MERGED:         12
ITLB RFO MSHR MERGED:          0
ITLB PREFETCH MSHR MERGED:          0
ITLB WRITEBACK MSHR MERGED:          0
ITLB TOTAL ACCESSES:   29965047 HITS:   29965017 MISSES:         30
ITLB LOAD ACCESSES:   29965047 HITS:   29965017 MISSES:         30
ITLB RFO ACCESSES:          0 HITS:          0 MISSES:          0
ITLB PREFETCH ACCESSES:          0 HITS:          0 MISSES:          0
ITLB WRITEBACK ACCESSES:          0 HITS:          0 MISSES:          0
ITLB RQ ACCESS:  150000185
ITLB RQ TO_CACHE:   29965047
ITLB RQ MERGED:  120035138
ITLB RQ FORWARD:          0
ITLB WQ ACCESS:          0
ITLB WQ TO_CACHE:          0
ITLB WQ MERGED:          0
ITLB WQ FORWARD:          0
DTLB TOTAL     ACCESS:   30259859  HIT:   30235005  MISS:      24854
DTLB LOAD      ACCESS:   26785318  HIT:   26761921  MISS:      23397
DTLB RFO       ACCESS:    3474541  HIT:    3473084  MISS:       1457
DTLB PREFETCH  ACCESS:          0  HIT:          0  MISS:          0
DTLB WRITEBACK ACCESS:          0  HIT:          0  MISS:          0
DTLB PREFETCH  REQUESTED:          0  ISSUED:          0  USEFUL:          0  USELESS:          0
DTLB TOTAL MSHR MERGED:      17646
DTLB LOAD MSHR MERGED:      16718
DTLB RFO MSHR MERGED:        928
DTLB PREFETCH MSHR MERGED:          0
DTLB WRITEBACK MSHR MERGED:          0
DTLB TOTAL ACCESSES:   30277505 HITS:   30235005 MISSES:      42500
DTLB LOAD ACCESSES:   26802036 HITS:   26761921 MISSES:      40115
DTLB RFO ACCESSES:    3475469 HITS:    3473084 MISSES:       2385
DTLB PREFETCH ACCESSES:          0 HITS:          0 MISSES:          0
DTLB WRITEBACK ACCESSES:          0 HITS:          0 MISSES:          0
DTLB RQ ACCESS:   40612660
DTLB RQ TO_CACHE:   30277505
DTLB RQ MERGED:   10335155
DTLB RQ FORWARD:          0
DTLB WQ ACCESS:          0
DTLB WQ TO_CACHE:          0
DTLB WQ MERGED:          0
DTLB WQ FORWARD:          0
L1D TOTAL     ACCESS:   43048192  HIT:   42584107  MISS:     464085
L1D LOAD      ACCESS:   24256978  HIT:   24071178  MISS:     185800
L1D RFO       ACCESS:    4411025  HIT:    4318059  MISS:      92966
L1D PREFETCH  ACCESS:   14380189  HIT:   14194870  MISS:     185319
L1D WRITEBACK ACCESS:          0  HIT:          0  MISS:          0
L1D PREFETCH  REQUESTED:   24598235  ISSUED:   24459205  USEFUL:     167414  USELESS:      17882
L1D TOTAL MSHR MERGED:    1347496
L1D LOAD MSHR MERGED:     497123
L1D RFO MSHR MERGED:      95993
L1D PREFETCH MSHR MERGED:     754380
L1D WRITEBACK MSHR MERGED:          0
L1D TOTAL ACCESSES:   44395792 HITS:   42584209 MISSES:    1811583
L1D LOAD ACCESSES:   24598287 HITS:   24071230 MISSES:     527057
L1D RFO ACCESSES:    4507018 HITS:    4318059 MISSES:     188959
L1D PREFETCH ACCESSES:   15290487 HITS:   14194920 MISSES:    1095567
L1D WRITEBACK ACCESSES:          0 HITS:          0 MISSES:          0
L1D RQ ACCESS:   36105642
L1D RQ TO_CACHE:   24598235
L1D RQ MERGED:   11507355
L1D RQ FORWARD:          0
L1D WQ ACCESS:    4507021
L1D WQ TO_CACHE:    4507018
L1D WQ MERGED:          3
L1D WQ FORWARD:        102
L1I TOTAL     ACCESS:   36915708  HIT:   36915607  MISS:        101
L1I LOAD      ACCESS:   36915708  HIT:   36915607  MISS:        101
L1I RFO       ACCESS:          0  HIT:          0  MISS:          0
L1I PREFETCH  ACCESS:          0  HIT:          0  MISS:          0
L1I WRITEBACK ACCESS:          0  HIT:          0  MISS:          0
L1I PREFETCH  REQUESTED:          0  ISSUED:          0  USEFUL:          0  USELESS:          0
L1I TOTAL MSHR MERGED:         37
L1I LOAD MSHR MERGED:         37
L1I RFO MSHR MERGED:          0
L1I PREFETCH MSHR MERGED:          0
L1I WRITEBACK MSHR MERGED:          0
L1I TOTAL ACCESSES:   36915745 HITS:   36915607 MISSES:        138
L1I LOAD ACCESSES:   36915745 HITS:   36915607 MISSES:        138
L1I RFO ACCESSES:          0 HITS:          0 MISSES:          0
L1I PREFETCH ACCESSES:          0 HITS:          0 MISSES:          0
L1I WRITEBACK ACCESSES:          0 HITS:          0 MISSES:          0
L1I RQ ACCESS:  150000188
L1I RQ TO_CACHE:   36915745
L1I RQ MERGED:  113084443
L1I RQ FORWARD:          0
L1I WQ ACCESS:          0
L1I WQ TO_CACHE:          0
L1I WQ MERGED:          0
L1I WQ FORWARD:          0
L2C TOTAL     ACCESS:     557605  HIT:      93375  MISS:     464230
L2C LOAD      ACCESS:      30034  HIT:          6  MISS:      30028
L2C RFO       ACCESS:      92966  HIT:          0  MISS:      92966
L2C PREFETCH  ACCESS:     341512  HIT:        313  MISS:     341199
L2C WRITEBACK ACCESS:      93093  HIT:      93056  MISS:         37
L2C PREFETCH  REQUESTED:        379  ISSUED:        379  USEFUL:          6  USELESS:     340716
L2C TOTAL MSHR MERGED:         31
L2C LOAD MSHR MERGED:          0
L2C RFO MSHR MERGED:          0
L2C PREFETCH MSHR MERGED:         31
L2C WRITEBACK MSHR MERGED:          0
L2C TOTAL ACCESSES:     557638 HITS:      93375 MISSES:     464263
L2C LOAD ACCESSES:      30035 HITS:          6 MISSES:      30029
L2C RFO ACCESSES:      92966 HITS:          0 MISSES:      92966
L2C PREFETCH ACCESSES:     341544 HITS:        313 MISSES:     341231
L2C WRITEBACK ACCESSES:      93093 HITS:      93056 MISSES:         37
L2C RQ ACCESS:     123001
L2C RQ TO_CACHE:     123001
L2C RQ MERGED:          0
L2C RQ FORWARD:          0
L2C WQ ACCESS:      93093
L2C WQ TO_CACHE:      93093
L2C WQ MERGED:          0
L2C WQ FORWARD:          0
LLC TOTAL     ACCESS:     558153  HIT:      93923  MISS:     464230
LLC LOAD      ACCESS:      30028  HIT:          0  MISS:      30028
LLC RFO       ACCESS:      92966  HIT:          0  MISS:      92966
LLC PREFETCH  ACCESS:     341199  HIT:          0  MISS:     341199
LLC WRITEBACK ACCESS:      93960  HIT:      93923  MISS:         37
LLC PREFETCH  REQUESTED:          0  ISSUED:          0  USEFUL:          0  USELESS:     337722
LLC TOTAL MSHR MERGED:          0
LLC LOAD MSHR MERGED:          0
LLC RFO MSHR MERGED:          0
LLC PREFETCH MSHR MERGED:          0
LLC WRITEBACK MSHR MERGED:          0
LLC TOTAL ACCESSES:     558155 HITS:      93923 MISSES:     464232
LLC LOAD ACCESSES:      30029 HITS:          0 MISSES:      30029
LLC RFO ACCESSES:      92966 HITS:          0 MISSES:      92966
LLC PREFETCH ACCESSES:     341200 HITS:          0 MISSES:     341200
LLC WRITEBACK ACCESSES:      93960 HITS:      93923 MISSES:         37
LLC 0 RQ ACCESS:     122995
LLC 0 RQ TO_CACHE:     122995
LLC 0 RQ MERGED:          0
LLC 0 RQ FORWARD:          0
LLC WQ ACCESS:      93960
LLC WQ TO_CACHE:      93960
LLC WQ MERGED:          0
LLC WQ FORWARD:          0
Major fault: 0 Minor fault: 15941
CPU 0 L1D next line prefetcher final stats
CPU 0 L2C PC-based stride prefetcher final stats

DRAM Statistics
 CHANNEL 0
 RQ ROW_BUFFER_HIT:     334018  ROW_BUFFER_MISS:     130175
 DBUS_CONGESTED:     163714
 WQ ROW_BUFFER_HIT:      19187  ROW_BUFFER_MISS:      81358  FULL:          0

 AVG_CONGESTED_CYCLE: 12
LOADS RETIRED: 36302271
INSTR RETIRED: 150000000
