
*** ChampSim Multicore Out-of-Order Simulator ***

Warmup Instructions: 100000000
Simulation Instructions: 150000000
Number of CPUs: 1
LLC sets: 2048
LLC ways: 16
Clean RRIP Policies: 0 Dirty RRIP Policies: 0 PSEL Width: 10 Track Set: 4294967295 PSEL Mask: 15 Demote Mask: 0DS Algo: 0Window size: 64
Off-chip DRAM Size: 4096 MB Channels: 1 Width: 64-bit Data Rate: 1600 MT/s

CPU 0 runs /mnt/beegfs/pchatz06/traces/527.cam4_r.train.input1.region_18.w_0.02726.trace.gz
NOT SORTED
TRACE STRING: /mnt/beegfs/pchatz06/traces/527.cam4_r.train.input1.region_18.w_0.02726.trace.gz
SORTED
TRACE STRING: /mnt/beegfs/pchatz06/traces/527.cam4_r.train.input1.region_18.w_0.02726.trace.gz
INITIAL
TRACE STRING: /mnt/beegfs/pchatz06/traces/527.cam4_r.train.input1.region_18.w_0.02726.trace.gz

champsim_seed used: 257

CPU 0 L1D next line prefetcher
CPU 0 L2C IP-based stride prefetcher
Heartbeat CPU 0 instructions: 10000001 cycles: 3520616 heartbeat IPC: 2.84041 cumulative IPC: 2.84041 (Simulation time: 0 hr 0 min 17 sec) 
Heartbeat CPU 0 instructions: 20000000 cycles: 7038756 heartbeat IPC: 2.84241 cumulative IPC: 2.84141 (Simulation time: 0 hr 0 min 34 sec) 
Heartbeat CPU 0 instructions: 30000002 cycles: 10553464 heartbeat IPC: 2.84519 cumulative IPC: 2.84267 (Simulation time: 0 hr 0 min 51 sec) 
Heartbeat CPU 0 instructions: 40000000 cycles: 14065667 heartbeat IPC: 2.84722 cumulative IPC: 2.8438 (Simulation time: 0 hr 1 min 8 sec) 
Heartbeat CPU 0 instructions: 50000000 cycles: 17574842 heartbeat IPC: 2.84967 cumulative IPC: 2.84498 (Simulation time: 0 hr 1 min 25 sec) 
Heartbeat CPU 0 instructions: 60000000 cycles: 21081136 heartbeat IPC: 2.85201 cumulative IPC: 2.84615 (Simulation time: 0 hr 1 min 42 sec) 
Heartbeat CPU 0 instructions: 70000003 cycles: 24584652 heartbeat IPC: 2.85428 cumulative IPC: 2.84731 (Simulation time: 0 hr 1 min 59 sec) 
Heartbeat CPU 0 instructions: 80000000 cycles: 28084968 heartbeat IPC: 2.85688 cumulative IPC: 2.8485 (Simulation time: 0 hr 2 min 16 sec) 
Heartbeat CPU 0 instructions: 90000002 cycles: 31582533 heartbeat IPC: 2.85913 cumulative IPC: 2.84968 (Simulation time: 0 hr 2 min 34 sec) 
Heartbeat CPU 0 instructions: 100000000 cycles: 35169515 heartbeat IPC: 2.78786 cumulative IPC: 2.84337 (Simulation time: 0 hr 2 min 51 sec) 

Warmup complete CPU 0 instructions: 100000002 cycles: 35169516 (Simulation time: 0 hr 2 min 51 sec) 

Heartbeat CPU 0 instructions: 110000000 cycles: 44173690 heartbeat IPC: 1.1106 cumulative IPC: 1.1106 (Simulation time: 0 hr 3 min 13 sec) 
Heartbeat CPU 0 instructions: 120000000 cycles: 52552895 heartbeat IPC: 1.19343 cumulative IPC: 1.15052 (Simulation time: 0 hr 3 min 35 sec) 
Heartbeat CPU 0 instructions: 130000001 cycles: 60928813 heartbeat IPC: 1.1939 cumulative IPC: 1.16463 (Simulation time: 0 hr 3 min 56 sec) 
Heartbeat CPU 0 instructions: 140000000 cycles: 69301506 heartbeat IPC: 1.19436 cumulative IPC: 1.17192 (Simulation time: 0 hr 4 min 18 sec) 
Heartbeat CPU 0 instructions: 150000002 cycles: 77671920 heartbeat IPC: 1.19468 cumulative IPC: 1.1764 (Simulation time: 0 hr 4 min 40 sec) 
Heartbeat CPU 0 instructions: 160000000 cycles: 86038925 heartbeat IPC: 1.19517 cumulative IPC: 1.17949 (Simulation time: 0 hr 5 min 1 sec) 
Heartbeat CPU 0 instructions: 170000000 cycles: 94402936 heartbeat IPC: 1.1956 cumulative IPC: 1.18177 (Simulation time: 0 hr 5 min 23 sec) 
Heartbeat CPU 0 instructions: 180000000 cycles: 102763910 heartbeat IPC: 1.19603 cumulative IPC: 1.18353 (Simulation time: 0 hr 5 min 44 sec) 
Heartbeat CPU 0 instructions: 190000000 cycles: 111121911 heartbeat IPC: 1.19646 cumulative IPC: 1.18495 (Simulation time: 0 hr 6 min 6 sec) 
Heartbeat CPU 0 instructions: 200000000 cycles: 119477151 heartbeat IPC: 1.19685 cumulative IPC: 1.18613 (Simulation time: 0 hr 6 min 27 sec) 
Heartbeat CPU 0 instructions: 210000002 cycles: 127828961 heartbeat IPC: 1.19735 cumulative IPC: 1.18714 (Simulation time: 0 hr 6 min 47 sec) 
Heartbeat CPU 0 instructions: 220000000 cycles: 136177965 heartbeat IPC: 1.19775 cumulative IPC: 1.18802 (Simulation time: 0 hr 7 min 8 sec) 
Heartbeat CPU 0 instructions: 230000002 cycles: 144524358 heartbeat IPC: 1.19812 cumulative IPC: 1.18879 (Simulation time: 0 hr 7 min 29 sec) 
Heartbeat CPU 0 instructions: 240000000 cycles: 152867056 heartbeat IPC: 1.19865 cumulative IPC: 1.18949 (Simulation time: 0 hr 7 min 49 sec) 
*** Reached end of trace for Core: 0 Repeating trace: /mnt/beegfs/pchatz06/traces/527.cam4_r.train.input1.region_18.w_0.02726.trace.gz
Heartbeat CPU 0 instructions: 250000000 cycles: 161206839 heartbeat IPC: 1.19907 cumulative IPC: 1.19012 (Simulation time: 0 hr 8 min 9 sec) 
Finished CPU 0 instructions: 150000000 cycles: 126037325 cumulative IPC: 1.19012 (Simulation time: 0 hr 8 min 9 sec) 

CPU 0 Branch Prediction Accuracy: 99.9938% MPKI: 0.0203867
Number of Branches: 49017535 Number of Mispredictions: 3058
Number of LOAD Instructions: 62026920
Number of LOAD Instructions (ROI): 62026920
Number of STORE Instructions: 424151
Number of STORE Instructions (ROI): 424151
Total Destination Memory Operands: 452424
Total Destination Memory Operands (ROI): 452424
Total Source Memory Operands: 62026920
Total Source Memory Operands (ROI): 62026920
Number of DEPENDED LOADS: 74033
Number of DEPENDED LOADS (ROI): 74033
Number of SQ_ADDED: 452424
Number of SQ_ADDED (ROI): 452424
Number of LQ_ADDED: 62881300
Number of LQ_ADDED (ROI): 62881300
Number of Instructions read from trace: 250000003

ChampSim completed all CPUs

Region of Interest Statistics

CPU 0 cumulative IPC: 1.19012 instructions: 150000000 cycles: 126037325
ITLB TOTAL     ACCESS:   50817608  HIT:   50817577  MISS:         31
ITLB LOAD      ACCESS:   50817608  HIT:   50817577  MISS:         31
ITLB RFO       ACCESS:          0  HIT:          0  MISS:          0
ITLB PREFETCH  ACCESS:          0  HIT:          0  MISS:          0
ITLB WRITEBACK ACCESS:          0  HIT:          0  MISS:          0
ITLB PREFETCH  REQUESTED:          0  ISSUED:          0  USEFUL:          0  USELESS:          0
ITLB TOTAL MSHR MERGED:         29
ITLB LOAD MSHR MERGED:         29
ITLB RFO MSHR MERGED:          0
ITLB PREFETCH MSHR MERGED:          0
ITLB WRITEBACK MSHR MERGED:          0
ITLB TOTAL ACCESSES:   50817637 HITS:   50817577 MISSES:         60
ITLB LOAD ACCESSES:   50817637 HITS:   50817577 MISSES:         60
ITLB RFO ACCESSES:          0 HITS:          0 MISSES:          0
ITLB PREFETCH ACCESSES:          0 HITS:          0 MISSES:          0
ITLB WRITEBACK ACCESSES:          0 HITS:          0 MISSES:          0
ITLB RQ ACCESS:  149999768
ITLB RQ TO_CACHE:   50817637
ITLB RQ MERGED:   99182131
ITLB RQ FORWARD:          0
ITLB WQ ACCESS:          0
ITLB WQ TO_CACHE:          0
ITLB WQ MERGED:          0
ITLB WQ FORWARD:          0
DTLB TOTAL     ACCESS:   33868607  HIT:   33867410  MISS:       1197
DTLB LOAD      ACCESS:   33514069  HIT:   33513501  MISS:        568
DTLB RFO       ACCESS:     354538  HIT:     353909  MISS:        629
DTLB PREFETCH  ACCESS:          0  HIT:          0  MISS:          0
DTLB WRITEBACK ACCESS:          0  HIT:          0  MISS:          0
DTLB PREFETCH  REQUESTED:          0  ISSUED:          0  USEFUL:          0  USELESS:          0
DTLB TOTAL MSHR MERGED:       1252
DTLB LOAD MSHR MERGED:        424
DTLB RFO MSHR MERGED:        828
DTLB PREFETCH MSHR MERGED:          0
DTLB WRITEBACK MSHR MERGED:          0
DTLB TOTAL ACCESSES:   33869859 HITS:   33867410 MISSES:       2449
DTLB LOAD ACCESSES:   33514493 HITS:   33513501 MISSES:        992
DTLB RFO ACCESSES:     355366 HITS:     353909 MISSES:       1457
DTLB PREFETCH ACCESSES:          0 HITS:          0 MISSES:          0
DTLB WRITEBACK ACCESSES:          0 HITS:          0 MISSES:          0
DTLB RQ ACCESS:   34183728
DTLB RQ TO_CACHE:   33869859
DTLB RQ MERGED:     313869
DTLB RQ FORWARD:          0
DTLB WQ ACCESS:          0
DTLB WQ TO_CACHE:          0
DTLB WQ MERGED:          0
DTLB WQ FORWARD:          0
L1D TOTAL     ACCESS:   37689351  HIT:   35544778  MISS:    2144573
L1D LOAD      ACCESS:   24650569  HIT:   24586901  MISS:      63668
L1D RFO       ACCESS:     236818  HIT:     195309  MISS:      41509
L1D PREFETCH  ACCESS:   12801964  HIT:   10762568  MISS:    2039396
L1D WRITEBACK ACCESS:          0  HIT:          0  MISS:          0
L1D PREFETCH  REQUESTED:   24684451  ISSUED:   24303050  USEFUL:    2033237  USELESS:       6171
L1D TOTAL MSHR MERGED:     767950
L1D LOAD MSHR MERGED:      42101
L1D RFO MSHR MERGED:     141932
L1D PREFETCH MSHR MERGED:     583917
L1D WRITEBACK MSHR MERGED:          0
L1D TOTAL ACCESSES:   38457302 HITS:   35544779 MISSES:    2912523
L1D LOAD ACCESSES:   24684452 HITS:   24586902 MISSES:      97550
L1D RFO ACCESSES:     378738 HITS:     195309 MISSES:     183429
L1D PREFETCH ACCESSES:   13394112 HITS:   10762568 MISSES:    2631544
L1D WRITEBACK ACCESSES:          0 HITS:          0 MISSES:          0
L1D RQ ACCESS:   33777429
L1D RQ TO_CACHE:   24684451
L1D RQ MERGED:    9092977
L1D RQ FORWARD:          0
L1D WQ ACCESS:     406299
L1D WQ TO_CACHE:     378738
L1D WQ MERGED:      27561
L1D WQ FORWARD:          1
L1I TOTAL     ACCESS:   50975694  HIT:   50975299  MISS:        395
L1I LOAD      ACCESS:   50975694  HIT:   50975299  MISS:        395
L1I RFO       ACCESS:          0  HIT:          0  MISS:          0
L1I PREFETCH  ACCESS:          0  HIT:          0  MISS:          0
L1I WRITEBACK ACCESS:          0  HIT:          0  MISS:          0
L1I PREFETCH  REQUESTED:          0  ISSUED:          0  USEFUL:          0  USELESS:          0
L1I TOTAL MSHR MERGED:        297
L1I LOAD MSHR MERGED:        297
L1I RFO MSHR MERGED:          0
L1I PREFETCH MSHR MERGED:          0
L1I WRITEBACK MSHR MERGED:          0
L1I TOTAL ACCESSES:   50975991 HITS:   50975299 MISSES:        692
L1I LOAD ACCESSES:   50975991 HITS:   50975299 MISSES:        692
L1I RFO ACCESSES:          0 HITS:          0 MISSES:          0
L1I PREFETCH ACCESSES:          0 HITS:          0 MISSES:          0
L1I WRITEBACK ACCESSES:          0 HITS:          0 MISSES:          0
L1I RQ ACCESS:  149999772
L1I RQ TO_CACHE:   50975991
L1I RQ MERGED:   99023781
L1I RQ FORWARD:          0
L1I WQ ACCESS:          0
L1I WQ TO_CACHE:          0
L1I WQ MERGED:          0
L1I WQ FORWARD:          0
L2C TOTAL     ACCESS:    2190218  HIT:    2111483  MISS:      78735
L2C LOAD      ACCESS:      55844  HIT:      41416  MISS:      14428
L2C RFO       ACCESS:      41497  HIT:       1637  MISS:      39860
L2C PREFETCH  ACCESS:    2048325  HIT:    2023885  MISS:      24440
L2C WRITEBACK ACCESS:      44552  HIT:      44545  MISS:          7
L2C PREFETCH  REQUESTED:      32331  ISSUED:      32331  USEFUL:        422  USELESS:      24161
L2C TOTAL MSHR MERGED:       8671
L2C LOAD MSHR MERGED:       1230
L2C RFO MSHR MERGED:          0
L2C PREFETCH MSHR MERGED:       7441
L2C WRITEBACK MSHR MERGED:          0
L2C TOTAL ACCESSES:    2208886 HITS:    2111483 MISSES:      97403
L2C LOAD ACCESSES:      55844 HITS:      41416 MISSES:      14428
L2C RFO ACCESSES:      41497 HITS:       1637 MISSES:      39860
L2C PREFETCH ACCESSES:    2066993 HITS:    2023885 MISSES:      43108
L2C WRITEBACK ACCESSES:      44552 HITS:      44545 MISSES:          7
L2C RQ ACCESS:      97341
L2C RQ TO_CACHE:      97341
L2C RQ MERGED:          0
L2C RQ FORWARD:          0
L2C WQ ACCESS:      44552
L2C WQ TO_CACHE:      44552
L2C WQ MERGED:          0
L2C WQ FORWARD:          0
LLC TOTAL     ACCESS:     123356  HIT:      79501  MISS:      43855
LLC LOAD      ACCESS:      13198  HIT:       2859  MISS:      10339
LLC RFO       ACCESS:      39860  HIT:      15922  MISS:      23938
LLC PREFETCH  ACCESS:      30703  HIT:      21125  MISS:       9578
LLC WRITEBACK ACCESS:      39595  HIT:      39595  MISS:          0
LLC PREFETCH  REQUESTED:          0  ISSUED:          0  USEFUL:       2652  USELESS:       3720
LLC TOTAL MSHR MERGED:       3072
LLC LOAD MSHR MERGED:       1097
LLC RFO MSHR MERGED:          0
LLC PREFETCH MSHR MERGED:       1975
LLC WRITEBACK MSHR MERGED:          0
LLC TOTAL ACCESSES:     126428 HITS:      79501 MISSES:      46927
LLC LOAD ACCESSES:      13198 HITS:       2859 MISSES:      10339
LLC RFO ACCESSES:      39860 HITS:      15922 MISSES:      23938
LLC PREFETCH ACCESSES:      33775 HITS:      21125 MISSES:      12650
LLC WRITEBACK ACCESSES:      39595 HITS:      39595 MISSES:          0
LLC 0 RQ ACCESS:      53058
LLC 0 RQ TO_CACHE:      53058
LLC 0 RQ MERGED:          0
LLC 0 RQ FORWARD:          0
LLC WQ ACCESS:      39595
LLC WQ TO_CACHE:      39595
LLC WQ MERGED:          0
LLC WQ FORWARD:          0
Major fault: 0 Minor fault: 755
CPU 0 L1D next line prefetcher final stats
CPU 0 L2C PC-based stride prefetcher final stats

DRAM Statistics
 CHANNEL 0
 RQ ROW_BUFFER_HIT:      37020  ROW_BUFFER_MISS:       6835
 DBUS_CONGESTED:      35376
 WQ ROW_BUFFER_HIT:       5059  ROW_BUFFER_MISS:       5841  FULL:          0

 AVG_CONGESTED_CYCLE: 13
LOADS RETIRED: 33851424
INSTR RETIRED: 150000000
