
*** ChampSim Multicore Out-of-Order Simulator ***

Warmup Instructions: 100000000
Simulation Instructions: 150000000
Number of CPUs: 1
LLC sets: 2048
LLC ways: 16
Clean RRIP Policies: 0 Dirty RRIP Policies: 0 PSEL Width: 10 Track Set: 4294967295 PSEL Mask: 15 Demote Mask: 0DS Algo: 0Window size: 64
Off-chip DRAM Size: 4096 MB Channels: 1 Width: 64-bit Data Rate: 1600 MT/s

CPU 0 runs /mnt/beegfs/pchatz06/traces/531.deepsjeng_r.train.input1.region_6.w_0.34885.trace.gz
NOT SORTED
TRACE STRING: /mnt/beegfs/pchatz06/traces/531.deepsjeng_r.train.input1.region_6.w_0.34885.trace.gz
SORTED
TRACE STRING: /mnt/beegfs/pchatz06/traces/531.deepsjeng_r.train.input1.region_6.w_0.34885.trace.gz
INITIAL
TRACE STRING: /mnt/beegfs/pchatz06/traces/531.deepsjeng_r.train.input1.region_6.w_0.34885.trace.gz

champsim_seed used: 268

CPU 0 L1D next line prefetcher
CPU 0 L2C IP-based stride prefetcher
Heartbeat CPU 0 instructions: 10000003 cycles: 5239611 heartbeat IPC: 1.90854 cumulative IPC: 1.90854 (Simulation time: 0 hr 0 min 14 sec) 
Heartbeat CPU 0 instructions: 20000000 cycles: 10568323 heartbeat IPC: 1.87663 cumulative IPC: 1.89245 (Simulation time: 0 hr 0 min 27 sec) 
Heartbeat CPU 0 instructions: 30000001 cycles: 15773651 heartbeat IPC: 1.92111 cumulative IPC: 1.90191 (Simulation time: 0 hr 0 min 40 sec) 
Heartbeat CPU 0 instructions: 40000000 cycles: 21033456 heartbeat IPC: 1.90121 cumulative IPC: 1.90173 (Simulation time: 0 hr 0 min 54 sec) 
Heartbeat CPU 0 instructions: 50000002 cycles: 26261507 heartbeat IPC: 1.91276 cumulative IPC: 1.90393 (Simulation time: 0 hr 1 min 8 sec) 
Heartbeat CPU 0 instructions: 60000000 cycles: 31399493 heartbeat IPC: 1.94629 cumulative IPC: 1.91086 (Simulation time: 0 hr 1 min 22 sec) 
Heartbeat CPU 0 instructions: 70000001 cycles: 36593432 heartbeat IPC: 1.92532 cumulative IPC: 1.91291 (Simulation time: 0 hr 1 min 36 sec) 
Heartbeat CPU 0 instructions: 80000000 cycles: 41799983 heartbeat IPC: 1.92066 cumulative IPC: 1.91388 (Simulation time: 0 hr 1 min 49 sec) 
Heartbeat CPU 0 instructions: 90000003 cycles: 47068919 heartbeat IPC: 1.89792 cumulative IPC: 1.91209 (Simulation time: 0 hr 2 min 3 sec) 
Heartbeat CPU 0 instructions: 100000000 cycles: 52269902 heartbeat IPC: 1.92271 cumulative IPC: 1.91315 (Simulation time: 0 hr 2 min 17 sec) 

Warmup complete CPU 0 instructions: 100000001 cycles: 52269904 (Simulation time: 0 hr 2 min 17 sec) 

Heartbeat CPU 0 instructions: 110000001 cycles: 69264420 heartbeat IPC: 0.588425 cumulative IPC: 0.588425 (Simulation time: 0 hr 2 min 39 sec) 
Heartbeat CPU 0 instructions: 120000000 cycles: 86337997 heartbeat IPC: 0.5857 cumulative IPC: 0.58706 (Simulation time: 0 hr 3 min 1 sec) 
Heartbeat CPU 0 instructions: 130000002 cycles: 103209562 heartbeat IPC: 0.592713 cumulative IPC: 0.588932 (Simulation time: 0 hr 3 min 24 sec) 
Heartbeat CPU 0 instructions: 140000000 cycles: 120058678 heartbeat IPC: 0.593503 cumulative IPC: 0.590068 (Simulation time: 0 hr 3 min 46 sec) 
Heartbeat CPU 0 instructions: 150000000 cycles: 136881586 heartbeat IPC: 0.594428 cumulative IPC: 0.590935 (Simulation time: 0 hr 4 min 8 sec) 
Heartbeat CPU 0 instructions: 160000000 cycles: 154016861 heartbeat IPC: 0.583591 cumulative IPC: 0.589698 (Simulation time: 0 hr 4 min 31 sec) 
Heartbeat CPU 0 instructions: 170000000 cycles: 171011530 heartbeat IPC: 0.58842 cumulative IPC: 0.589515 (Simulation time: 0 hr 4 min 54 sec) 
Heartbeat CPU 0 instructions: 180000000 cycles: 188002658 heartbeat IPC: 0.588542 cumulative IPC: 0.589393 (Simulation time: 0 hr 5 min 17 sec) 
Heartbeat CPU 0 instructions: 190000001 cycles: 205110009 heartbeat IPC: 0.584544 cumulative IPC: 0.588851 (Simulation time: 0 hr 5 min 39 sec) 
Heartbeat CPU 0 instructions: 200000000 cycles: 221877603 heartbeat IPC: 0.596388 cumulative IPC: 0.589596 (Simulation time: 0 hr 6 min 2 sec) 
Heartbeat CPU 0 instructions: 210000002 cycles: 238712410 heartbeat IPC: 0.594008 cumulative IPC: 0.589994 (Simulation time: 0 hr 6 min 25 sec) 
Heartbeat CPU 0 instructions: 220000000 cycles: 255923949 heartbeat IPC: 0.581005 cumulative IPC: 0.589235 (Simulation time: 0 hr 6 min 47 sec) 
Heartbeat CPU 0 instructions: 230000002 cycles: 272951015 heartbeat IPC: 0.5873 cumulative IPC: 0.589085 (Simulation time: 0 hr 7 min 9 sec) 
Heartbeat CPU 0 instructions: 240000000 cycles: 290039905 heartbeat IPC: 0.585175 cumulative IPC: 0.588804 (Simulation time: 0 hr 7 min 32 sec) 
*** Reached end of trace for Core: 0 Repeating trace: /mnt/beegfs/pchatz06/traces/531.deepsjeng_r.train.input1.region_6.w_0.34885.trace.gz
Heartbeat CPU 0 instructions: 250000000 cycles: 306945015 heartbeat IPC: 0.591537 cumulative IPC: 0.588986 (Simulation time: 0 hr 7 min 55 sec) 
Finished CPU 0 instructions: 150000003 cycles: 254675112 cumulative IPC: 0.588986 (Simulation time: 0 hr 7 min 55 sec) 

CPU 0 Branch Prediction Accuracy: 92.0481% MPKI: 8.75341
Number of Branches: 16512001 Number of Mispredictions: 1313012
Number of LOAD Instructions: 61042516
Number of LOAD Instructions (ROI): 61042516
Number of STORE Instructions: 26770812
Number of STORE Instructions (ROI): 26770812
Total Destination Memory Operands: 29155373
Total Destination Memory Operands (ROI): 29155373
Total Source Memory Operands: 61042516
Total Source Memory Operands (ROI): 61042516
Number of DEPENDED LOADS: 4459170
Number of DEPENDED LOADS (ROI): 4459170
Number of SQ_ADDED: 29155373
Number of SQ_ADDED (ROI): 29155373
Number of LQ_ADDED: 121706244
Number of LQ_ADDED (ROI): 121706244
Number of Instructions read from trace: 250000007

ChampSim completed all CPUs

Region of Interest Statistics

CPU 0 cumulative IPC: 0.588986 instructions: 150000003 cycles: 254675112
ITLB TOTAL     ACCESS:   28947505  HIT:   28947505  MISS:          0
ITLB LOAD      ACCESS:   28947505  HIT:   28947505  MISS:          0
ITLB RFO       ACCESS:          0  HIT:          0  MISS:          0
ITLB PREFETCH  ACCESS:          0  HIT:          0  MISS:          0
ITLB WRITEBACK ACCESS:          0  HIT:          0  MISS:          0
ITLB PREFETCH  REQUESTED:          0  ISSUED:          0  USEFUL:          0  USELESS:          0
ITLB TOTAL MSHR MERGED:          0
ITLB LOAD MSHR MERGED:          0
ITLB RFO MSHR MERGED:          0
ITLB PREFETCH MSHR MERGED:          0
ITLB WRITEBACK MSHR MERGED:          0
ITLB TOTAL ACCESSES:   28947505 HITS:   28947505 MISSES:          0
ITLB LOAD ACCESSES:   28947505 HITS:   28947505 MISSES:          0
ITLB RFO ACCESSES:          0 HITS:          0 MISSES:          0
ITLB PREFETCH ACCESSES:          0 HITS:          0 MISSES:          0
ITLB WRITEBACK ACCESSES:          0 HITS:          0 MISSES:          0
ITLB RQ ACCESS:  149999932
ITLB RQ TO_CACHE:   28947505
ITLB RQ MERGED:  121052427
ITLB RQ FORWARD:          0
ITLB WQ ACCESS:          0
ITLB WQ TO_CACHE:          0
ITLB WQ MERGED:          0
ITLB WQ FORWARD:          0
DTLB TOTAL     ACCESS:   36670741  HIT:   36637687  MISS:      33054
DTLB LOAD      ACCESS:   23061841  HIT:   23029176  MISS:      32665
DTLB RFO       ACCESS:   13608900  HIT:   13608511  MISS:        389
DTLB PREFETCH  ACCESS:          0  HIT:          0  MISS:          0
DTLB WRITEBACK ACCESS:          0  HIT:          0  MISS:          0
DTLB PREFETCH  REQUESTED:          0  ISSUED:          0  USEFUL:          0  USELESS:          0
DTLB TOTAL MSHR MERGED:       4849
DTLB LOAD MSHR MERGED:       4378
DTLB RFO MSHR MERGED:        471
DTLB PREFETCH MSHR MERGED:          0
DTLB WRITEBACK MSHR MERGED:          0
DTLB TOTAL ACCESSES:   36675590 HITS:   36637687 MISSES:      37903
DTLB LOAD ACCESSES:   23066219 HITS:   23029176 MISSES:      37043
DTLB RFO ACCESSES:   13609371 HITS:   13608511 MISSES:        860
DTLB PREFETCH ACCESSES:          0 HITS:          0 MISSES:          0
DTLB WRITEBACK ACCESSES:          0 HITS:          0 MISSES:          0
DTLB RQ ACCESS:   51568094
DTLB RQ TO_CACHE:   36675590
DTLB RQ MERGED:   14892504
DTLB RQ FORWARD:          0
DTLB WQ ACCESS:          0
DTLB WQ TO_CACHE:          0
DTLB WQ MERGED:          0
DTLB WQ FORWARD:          0
L1D TOTAL     ACCESS:   67115217  HIT:   66755925  MISS:     359292
L1D LOAD      ACCESS:   25830881  HIT:   25693974  MISS:     136907
L1D RFO       ACCESS:   17024950  HIT:   16953430  MISS:      71520
L1D PREFETCH  ACCESS:   24259386  HIT:   24108521  MISS:     150865
L1D WRITEBACK ACCESS:          0  HIT:          0  MISS:          0
L1D PREFETCH  REQUESTED:   25846403  ISSUED:   25481024  USEFUL:      53888  USELESS:      96968
L1D TOTAL MSHR MERGED:     105278
L1D LOAD MSHR MERGED:      17352
L1D RFO MSHR MERGED:      64692
L1D PREFETCH MSHR MERGED:      23234
L1D WRITEBACK MSHR MERGED:          0
L1D TOTAL ACCESSES:   67229399 HITS:   66764829 MISSES:     464570
L1D LOAD ACCESSES:   25846406 HITS:   25693977 MISSES:     152429
L1D RFO ACCESSES:   17089430 HITS:   16953430 MISSES:     136000
L1D PREFETCH ACCESSES:   24293563 HITS:   24117422 MISSES:     176141
L1D WRITEBACK ACCESSES:          0 HITS:          0 MISSES:          0
L1D RQ ACCESS:   34070713
L1D RQ TO_CACHE:   25846403
L1D RQ MERGED:    8224307
L1D RQ FORWARD:          0
L1D WQ ACCESS:   17497383
L1D WQ TO_CACHE:   17089430
L1D WQ MERGED:     407953
L1D WQ FORWARD:       8904
L1I TOTAL     ACCESS:   36681211  HIT:   36612199  MISS:      69012
L1I LOAD      ACCESS:   36681211  HIT:   36612199  MISS:      69012
L1I RFO       ACCESS:          0  HIT:          0  MISS:          0
L1I PREFETCH  ACCESS:          0  HIT:          0  MISS:          0
L1I WRITEBACK ACCESS:          0  HIT:          0  MISS:          0
L1I PREFETCH  REQUESTED:          0  ISSUED:          0  USEFUL:          0  USELESS:          0
L1I TOTAL MSHR MERGED:      51594
L1I LOAD MSHR MERGED:      51594
L1I RFO MSHR MERGED:          0
L1I PREFETCH MSHR MERGED:          0
L1I WRITEBACK MSHR MERGED:          0
L1I TOTAL ACCESSES:   36732805 HITS:   36612199 MISSES:     120606
L1I LOAD ACCESSES:   36732805 HITS:   36612199 MISSES:     120606
L1I RFO ACCESSES:          0 HITS:          0 MISSES:          0
L1I PREFETCH ACCESSES:          0 HITS:          0 MISSES:          0
L1I WRITEBACK ACCESSES:          0 HITS:          0 MISSES:          0
L1I RQ ACCESS:  149999932
L1I RQ TO_CACHE:   36732805
L1I RQ MERGED:  113267127
L1I RQ FORWARD:          0
L1I WQ ACCESS:          0
L1I WQ TO_CACHE:          0
L1I WQ MERGED:          0
L1I WQ FORWARD:          0
L2C TOTAL     ACCESS:     561813  HIT:     482929  MISS:      78884
L2C LOAD      ACCESS:     204088  HIT:     159548  MISS:      44540
L2C RFO       ACCESS:      71301  HIT:      69021  MISS:       2280
L2C PREFETCH  ACCESS:     157221  HIT:     125309  MISS:      31912
L2C WRITEBACK ACCESS:     129203  HIT:     129051  MISS:        152
L2C PREFETCH  REQUESTED:       4385  ISSUED:       4385  USEFUL:       1110  USELESS:      31261
L2C TOTAL MSHR MERGED:          0
L2C LOAD MSHR MERGED:          0
L2C RFO MSHR MERGED:          0
L2C PREFETCH MSHR MERGED:          0
L2C WRITEBACK MSHR MERGED:          0
L2C TOTAL ACCESSES:     561823 HITS:     482939 MISSES:      78884
L2C LOAD ACCESSES:     204089 HITS:     159549 MISSES:      44540
L2C RFO ACCESSES:      71308 HITS:      69028 MISSES:       2280
L2C PREFETCH ACCESSES:     157223 HITS:     125311 MISSES:      31912
L2C WRITEBACK ACCESSES:     129203 HITS:     129051 MISSES:        152
L2C RQ ACCESS:     275397
L2C RQ TO_CACHE:     275389
L2C RQ MERGED:          0
L2C RQ FORWARD:          0
L2C WQ ACCESS:     129203
L2C WQ TO_CACHE:     129203
L2C WQ MERGED:          0
L2C WQ FORWARD:         10
LLC TOTAL     ACCESS:     113291  HIT:      46268  MISS:      67023
LLC LOAD      ACCESS:      44540  HIT:       5432  MISS:      39108
LLC RFO       ACCESS:       2280  HIT:       1979  MISS:        301
LLC PREFETCH  ACCESS:      31912  HIT:       4558  MISS:      27354
LLC WRITEBACK ACCESS:      34559  HIT:      34299  MISS:        260
LLC PREFETCH  REQUESTED:          0  ISSUED:          0  USEFUL:        378  USELESS:      32766
LLC TOTAL MSHR MERGED:          0
LLC LOAD MSHR MERGED:          0
LLC RFO MSHR MERGED:          0
LLC PREFETCH MSHR MERGED:          0
LLC WRITEBACK MSHR MERGED:          0
LLC TOTAL ACCESSES:     113291 HITS:      46268 MISSES:      67023
LLC LOAD ACCESSES:      44540 HITS:       5432 MISSES:      39108
LLC RFO ACCESSES:       2280 HITS:       1979 MISSES:        301
LLC PREFETCH ACCESSES:      31912 HITS:       4558 MISSES:      27354
LLC WRITEBACK ACCESSES:      34559 HITS:      34299 MISSES:        260
LLC 0 RQ ACCESS:      46820
LLC 0 RQ TO_CACHE:      46820
LLC 0 RQ MERGED:          0
LLC 0 RQ FORWARD:          0
LLC WQ ACCESS:      34559
LLC WQ TO_CACHE:      34559
LLC WQ MERGED:          0
LLC WQ FORWARD:          0
Major fault: 0 Minor fault: 39359
CPU 0 L1D next line prefetcher final stats
CPU 0 L2C PC-based stride prefetcher final stats

DRAM Statistics
 CHANNEL 0
 RQ ROW_BUFFER_HIT:      18954  ROW_BUFFER_MISS:      47806
 DBUS_CONGESTED:      57923
 WQ ROW_BUFFER_HIT:       1358  ROW_BUFFER_MISS:      29018  FULL:          0

 AVG_CONGESTED_CYCLE: 13
LOADS RETIRED: 36734405
INSTR RETIRED: 150000000
