
*** ChampSim Multicore Out-of-Order Simulator ***

Warmup Instructions: 100000000
Simulation Instructions: 150000000
Number of CPUs: 1
LLC sets: 2048
LLC ways: 16
Clean RRIP Policies: 0 Dirty RRIP Policies: 0 PSEL Width: 10 Track Set: 4294967295 PSEL Mask: 15 Demote Mask: 0DS Algo: 0Window size: 64
Off-chip DRAM Size: 4096 MB Channels: 1 Width: 64-bit Data Rate: 1600 MT/s

CPU 0 runs /mnt/beegfs/pchatz06/traces/538.imagick_r.train.input1.region_3.w_0.70688.trace.gz
NOT SORTED
TRACE STRING: /mnt/beegfs/pchatz06/traces/538.imagick_r.train.input1.region_3.w_0.70688.trace.gz
SORTED
TRACE STRING: /mnt/beegfs/pchatz06/traces/538.imagick_r.train.input1.region_3.w_0.70688.trace.gz
INITIAL
TRACE STRING: /mnt/beegfs/pchatz06/traces/538.imagick_r.train.input1.region_3.w_0.70688.trace.gz

champsim_seed used: 269

CPU 0 L1D next line prefetcher
CPU 0 L2C IP-based stride prefetcher
Heartbeat CPU 0 instructions: 10000001 cycles: 4697894 heartbeat IPC: 2.12861 cumulative IPC: 2.12861 (Simulation time: 0 hr 0 min 10 sec) 
Heartbeat CPU 0 instructions: 20000000 cycles: 9401250 heartbeat IPC: 2.12614 cumulative IPC: 2.12738 (Simulation time: 0 hr 0 min 20 sec) 
Heartbeat CPU 0 instructions: 30000000 cycles: 14104755 heartbeat IPC: 2.12607 cumulative IPC: 2.12694 (Simulation time: 0 hr 0 min 31 sec) 
Heartbeat CPU 0 instructions: 40000000 cycles: 18803385 heartbeat IPC: 2.12828 cumulative IPC: 2.12728 (Simulation time: 0 hr 0 min 41 sec) 
Heartbeat CPU 0 instructions: 50000001 cycles: 23493234 heartbeat IPC: 2.13227 cumulative IPC: 2.12827 (Simulation time: 0 hr 0 min 51 sec) 
Heartbeat CPU 0 instructions: 60000000 cycles: 28195400 heartbeat IPC: 2.12668 cumulative IPC: 2.12801 (Simulation time: 0 hr 1 min 1 sec) 
Heartbeat CPU 0 instructions: 70000000 cycles: 32898607 heartbeat IPC: 2.12621 cumulative IPC: 2.12775 (Simulation time: 0 hr 1 min 11 sec) 
Heartbeat CPU 0 instructions: 80000000 cycles: 37586661 heartbeat IPC: 2.13308 cumulative IPC: 2.12841 (Simulation time: 0 hr 1 min 21 sec) 
Heartbeat CPU 0 instructions: 90000001 cycles: 42287787 heartbeat IPC: 2.12715 cumulative IPC: 2.12827 (Simulation time: 0 hr 1 min 32 sec) 
Heartbeat CPU 0 instructions: 100000000 cycles: 46987395 heartbeat IPC: 2.12784 cumulative IPC: 2.12823 (Simulation time: 0 hr 1 min 43 sec) 

Warmup complete CPU 0 instructions: 100000001 cycles: 46987396 (Simulation time: 0 hr 1 min 43 sec) 

Heartbeat CPU 0 instructions: 110000000 cycles: 52445148 heartbeat IPC: 1.83226 cumulative IPC: 1.83226 (Simulation time: 0 hr 1 min 59 sec) 
Heartbeat CPU 0 instructions: 120000000 cycles: 57903949 heartbeat IPC: 1.8319 cumulative IPC: 1.83208 (Simulation time: 0 hr 2 min 14 sec) 
Heartbeat CPU 0 instructions: 130000000 cycles: 63361791 heartbeat IPC: 1.83223 cumulative IPC: 1.83213 (Simulation time: 0 hr 2 min 29 sec) 
Heartbeat CPU 0 instructions: 140000000 cycles: 68819649 heartbeat IPC: 1.83222 cumulative IPC: 1.83215 (Simulation time: 0 hr 2 min 44 sec) 
Heartbeat CPU 0 instructions: 150000003 cycles: 74277570 heartbeat IPC: 1.8322 cumulative IPC: 1.83216 (Simulation time: 0 hr 2 min 59 sec) 
Heartbeat CPU 0 instructions: 160000000 cycles: 79735957 heartbeat IPC: 1.83204 cumulative IPC: 1.83214 (Simulation time: 0 hr 3 min 14 sec) 
Heartbeat CPU 0 instructions: 170000003 cycles: 85193753 heartbeat IPC: 1.83224 cumulative IPC: 1.83216 (Simulation time: 0 hr 3 min 29 sec) 
Heartbeat CPU 0 instructions: 180000000 cycles: 90651762 heartbeat IPC: 1.83217 cumulative IPC: 1.83216 (Simulation time: 0 hr 3 min 44 sec) 
Heartbeat CPU 0 instructions: 190000000 cycles: 96110042 heartbeat IPC: 1.83208 cumulative IPC: 1.83215 (Simulation time: 0 hr 3 min 59 sec) 
Heartbeat CPU 0 instructions: 200000000 cycles: 101568425 heartbeat IPC: 1.83204 cumulative IPC: 1.83214 (Simulation time: 0 hr 4 min 14 sec) 
Heartbeat CPU 0 instructions: 210000002 cycles: 107026708 heartbeat IPC: 1.83208 cumulative IPC: 1.83213 (Simulation time: 0 hr 4 min 30 sec) 
Heartbeat CPU 0 instructions: 220000000 cycles: 112485012 heartbeat IPC: 1.83207 cumulative IPC: 1.83213 (Simulation time: 0 hr 4 min 45 sec) 
Heartbeat CPU 0 instructions: 230000000 cycles: 117943587 heartbeat IPC: 1.83198 cumulative IPC: 1.83212 (Simulation time: 0 hr 5 min 0 sec) 
Heartbeat CPU 0 instructions: 240000000 cycles: 123402002 heartbeat IPC: 1.83203 cumulative IPC: 1.83211 (Simulation time: 0 hr 5 min 15 sec) 
*** Reached end of trace for Core: 0 Repeating trace: /mnt/beegfs/pchatz06/traces/538.imagick_r.train.input1.region_3.w_0.70688.trace.gz
Heartbeat CPU 0 instructions: 250000002 cycles: 128860291 heartbeat IPC: 1.83208 cumulative IPC: 1.83211 (Simulation time: 0 hr 5 min 30 sec) 
Finished CPU 0 instructions: 150000001 cycles: 81872895 cumulative IPC: 1.83211 (Simulation time: 0 hr 5 min 30 sec) 

CPU 0 Branch Prediction Accuracy: 99.8224% MPKI: 0.115007
Number of Branches: 9714361 Number of Mispredictions: 17251
Number of LOAD Instructions: 48397346
Number of LOAD Instructions (ROI): 48397346
Number of STORE Instructions: 1428
Number of STORE Instructions (ROI): 1428
Total Destination Memory Operands: 1938
Total Destination Memory Operands (ROI): 1938
Total Source Memory Operands: 48397346
Total Source Memory Operands (ROI): 48397346
Number of DEPENDED LOADS: 730
Number of DEPENDED LOADS (ROI): 730
Number of SQ_ADDED: 1938
Number of SQ_ADDED (ROI): 1938
Number of LQ_ADDED: 48397312
Number of LQ_ADDED (ROI): 48397312
Number of Instructions read from trace: 250000251

ChampSim completed all CPUs

Region of Interest Statistics

CPU 0 cumulative IPC: 1.83211 instructions: 150000001 cycles: 81872895
ITLB TOTAL     ACCESS:   27781377  HIT:   27781377  MISS:          0
ITLB LOAD      ACCESS:   27781377  HIT:   27781377  MISS:          0
ITLB RFO       ACCESS:          0  HIT:          0  MISS:          0
ITLB PREFETCH  ACCESS:          0  HIT:          0  MISS:          0
ITLB WRITEBACK ACCESS:          0  HIT:          0  MISS:          0
ITLB PREFETCH  REQUESTED:          0  ISSUED:          0  USEFUL:          0  USELESS:          0
ITLB TOTAL MSHR MERGED:          0
ITLB LOAD MSHR MERGED:          0
ITLB RFO MSHR MERGED:          0
ITLB PREFETCH MSHR MERGED:          0
ITLB WRITEBACK MSHR MERGED:          0
ITLB TOTAL ACCESSES:   27781377 HITS:   27781377 MISSES:          0
ITLB LOAD ACCESSES:   27781377 HITS:   27781377 MISSES:          0
ITLB RFO ACCESSES:          0 HITS:          0 MISSES:          0
ITLB PREFETCH ACCESSES:          0 HITS:          0 MISSES:          0
ITLB WRITEBACK ACCESSES:          0 HITS:          0 MISSES:          0
ITLB RQ ACCESS:  150000205
ITLB RQ TO_CACHE:   27781378
ITLB RQ MERGED:  122218827
ITLB RQ FORWARD:          0
ITLB WQ ACCESS:          0
ITLB WQ TO_CACHE:          0
ITLB WQ MERGED:          0
ITLB WQ FORWARD:          0
DTLB TOTAL     ACCESS:   18332701  HIT:   18300526  MISS:      32175
DTLB LOAD      ACCESS:   18331987  HIT:   18299927  MISS:      32060
DTLB RFO       ACCESS:        714  HIT:        599  MISS:        115
DTLB PREFETCH  ACCESS:          0  HIT:          0  MISS:          0
DTLB WRITEBACK ACCESS:          0  HIT:          0  MISS:          0
DTLB PREFETCH  REQUESTED:          0  ISSUED:          0  USEFUL:          0  USELESS:          0
DTLB TOTAL MSHR MERGED:      46304
DTLB LOAD MSHR MERGED:      46239
DTLB RFO MSHR MERGED:         65
DTLB PREFETCH MSHR MERGED:          0
DTLB WRITEBACK MSHR MERGED:          0
DTLB TOTAL ACCESSES:   18379007 HITS:   18300526 MISSES:      78481
DTLB LOAD ACCESSES:   18378228 HITS:   18299927 MISSES:      78301
DTLB RFO ACCESSES:        779 HITS:        599 MISSES:        180
DTLB PREFETCH ACCESSES:          0 HITS:          0 MISSES:          0
DTLB WRITEBACK ACCESSES:          0 HITS:          0 MISSES:          0
DTLB RQ ACCESS:   29039048
DTLB RQ TO_CACHE:   18379007
DTLB RQ MERGED:   10660041
DTLB RQ FORWARD:          0
DTLB WQ ACCESS:          0
DTLB WQ TO_CACHE:          0
DTLB WQ MERGED:          0
DTLB WQ FORWARD:          0
L1D TOTAL     ACCESS:   20319042  HIT:   19078189  MISS:    1240853
L1D LOAD      ACCESS:   12209087  HIT:   11573012  MISS:     636075
L1D RFO       ACCESS:        919  HIT:        850  MISS:         69
L1D PREFETCH  ACCESS:    8109036  HIT:    7504327  MISS:     604709
L1D WRITEBACK ACCESS:          0  HIT:          0  MISS:          0
L1D PREFETCH  REQUESTED:   12543072  ISSUED:   12407946  USEFUL:     587293  USELESS:      17416
L1D TOTAL MSHR MERGED:     951710
L1D LOAD MSHR MERGED:     335724
L1D RFO MSHR MERGED:        183
L1D PREFETCH MSHR MERGED:     615803
L1D WRITEBACK MSHR MERGED:          0
L1D TOTAL ACCESSES:   21270752 HITS:   19078189 MISSES:    2192563
L1D LOAD ACCESSES:   12543072 HITS:   11573012 MISSES:     970060
L1D RFO ACCESSES:       1102 HITS:        850 MISSES:        252
L1D PREFETCH ACCESSES:    8726578 HITS:    7504327 MISSES:    1222251
L1D WRITEBACK ACCESSES:          0 HITS:          0 MISSES:          0
L1D RQ ACCESS:   29037884
L1D RQ TO_CACHE:   12543072
L1D RQ MERGED:   16494812
L1D RQ FORWARD:          0
L1D WQ ACCESS:       1159
L1D WQ TO_CACHE:       1102
L1D WQ MERGED:         57
L1D WQ FORWARD:          0
L1I TOTAL     ACCESS:   34013897  HIT:   34013897  MISS:          0
L1I LOAD      ACCESS:   34013897  HIT:   34013897  MISS:          0
L1I RFO       ACCESS:          0  HIT:          0  MISS:          0
L1I PREFETCH  ACCESS:          0  HIT:          0  MISS:          0
L1I WRITEBACK ACCESS:          0  HIT:          0  MISS:          0
L1I PREFETCH  REQUESTED:          0  ISSUED:          0  USEFUL:          0  USELESS:          0
L1I TOTAL MSHR MERGED:          0
L1I LOAD MSHR MERGED:          0
L1I RFO MSHR MERGED:          0
L1I PREFETCH MSHR MERGED:          0
L1I WRITEBACK MSHR MERGED:          0
L1I TOTAL ACCESSES:   34013897 HITS:   34013897 MISSES:          0
L1I LOAD ACCESSES:   34013897 HITS:   34013897 MISSES:          0
L1I RFO ACCESSES:          0 HITS:          0 MISSES:          0
L1I PREFETCH ACCESSES:          0 HITS:          0 MISSES:          0
L1I WRITEBACK ACCESSES:          0 HITS:          0 MISSES:          0
L1I RQ ACCESS:  150000202
L1I RQ TO_CACHE:   34013898
L1I RQ MERGED:  115986304
L1I RQ FORWARD:          0
L1I WQ ACCESS:          0
L1I WQ TO_CACHE:          0
L1I WQ MERGED:          0
L1I WQ FORWARD:          0
L2C TOTAL     ACCESS:    2939277  HIT:    1698219  MISS:    1241058
L2C LOAD      ACCESS:     634336  HIT:     575436  MISS:      58900
L2C RFO       ACCESS:         69  HIT:          0  MISS:         69
L2C PREFETCH  ACCESS:    2304742  HIT:    1122653  MISS:    1182089
L2C WRITEBACK ACCESS:        130  HIT:        130  MISS:          0
L2C PREFETCH  REQUESTED:    1698339  ISSUED:    1698339  USEFUL:     575436  USELESS:     606678
L2C TOTAL MSHR MERGED:          7
L2C LOAD MSHR MERGED:          0
L2C RFO MSHR MERGED:          0
L2C PREFETCH MSHR MERGED:          7
L2C WRITEBACK MSHR MERGED:          0
L2C TOTAL ACCESSES:    2939296 HITS:    1698219 MISSES:    1241077
L2C LOAD ACCESSES:     634336 HITS:     575436 MISSES:      58900
L2C RFO ACCESSES:         69 HITS:          0 MISSES:         69
L2C PREFETCH ACCESSES:    2304761 HITS:    1122653 MISSES:    1182108
L2C WRITEBACK ACCESSES:        130 HITS:        130 MISSES:          0
L2C RQ ACCESS:     634405
L2C RQ TO_CACHE:     634405
L2C RQ MERGED:          0
L2C RQ FORWARD:          0
L2C WQ ACCESS:        130
L2C WQ TO_CACHE:        130
L2C WQ MERGED:          0
L2C WQ FORWARD:          0
LLC TOTAL     ACCESS:    1241196  HIT:    1238939  MISS:       2257
LLC LOAD      ACCESS:      58900  HIT:      58864  MISS:         36
LLC RFO       ACCESS:         69  HIT:         68  MISS:          1
LLC PREFETCH  ACCESS:    1182097  HIT:    1179877  MISS:       2220
LLC WRITEBACK ACCESS:        130  HIT:        130  MISS:          0
LLC PREFETCH  REQUESTED:          0  ISSUED:          0  USEFUL:       2230  USELESS:          0
LLC TOTAL MSHR MERGED:          0
LLC LOAD MSHR MERGED:          0
LLC RFO MSHR MERGED:          0
LLC PREFETCH MSHR MERGED:          0
LLC WRITEBACK MSHR MERGED:          0
LLC TOTAL ACCESSES:    1241196 HITS:    1238939 MISSES:       2257
LLC LOAD ACCESSES:      58900 HITS:      58864 MISSES:         36
LLC RFO ACCESSES:         69 HITS:         68 MISSES:          1
LLC PREFETCH ACCESSES:    1182097 HITS:    1179877 MISSES:       2220
LLC WRITEBACK ACCESSES:        130 HITS:        130 MISSES:          0
LLC 0 RQ ACCESS:      58969
LLC 0 RQ TO_CACHE:      58969
LLC 0 RQ MERGED:          0
LLC 0 RQ FORWARD:          0
LLC WQ ACCESS:        130
LLC WQ TO_CACHE:        130
LLC WQ MERGED:          0
LLC WQ FORWARD:          0
Major fault: 0 Minor fault: 529
CPU 0 L1D next line prefetcher final stats
CPU 0 L2C PC-based stride prefetcher final stats

DRAM Statistics
 CHANNEL 0
 RQ ROW_BUFFER_HIT:          0  ROW_BUFFER_MISS:       2257
 DBUS_CONGESTED:         36
 WQ ROW_BUFFER_HIT:          0  ROW_BUFFER_MISS:          0  FULL:          0

 AVG_CONGESTED_CYCLE: 11
LOADS RETIRED: 29038375
INSTR RETIRED: 150000000
