
*** ChampSim Multicore Out-of-Order Simulator ***

Warmup Instructions: 100000000
Simulation Instructions: 150000000
Number of CPUs: 1
LLC sets: 2048
LLC ways: 16
Clean RRIP Policies: 0 Dirty RRIP Policies: 0 PSEL Width: 10 Track Set: 4294967295 PSEL Mask: 15 Demote Mask: 0DS Algo: 0Window size: 64
Off-chip DRAM Size: 4096 MB Channels: 1 Width: 64-bit Data Rate: 1600 MT/s

CPU 0 runs /mnt/beegfs/pchatz06/traces/544.nab_r.train.input2.region_7.w_0.10115.trace.gz
NOT SORTED
TRACE STRING: /mnt/beegfs/pchatz06/traces/544.nab_r.train.input2.region_7.w_0.10115.trace.gz
SORTED
TRACE STRING: /mnt/beegfs/pchatz06/traces/544.nab_r.train.input2.region_7.w_0.10115.trace.gz
INITIAL
TRACE STRING: /mnt/beegfs/pchatz06/traces/544.nab_r.train.input2.region_7.w_0.10115.trace.gz

champsim_seed used: 248

CPU 0 L1D next line prefetcher
CPU 0 L2C IP-based stride prefetcher
Heartbeat CPU 0 instructions: 10000002 cycles: 5621596 heartbeat IPC: 1.77885 cumulative IPC: 1.77885 (Simulation time: 0 hr 0 min 12 sec) 
Heartbeat CPU 0 instructions: 20000000 cycles: 11228657 heartbeat IPC: 1.78347 cumulative IPC: 1.78116 (Simulation time: 0 hr 0 min 24 sec) 
Heartbeat CPU 0 instructions: 30000001 cycles: 16844954 heartbeat IPC: 1.78053 cumulative IPC: 1.78095 (Simulation time: 0 hr 0 min 35 sec) 
Heartbeat CPU 0 instructions: 40000000 cycles: 22445856 heartbeat IPC: 1.78543 cumulative IPC: 1.78207 (Simulation time: 0 hr 0 min 47 sec) 
Heartbeat CPU 0 instructions: 50000001 cycles: 28012029 heartbeat IPC: 1.79657 cumulative IPC: 1.78495 (Simulation time: 0 hr 0 min 59 sec) 
Heartbeat CPU 0 instructions: 60000000 cycles: 33558682 heartbeat IPC: 1.80289 cumulative IPC: 1.78791 (Simulation time: 0 hr 1 min 10 sec) 
Heartbeat CPU 0 instructions: 70000000 cycles: 39138110 heartbeat IPC: 1.7923 cumulative IPC: 1.78854 (Simulation time: 0 hr 1 min 22 sec) 
Heartbeat CPU 0 instructions: 80000000 cycles: 44706220 heartbeat IPC: 1.79594 cumulative IPC: 1.78946 (Simulation time: 0 hr 1 min 33 sec) 
Heartbeat CPU 0 instructions: 90000002 cycles: 50270636 heartbeat IPC: 1.79713 cumulative IPC: 1.79031 (Simulation time: 0 hr 1 min 45 sec) 
Heartbeat CPU 0 instructions: 100000000 cycles: 55838757 heartbeat IPC: 1.79594 cumulative IPC: 1.79087 (Simulation time: 0 hr 1 min 56 sec) 

Warmup complete CPU 0 instructions: 100000001 cycles: 55838759 (Simulation time: 0 hr 1 min 56 sec) 

Heartbeat CPU 0 instructions: 110000000 cycles: 72873664 heartbeat IPC: 0.58703 cumulative IPC: 0.58703 (Simulation time: 0 hr 2 min 14 sec) 
Heartbeat CPU 0 instructions: 120000000 cycles: 89783776 heartbeat IPC: 0.591362 cumulative IPC: 0.589188 (Simulation time: 0 hr 2 min 32 sec) 
Heartbeat CPU 0 instructions: 130000001 cycles: 106749431 heartbeat IPC: 0.589426 cumulative IPC: 0.589267 (Simulation time: 0 hr 2 min 50 sec) 
Heartbeat CPU 0 instructions: 140000000 cycles: 123582742 heartbeat IPC: 0.59406 cumulative IPC: 0.590458 (Simulation time: 0 hr 3 min 8 sec) 
Heartbeat CPU 0 instructions: 150000003 cycles: 140406062 heartbeat IPC: 0.594413 cumulative IPC: 0.591245 (Simulation time: 0 hr 3 min 26 sec) 
Heartbeat CPU 0 instructions: 160000000 cycles: 157219899 heartbeat IPC: 0.594748 cumulative IPC: 0.591826 (Simulation time: 0 hr 3 min 44 sec) 
Heartbeat CPU 0 instructions: 170000000 cycles: 173997975 heartbeat IPC: 0.596016 cumulative IPC: 0.592421 (Simulation time: 0 hr 4 min 3 sec) 
Heartbeat CPU 0 instructions: 180000000 cycles: 190758161 heartbeat IPC: 0.596652 cumulative IPC: 0.592947 (Simulation time: 0 hr 4 min 21 sec) 
Heartbeat CPU 0 instructions: 190000001 cycles: 207668351 heartbeat IPC: 0.591359 cumulative IPC: 0.59277 (Simulation time: 0 hr 4 min 39 sec) 
Heartbeat CPU 0 instructions: 200000000 cycles: 224503204 heartbeat IPC: 0.594006 cumulative IPC: 0.592893 (Simulation time: 0 hr 4 min 57 sec) 
Heartbeat CPU 0 instructions: 210000000 cycles: 241204781 heartbeat IPC: 0.598746 cumulative IPC: 0.593421 (Simulation time: 0 hr 5 min 15 sec) 
Heartbeat CPU 0 instructions: 220000000 cycles: 257861423 heartbeat IPC: 0.600361 cumulative IPC: 0.593993 (Simulation time: 0 hr 5 min 33 sec) 
Heartbeat CPU 0 instructions: 230000003 cycles: 274444733 heartbeat IPC: 0.603016 cumulative IPC: 0.594677 (Simulation time: 0 hr 5 min 51 sec) 
Heartbeat CPU 0 instructions: 240000000 cycles: 290843072 heartbeat IPC: 0.609818 cumulative IPC: 0.595734 (Simulation time: 0 hr 6 min 9 sec) 
*** Reached end of trace for Core: 0 Repeating trace: /mnt/beegfs/pchatz06/traces/544.nab_r.train.input2.region_7.w_0.10115.trace.gz
Heartbeat CPU 0 instructions: 250000000 cycles: 307248782 heartbeat IPC: 0.609544 cumulative IPC: 0.596635 (Simulation time: 0 hr 6 min 27 sec) 
Finished CPU 0 instructions: 150000003 cycles: 251410025 cumulative IPC: 0.596635 (Simulation time: 0 hr 6 min 27 sec) 

CPU 0 Branch Prediction Accuracy: 90.2856% MPKI: 17.9236
Number of Branches: 27675948 Number of Mispredictions: 2688547
Number of LOAD Instructions: 61742318
Number of LOAD Instructions (ROI): 61742318
Number of STORE Instructions: 23170104
Number of STORE Instructions (ROI): 23170104
Total Destination Memory Operands: 24022031
Total Destination Memory Operands (ROI): 24022031
Total Source Memory Operands: 61742318
Total Source Memory Operands (ROI): 61742318
Number of DEPENDED LOADS: 3778410
Number of DEPENDED LOADS (ROI): 3778410
Number of SQ_ADDED: 24022031
Number of SQ_ADDED (ROI): 24022031
Number of LQ_ADDED: 71344955
Number of LQ_ADDED (ROI): 71344955
Number of Instructions read from trace: 250000030

ChampSim completed all CPUs

Region of Interest Statistics

CPU 0 cumulative IPC: 0.596635 instructions: 150000003 cycles: 251410025
ITLB TOTAL     ACCESS:   24271612  HIT:   24271612  MISS:          0
ITLB LOAD      ACCESS:   24271612  HIT:   24271612  MISS:          0
ITLB RFO       ACCESS:          0  HIT:          0  MISS:          0
ITLB PREFETCH  ACCESS:          0  HIT:          0  MISS:          0
ITLB WRITEBACK ACCESS:          0  HIT:          0  MISS:          0
ITLB PREFETCH  REQUESTED:          0  ISSUED:          0  USEFUL:          0  USELESS:          0
ITLB TOTAL MSHR MERGED:          0
ITLB LOAD MSHR MERGED:          0
ITLB RFO MSHR MERGED:          0
ITLB PREFETCH MSHR MERGED:          0
ITLB WRITEBACK MSHR MERGED:          0
ITLB TOTAL ACCESSES:   24271612 HITS:   24271612 MISSES:          0
ITLB LOAD ACCESSES:   24271612 HITS:   24271612 MISSES:          0
ITLB RFO ACCESSES:          0 HITS:          0 MISSES:          0
ITLB PREFETCH ACCESSES:          0 HITS:          0 MISSES:          0
ITLB WRITEBACK ACCESSES:          0 HITS:          0 MISSES:          0
ITLB RQ ACCESS:  150000009
ITLB RQ TO_CACHE:   24271612
ITLB RQ MERGED:  125728397
ITLB RQ FORWARD:          0
ITLB WQ ACCESS:          0
ITLB WQ TO_CACHE:          0
ITLB WQ MERGED:          0
ITLB WQ FORWARD:          0
DTLB TOTAL     ACCESS:   31964427  HIT:   31963391  MISS:       1036
DTLB LOAD      ACCESS:   20909435  HIT:   20909015  MISS:        420
DTLB RFO       ACCESS:   11054992  HIT:   11054376  MISS:        616
DTLB PREFETCH  ACCESS:          0  HIT:          0  MISS:          0
DTLB WRITEBACK ACCESS:          0  HIT:          0  MISS:          0
DTLB PREFETCH  REQUESTED:          0  ISSUED:          0  USEFUL:          0  USELESS:          0
DTLB TOTAL MSHR MERGED:        658
DTLB LOAD MSHR MERGED:        163
DTLB RFO MSHR MERGED:        495
DTLB PREFETCH MSHR MERGED:          0
DTLB WRITEBACK MSHR MERGED:          0
DTLB TOTAL ACCESSES:   31965085 HITS:   31963391 MISSES:       1694
DTLB LOAD ACCESSES:   20909598 HITS:   20909015 MISSES:        583
DTLB RFO ACCESSES:   11055487 HITS:   11054376 MISSES:       1111
DTLB PREFETCH ACCESSES:          0 HITS:          0 MISSES:          0
DTLB WRITEBACK ACCESSES:          0 HITS:          0 MISSES:          0
DTLB RQ ACCESS:   48987607
DTLB RQ TO_CACHE:   31965085
DTLB RQ MERGED:   17022522
DTLB RQ FORWARD:          0
DTLB WQ ACCESS:          0
DTLB WQ TO_CACHE:          0
DTLB WQ MERGED:          0
DTLB WQ FORWARD:          0
L1D TOTAL     ACCESS:   56378111  HIT:   55425754  MISS:     952357
L1D LOAD      ACCESS:   22826683  HIT:   22329361  MISS:     497322
L1D RFO       ACCESS:   13823937  HIT:   13762234  MISS:      61703
L1D PREFETCH  ACCESS:   19727491  HIT:   19334159  MISS:     393332
L1D WRITEBACK ACCESS:          0  HIT:          0  MISS:          0
L1D PREFETCH  REQUESTED:   22849878  ISSUED:   22711766  USEFUL:     337788  USELESS:      55514
L1D TOTAL MSHR MERGED:     540174
L1D LOAD MSHR MERGED:      24482
L1D RFO MSHR MERGED:     477405
L1D PREFETCH MSHR MERGED:      38287
L1D WRITEBACK MSHR MERGED:          0
L1D TOTAL ACCESSES:   56926647 HITS:   55434112 MISSES:    1492535
L1D LOAD ACCESSES:   22849935 HITS:   22329418 MISSES:     520517
L1D RFO ACCESSES:   14301335 HITS:   13762234 MISSES:     539101
L1D PREFETCH ACCESSES:   19775377 HITS:   19342460 MISSES:     432917
L1D WRITEBACK ACCESSES:          0 HITS:          0 MISSES:          0
L1D RQ ACCESS:   34686255
L1D RQ TO_CACHE:   22849878
L1D RQ MERGED:   11836320
L1D RQ FORWARD:          0
L1D WQ ACCESS:   14301352
L1D WQ TO_CACHE:   14301335
L1D WQ MERGED:         17
L1D WQ FORWARD:       8358
L1I TOTAL     ACCESS:   28526024  HIT:   28526024  MISS:          0
L1I LOAD      ACCESS:   28526024  HIT:   28526024  MISS:          0
L1I RFO       ACCESS:          0  HIT:          0  MISS:          0
L1I PREFETCH  ACCESS:          0  HIT:          0  MISS:          0
L1I WRITEBACK ACCESS:          0  HIT:          0  MISS:          0
L1I PREFETCH  REQUESTED:          0  ISSUED:          0  USEFUL:          0  USELESS:          0
L1I TOTAL MSHR MERGED:          0
L1I LOAD MSHR MERGED:          0
L1I RFO MSHR MERGED:          0
L1I PREFETCH MSHR MERGED:          0
L1I WRITEBACK MSHR MERGED:          0
L1I TOTAL ACCESSES:   28526024 HITS:   28526024 MISSES:          0
L1I LOAD ACCESSES:   28526024 HITS:   28526024 MISSES:          0
L1I RFO ACCESSES:          0 HITS:          0 MISSES:          0
L1I PREFETCH ACCESSES:          0 HITS:          0 MISSES:          0
L1I WRITEBACK ACCESSES:          0 HITS:          0 MISSES:          0
L1I RQ ACCESS:  150000013
L1I RQ TO_CACHE:   28526024
L1I RQ MERGED:  121473989
L1I RQ FORWARD:          0
L1I WQ ACCESS:          0
L1I WQ TO_CACHE:          0
L1I WQ MERGED:          0
L1I WQ FORWARD:          0
L2C TOTAL     ACCESS:    1111802  HIT:    1077353  MISS:      34449
L2C LOAD      ACCESS:     496033  HIT:     494754  MISS:       1279
L2C RFO       ACCESS:      61693  HIT:      30168  MISS:      31525
L2C PREFETCH  ACCESS:     460426  HIT:     458817  MISS:       1609
L2C WRITEBACK ACCESS:      93650  HIT:      93614  MISS:         36
L2C PREFETCH  REQUESTED:      65930  ISSUED:      65930  USEFUL:        442  USELESS:       1445
L2C TOTAL MSHR MERGED:          0
L2C LOAD MSHR MERGED:          0
L2C RFO MSHR MERGED:          0
L2C PREFETCH MSHR MERGED:          0
L2C WRITEBACK MSHR MERGED:          0
L2C TOTAL ACCESSES:    1111809 HITS:    1077356 MISSES:      34453
L2C LOAD ACCESSES:     496035 HITS:     494754 MISSES:       1281
L2C RFO ACCESSES:      61696 HITS:      30171 MISSES:      31525
L2C PREFETCH ACCESSES:     460428 HITS:     458817 MISSES:       1611
L2C WRITEBACK ACCESSES:      93650 HITS:      93614 MISSES:         36
L2C RQ ACCESS:     557731
L2C RQ TO_CACHE:     557728
L2C RQ MERGED:          0
L2C RQ FORWARD:          0
L2C WQ ACCESS:      93650
L2C WQ TO_CACHE:      93650
L2C WQ MERGED:          0
L2C WQ FORWARD:          3
LLC TOTAL     ACCESS:      66541  HIT:      33560  MISS:      32981
LLC LOAD      ACCESS:       1279  HIT:        595  MISS:        684
LLC RFO       ACCESS:      31525  HIT:        234  MISS:      31291
LLC PREFETCH  ACCESS:       1609  HIT:        640  MISS:        969
LLC WRITEBACK ACCESS:      32128  HIT:      32091  MISS:         37
LLC PREFETCH  REQUESTED:          0  ISSUED:          0  USEFUL:        107  USELESS:       1499
LLC TOTAL MSHR MERGED:          0
LLC LOAD MSHR MERGED:          0
LLC RFO MSHR MERGED:          0
LLC PREFETCH MSHR MERGED:          0
LLC WRITEBACK MSHR MERGED:          0
LLC TOTAL ACCESSES:      66541 HITS:      33560 MISSES:      32981
LLC LOAD ACCESSES:       1279 HITS:        595 MISSES:        684
LLC RFO ACCESSES:      31525 HITS:        234 MISSES:      31291
LLC PREFETCH ACCESSES:       1609 HITS:        640 MISSES:        969
LLC WRITEBACK ACCESSES:      32128 HITS:      32091 MISSES:         37
LLC 0 RQ ACCESS:      32806
LLC 0 RQ TO_CACHE:      32806
LLC 0 RQ MERGED:          0
LLC 0 RQ FORWARD:          0
LLC WQ ACCESS:      32128
LLC WQ TO_CACHE:      32128
LLC WQ MERGED:          0
LLC WQ FORWARD:          0
Major fault: 0 Minor fault: 1241
CPU 0 L1D next line prefetcher final stats
CPU 0 L2C PC-based stride prefetcher final stats

DRAM Statistics
 CHANNEL 0
 RQ ROW_BUFFER_HIT:      21441  ROW_BUFFER_MISS:      11503
 DBUS_CONGESTED:      28389
 WQ ROW_BUFFER_HIT:       6314  ROW_BUFFER_MISS:      16240  FULL:          0

 AVG_CONGESTED_CYCLE: 14
LOADS RETIRED: 36988001
INSTR RETIRED: 150000000
