
*** ChampSim Multicore Out-of-Order Simulator ***

Warmup Instructions: 100000000
Simulation Instructions: 150000000
Number of CPUs: 1
LLC sets: 2048
LLC ways: 16
Clean RRIP Policies: 0 Dirty RRIP Policies: 0 PSEL Width: 10 Track Set: 4294967295 PSEL Mask: 15 Demote Mask: 0DS Algo: 0Window size: 64
Off-chip DRAM Size: 4096 MB Channels: 1 Width: 64-bit Data Rate: 1600 MT/s

CPU 0 runs /mnt/beegfs/pchatz06/traces/544.nab_r.refrate.input1.region_4.w_0.17344.trace.gz
NOT SORTED
TRACE STRING: /mnt/beegfs/pchatz06/traces/544.nab_r.refrate.input1.region_4.w_0.17344.trace.gz
SORTED
TRACE STRING: /mnt/beegfs/pchatz06/traces/544.nab_r.refrate.input1.region_4.w_0.17344.trace.gz
INITIAL
TRACE STRING: /mnt/beegfs/pchatz06/traces/544.nab_r.refrate.input1.region_4.w_0.17344.trace.gz

champsim_seed used: 259

CPU 0 L1D next line prefetcher
CPU 0 L2C IP-based stride prefetcher
Heartbeat CPU 0 instructions: 10000000 cycles: 5529032 heartbeat IPC: 1.80863 cumulative IPC: 1.80863 (Simulation time: 0 hr 0 min 16 sec) 
Heartbeat CPU 0 instructions: 20000000 cycles: 11043743 heartbeat IPC: 1.81333 cumulative IPC: 1.81098 (Simulation time: 0 hr 0 min 31 sec) 
Heartbeat CPU 0 instructions: 30000000 cycles: 16567298 heartbeat IPC: 1.81043 cumulative IPC: 1.8108 (Simulation time: 0 hr 0 min 47 sec) 
Heartbeat CPU 0 instructions: 40000000 cycles: 22087630 heartbeat IPC: 1.81149 cumulative IPC: 1.81097 (Simulation time: 0 hr 1 min 2 sec) 
Heartbeat CPU 0 instructions: 50000000 cycles: 27605876 heartbeat IPC: 1.81217 cumulative IPC: 1.81121 (Simulation time: 0 hr 1 min 18 sec) 
Heartbeat CPU 0 instructions: 60000000 cycles: 33123956 heartbeat IPC: 1.81222 cumulative IPC: 1.81138 (Simulation time: 0 hr 1 min 33 sec) 
Heartbeat CPU 0 instructions: 70000001 cycles: 38645712 heartbeat IPC: 1.81102 cumulative IPC: 1.81133 (Simulation time: 0 hr 1 min 48 sec) 
Heartbeat CPU 0 instructions: 80000000 cycles: 44170496 heartbeat IPC: 1.81003 cumulative IPC: 1.81116 (Simulation time: 0 hr 2 min 4 sec) 
Heartbeat CPU 0 instructions: 90000000 cycles: 49696581 heartbeat IPC: 1.8096 cumulative IPC: 1.81099 (Simulation time: 0 hr 2 min 19 sec) 
Heartbeat CPU 0 instructions: 100000000 cycles: 55217743 heartbeat IPC: 1.81121 cumulative IPC: 1.81101 (Simulation time: 0 hr 2 min 35 sec) 

Warmup complete CPU 0 instructions: 100000002 cycles: 55217744 (Simulation time: 0 hr 2 min 35 sec) 

Heartbeat CPU 0 instructions: 110000000 cycles: 73472140 heartbeat IPC: 0.547813 cumulative IPC: 0.547813 (Simulation time: 0 hr 2 min 59 sec) 
Heartbeat CPU 0 instructions: 120000000 cycles: 91797932 heartbeat IPC: 0.545679 cumulative IPC: 0.546744 (Simulation time: 0 hr 3 min 24 sec) 
Heartbeat CPU 0 instructions: 130000003 cycles: 109918260 heartbeat IPC: 0.551867 cumulative IPC: 0.548441 (Simulation time: 0 hr 3 min 48 sec) 
Heartbeat CPU 0 instructions: 140000000 cycles: 128228662 heartbeat IPC: 0.546138 cumulative IPC: 0.547863 (Simulation time: 0 hr 4 min 13 sec) 
Heartbeat CPU 0 instructions: 150000000 cycles: 146465648 heartbeat IPC: 0.548336 cumulative IPC: 0.547958 (Simulation time: 0 hr 4 min 37 sec) 
Heartbeat CPU 0 instructions: 160000000 cycles: 164856399 heartbeat IPC: 0.543752 cumulative IPC: 0.547252 (Simulation time: 0 hr 5 min 2 sec) 
Heartbeat CPU 0 instructions: 170000000 cycles: 182985491 heartbeat IPC: 0.5516 cumulative IPC: 0.547869 (Simulation time: 0 hr 5 min 26 sec) 
Heartbeat CPU 0 instructions: 180000000 cycles: 201161420 heartbeat IPC: 0.550178 cumulative IPC: 0.548157 (Simulation time: 0 hr 5 min 51 sec) 
Heartbeat CPU 0 instructions: 190000001 cycles: 219391637 heartbeat IPC: 0.54854 cumulative IPC: 0.548199 (Simulation time: 0 hr 6 min 15 sec) 
Heartbeat CPU 0 instructions: 200000000 cycles: 237537899 heartbeat IPC: 0.551078 cumulative IPC: 0.548486 (Simulation time: 0 hr 6 min 40 sec) 
Heartbeat CPU 0 instructions: 210000001 cycles: 256127397 heartbeat IPC: 0.537938 cumulative IPC: 0.54751 (Simulation time: 0 hr 7 min 4 sec) 
Heartbeat CPU 0 instructions: 220000000 cycles: 274374604 heartbeat IPC: 0.548029 cumulative IPC: 0.547553 (Simulation time: 0 hr 7 min 29 sec) 
Heartbeat CPU 0 instructions: 230000001 cycles: 292569890 heartbeat IPC: 0.549593 cumulative IPC: 0.547709 (Simulation time: 0 hr 7 min 53 sec) 
Heartbeat CPU 0 instructions: 240000000 cycles: 310538928 heartbeat IPC: 0.556513 cumulative IPC: 0.548329 (Simulation time: 0 hr 8 min 18 sec) 
*** Reached end of trace for Core: 0 Repeating trace: /mnt/beegfs/pchatz06/traces/544.nab_r.refrate.input1.region_4.w_0.17344.trace.gz
Heartbeat CPU 0 instructions: 250000001 cycles: 328709855 heartbeat IPC: 0.55033 cumulative IPC: 0.548462 (Simulation time: 0 hr 8 min 42 sec) 
Finished CPU 0 instructions: 150000003 cycles: 273492112 cumulative IPC: 0.548462 (Simulation time: 0 hr 8 min 42 sec) 

CPU 0 Branch Prediction Accuracy: 98.3507% MPKI: 2.08898
Number of Branches: 18998778 Number of Mispredictions: 313347
Number of LOAD Instructions: 65173510
Number of LOAD Instructions (ROI): 65173510
Number of STORE Instructions: 8172415
Number of STORE Instructions (ROI): 8172415
Total Destination Memory Operands: 8172415
Total Destination Memory Operands (ROI): 8172415
Total Source Memory Operands: 65173510
Total Source Memory Operands (ROI): 65173510
Number of DEPENDED LOADS: 1484733
Number of DEPENDED LOADS (ROI): 1484733
Number of SQ_ADDED: 8172415
Number of SQ_ADDED (ROI): 8172415
Number of LQ_ADDED: 65173505
Number of LQ_ADDED (ROI): 65173505
Number of Instructions read from trace: 250000044

ChampSim completed all CPUs

Region of Interest Statistics

CPU 0 cumulative IPC: 0.548462 instructions: 150000003 cycles: 273492112
ITLB TOTAL     ACCESS:   45120943  HIT:   45120943  MISS:          0
ITLB LOAD      ACCESS:   45120943  HIT:   45120943  MISS:          0
ITLB RFO       ACCESS:          0  HIT:          0  MISS:          0
ITLB PREFETCH  ACCESS:          0  HIT:          0  MISS:          0
ITLB WRITEBACK ACCESS:          0  HIT:          0  MISS:          0
ITLB PREFETCH  REQUESTED:          0  ISSUED:          0  USEFUL:          0  USELESS:          0
ITLB TOTAL MSHR MERGED:          0
ITLB LOAD MSHR MERGED:          0
ITLB RFO MSHR MERGED:          0
ITLB PREFETCH MSHR MERGED:          0
ITLB WRITEBACK MSHR MERGED:          0
ITLB TOTAL ACCESSES:   45120943 HITS:   45120943 MISSES:          0
ITLB LOAD ACCESSES:   45120943 HITS:   45120943 MISSES:          0
ITLB RFO ACCESSES:          0 HITS:          0 MISSES:          0
ITLB PREFETCH ACCESSES:          0 HITS:          0 MISSES:          0
ITLB WRITEBACK ACCESSES:          0 HITS:          0 MISSES:          0
ITLB RQ ACCESS:  149999788
ITLB RQ TO_CACHE:   45120943
ITLB RQ MERGED:  104878845
ITLB RQ FORWARD:          0
ITLB WQ ACCESS:          0
ITLB WQ TO_CACHE:          0
ITLB WQ MERGED:          0
ITLB WQ FORWARD:          0
DTLB TOTAL     ACCESS:   34748201  HIT:   34745211  MISS:       2990
DTLB LOAD      ACCESS:   31399205  HIT:   31396231  MISS:       2974
DTLB RFO       ACCESS:    3348996  HIT:    3348980  MISS:         16
DTLB PREFETCH  ACCESS:          0  HIT:          0  MISS:          0
DTLB WRITEBACK ACCESS:          0  HIT:          0  MISS:          0
DTLB PREFETCH  REQUESTED:          0  ISSUED:          0  USEFUL:          0  USELESS:          0
DTLB TOTAL MSHR MERGED:        333
DTLB LOAD MSHR MERGED:        333
DTLB RFO MSHR MERGED:          0
DTLB PREFETCH MSHR MERGED:          0
DTLB WRITEBACK MSHR MERGED:          0
DTLB TOTAL ACCESSES:   34748534 HITS:   34745211 MISSES:       3323
DTLB LOAD ACCESSES:   31399538 HITS:   31396231 MISSES:       3307
DTLB RFO ACCESSES:    3348996 HITS:    3348980 MISSES:         16
DTLB PREFETCH ACCESSES:          0 HITS:          0 MISSES:          0
DTLB WRITEBACK ACCESSES:          0 HITS:          0 MISSES:          0
DTLB RQ ACCESS:   43144843
DTLB RQ TO_CACHE:   34748534
DTLB RQ MERGED:    8396309
DTLB RQ FORWARD:          0
DTLB WQ ACCESS:          0
DTLB WQ TO_CACHE:          0
DTLB WQ MERGED:          0
DTLB WQ FORWARD:          0
L1D TOTAL     ACCESS:   64402209  HIT:   62932881  MISS:    1469328
L1D LOAD      ACCESS:   30250441  HIT:   30038621  MISS:     211820
L1D RFO       ACCESS:    4952234  HIT:    4951108  MISS:       1126
L1D PREFETCH  ACCESS:   29199534  HIT:   27943152  MISS:    1256382
L1D WRITEBACK ACCESS:          0  HIT:          0  MISS:          0
L1D PREFETCH  REQUESTED:   30253546  ISSUED:   29852407  USEFUL:    1126357  USELESS:     129982
L1D TOTAL MSHR MERGED:      68340
L1D LOAD MSHR MERGED:       3219
L1D RFO MSHR MERGED:         11
L1D PREFETCH MSHR MERGED:      65110
L1D WRITEBACK MSHR MERGED:          0
L1D TOTAL ACCESSES:   64470554 HITS:   62932881 MISSES:    1537673
L1D LOAD ACCESSES:   30253546 HITS:   30038621 MISSES:     214925
L1D RFO ACCESSES:    4952245 HITS:    4951108 MISSES:       1137
L1D PREFETCH ACCESSES:   29264763 HITS:   27943152 MISSES:    1321611
L1D WRITEBACK ACCESSES:          0 HITS:          0 MISSES:          0
L1D RQ ACCESS:   38192600
L1D RQ TO_CACHE:   30253546
L1D RQ MERGED:    7939054
L1D RQ FORWARD:          0
L1D WQ ACCESS:    4952245
L1D WQ TO_CACHE:    4952245
L1D WQ MERGED:          0
L1D WQ FORWARD:          0
L1I TOTAL     ACCESS:   52499255  HIT:   52499212  MISS:         43
L1I LOAD      ACCESS:   52499255  HIT:   52499212  MISS:         43
L1I RFO       ACCESS:          0  HIT:          0  MISS:          0
L1I PREFETCH  ACCESS:          0  HIT:          0  MISS:          0
L1I WRITEBACK ACCESS:          0  HIT:          0  MISS:          0
L1I PREFETCH  REQUESTED:          0  ISSUED:          0  USEFUL:          0  USELESS:          0
L1I TOTAL MSHR MERGED:         45
L1I LOAD MSHR MERGED:         45
L1I RFO MSHR MERGED:          0
L1I PREFETCH MSHR MERGED:          0
L1I WRITEBACK MSHR MERGED:          0
L1I TOTAL ACCESSES:   52499300 HITS:   52499212 MISSES:         88
L1I LOAD ACCESSES:   52499300 HITS:   52499212 MISSES:         88
L1I RFO ACCESSES:          0 HITS:          0 MISSES:          0
L1I PREFETCH ACCESSES:          0 HITS:          0 MISSES:          0
L1I WRITEBACK ACCESSES:          0 HITS:          0 MISSES:          0
L1I RQ ACCESS:  149999789
L1I RQ TO_CACHE:   52499300
L1I RQ MERGED:   97500489
L1I RQ FORWARD:          0
L1I WQ ACCESS:          0
L1I WQ TO_CACHE:          0
L1I WQ MERGED:          0
L1I WQ FORWARD:          0
L2C TOTAL     ACCESS:    1477430  HIT:    1364859  MISS:     112571
L2C LOAD      ACCESS:     211747  HIT:     202830  MISS:       8917
L2C RFO       ACCESS:       1126  HIT:        985  MISS:        141
L2C PREFETCH  ACCESS:    1263432  HIT:    1159923  MISS:     103509
L2C WRITEBACK ACCESS:       1125  HIT:       1121  MISS:          4
L2C PREFETCH  REQUESTED:       7384  ISSUED:       7384  USEFUL:       2399  USELESS:     101200
L2C TOTAL MSHR MERGED:          1
L2C LOAD MSHR MERGED:          0
L2C RFO MSHR MERGED:          0
L2C PREFETCH MSHR MERGED:          1
L2C WRITEBACK MSHR MERGED:          0
L2C TOTAL ACCESSES:    1477436 HITS:    1364859 MISSES:     112577
L2C LOAD ACCESSES:     211749 HITS:     202830 MISSES:       8919
L2C RFO ACCESSES:       1126 HITS:        985 MISSES:        141
L2C PREFETCH ACCESSES:    1263436 HITS:    1159923 MISSES:     103513
L2C WRITEBACK ACCESSES:       1125 HITS:       1121 MISSES:          4
L2C RQ ACCESS:     212875
L2C RQ TO_CACHE:     212875
L2C RQ MERGED:          0
L2C RQ FORWARD:          0
L2C WQ ACCESS:       1125
L2C WQ TO_CACHE:       1125
L2C WQ MERGED:          0
L2C WQ FORWARD:          0
LLC TOTAL     ACCESS:     112712  HIT:       8546  MISS:     104166
LLC LOAD      ACCESS:       8917  HIT:       3866  MISS:       5051
LLC RFO       ACCESS:        141  HIT:          0  MISS:        141
LLC PREFETCH  ACCESS:     103509  HIT:       4539  MISS:      98970
LLC WRITEBACK ACCESS:        145  HIT:        141  MISS:          4
LLC PREFETCH  REQUESTED:          0  ISSUED:          0  USEFUL:        749  USELESS:      98521
LLC TOTAL MSHR MERGED:          0
LLC LOAD MSHR MERGED:          0
LLC RFO MSHR MERGED:          0
LLC PREFETCH MSHR MERGED:          0
LLC WRITEBACK MSHR MERGED:          0
LLC TOTAL ACCESSES:     112713 HITS:       8546 MISSES:     104167
LLC LOAD ACCESSES:       8917 HITS:       3866 MISSES:       5051
LLC RFO ACCESSES:        141 HITS:          0 MISSES:        141
LLC PREFETCH ACCESSES:     103510 HITS:       4539 MISSES:      98971
LLC WRITEBACK ACCESSES:        145 HITS:        141 MISSES:          4
LLC 0 RQ ACCESS:       9060
LLC 0 RQ TO_CACHE:       9060
LLC 0 RQ MERGED:          0
LLC 0 RQ FORWARD:          0
LLC WQ ACCESS:        145
LLC WQ TO_CACHE:        145
LLC WQ MERGED:          0
LLC WQ FORWARD:          0
Major fault: 0 Minor fault: 3123
CPU 0 L1D next line prefetcher final stats
CPU 0 L2C PC-based stride prefetcher final stats

DRAM Statistics
 CHANNEL 0
 RQ ROW_BUFFER_HIT:      90449  ROW_BUFFER_MISS:      13713
 DBUS_CONGESTED:       4022
 WQ ROW_BUFFER_HIT:         72  ROW_BUFFER_MISS:         36  FULL:          0

 AVG_CONGESTED_CYCLE: 10
LOADS RETIRED: 39091413
INSTR RETIRED: 150000000
