
*** ChampSim Multicore Out-of-Order Simulator ***

Warmup Instructions: 100000000
Simulation Instructions: 150000000
Number of CPUs: 1
LLC sets: 2048
LLC ways: 16
Clean RRIP Policies: 0 Dirty RRIP Policies: 0 PSEL Width: 10 Track Set: 4294967295 PSEL Mask: 15 Demote Mask: 0DS Algo: 0Window size: 64
Off-chip DRAM Size: 4096 MB Channels: 1 Width: 64-bit Data Rate: 1600 MT/s

CPU 0 runs /mnt/beegfs/pchatz06/traces/544.nab_r.train.input2.region_13.w_0.03937.trace.gz
NOT SORTED
TRACE STRING: /mnt/beegfs/pchatz06/traces/544.nab_r.train.input2.region_13.w_0.03937.trace.gz
SORTED
TRACE STRING: /mnt/beegfs/pchatz06/traces/544.nab_r.train.input2.region_13.w_0.03937.trace.gz
INITIAL
TRACE STRING: /mnt/beegfs/pchatz06/traces/544.nab_r.train.input2.region_13.w_0.03937.trace.gz

champsim_seed used: 262

CPU 0 L1D next line prefetcher
CPU 0 L2C IP-based stride prefetcher
Heartbeat CPU 0 instructions: 10000001 cycles: 5832938 heartbeat IPC: 1.7144 cumulative IPC: 1.7144 (Simulation time: 0 hr 0 min 19 sec) 
Heartbeat CPU 0 instructions: 20000000 cycles: 11665215 heartbeat IPC: 1.7146 cumulative IPC: 1.7145 (Simulation time: 0 hr 0 min 38 sec) 
Heartbeat CPU 0 instructions: 30000000 cycles: 17496914 heartbeat IPC: 1.71477 cumulative IPC: 1.71459 (Simulation time: 0 hr 0 min 57 sec) 
Heartbeat CPU 0 instructions: 40000000 cycles: 23330558 heartbeat IPC: 1.71419 cumulative IPC: 1.71449 (Simulation time: 0 hr 1 min 16 sec) 
Heartbeat CPU 0 instructions: 50000001 cycles: 29161344 heartbeat IPC: 1.71503 cumulative IPC: 1.7146 (Simulation time: 0 hr 1 min 36 sec) 
Heartbeat CPU 0 instructions: 60000000 cycles: 34993581 heartbeat IPC: 1.71461 cumulative IPC: 1.7146 (Simulation time: 0 hr 1 min 55 sec) 
Heartbeat CPU 0 instructions: 70000002 cycles: 40827748 heartbeat IPC: 1.71404 cumulative IPC: 1.71452 (Simulation time: 0 hr 2 min 14 sec) 
Heartbeat CPU 0 instructions: 80000000 cycles: 46657089 heartbeat IPC: 1.71546 cumulative IPC: 1.71464 (Simulation time: 0 hr 2 min 33 sec) 
Heartbeat CPU 0 instructions: 90000002 cycles: 52490730 heartbeat IPC: 1.7142 cumulative IPC: 1.71459 (Simulation time: 0 hr 2 min 52 sec) 
Heartbeat CPU 0 instructions: 100000000 cycles: 58327810 heartbeat IPC: 1.71319 cumulative IPC: 1.71445 (Simulation time: 0 hr 3 min 11 sec) 

Warmup complete CPU 0 instructions: 100000001 cycles: 58327811 (Simulation time: 0 hr 3 min 11 sec) 

Heartbeat CPU 0 instructions: 110000002 cycles: 72603443 heartbeat IPC: 0.700494 cumulative IPC: 0.700494 (Simulation time: 0 hr 3 min 38 sec) 
Heartbeat CPU 0 instructions: 120000000 cycles: 86894813 heartbeat IPC: 0.699723 cumulative IPC: 0.700108 (Simulation time: 0 hr 4 min 4 sec) 
Heartbeat CPU 0 instructions: 130000000 cycles: 101205920 heartbeat IPC: 0.698758 cumulative IPC: 0.699658 (Simulation time: 0 hr 4 min 30 sec) 
Heartbeat CPU 0 instructions: 140000000 cycles: 115517018 heartbeat IPC: 0.698758 cumulative IPC: 0.699433 (Simulation time: 0 hr 4 min 56 sec) 
Heartbeat CPU 0 instructions: 150000002 cycles: 129837129 heartbeat IPC: 0.698319 cumulative IPC: 0.69921 (Simulation time: 0 hr 5 min 22 sec) 
Heartbeat CPU 0 instructions: 160000000 cycles: 144144907 heartbeat IPC: 0.69892 cumulative IPC: 0.699161 (Simulation time: 0 hr 5 min 49 sec) 
Heartbeat CPU 0 instructions: 170000000 cycles: 158455973 heartbeat IPC: 0.69876 cumulative IPC: 0.699104 (Simulation time: 0 hr 6 min 15 sec) 
Heartbeat CPU 0 instructions: 180000000 cycles: 172771138 heartbeat IPC: 0.69856 cumulative IPC: 0.699036 (Simulation time: 0 hr 6 min 41 sec) 
Heartbeat CPU 0 instructions: 190000003 cycles: 187091672 heartbeat IPC: 0.698298 cumulative IPC: 0.698954 (Simulation time: 0 hr 7 min 7 sec) 
Heartbeat CPU 0 instructions: 200000000 cycles: 201131110 heartbeat IPC: 0.712279 cumulative IPC: 0.700264 (Simulation time: 0 hr 7 min 30 sec) 
Heartbeat CPU 0 instructions: 210000000 cycles: 215221028 heartbeat IPC: 0.709727 cumulative IPC: 0.701114 (Simulation time: 0 hr 7 min 53 sec) 
Heartbeat CPU 0 instructions: 220000000 cycles: 229288232 heartbeat IPC: 0.710873 cumulative IPC: 0.701917 (Simulation time: 0 hr 8 min 15 sec) 
Heartbeat CPU 0 instructions: 230000002 cycles: 243339750 heartbeat IPC: 0.711667 cumulative IPC: 0.702657 (Simulation time: 0 hr 8 min 38 sec) 
Heartbeat CPU 0 instructions: 240000000 cycles: 257330451 heartbeat IPC: 0.71476 cumulative IPC: 0.703508 (Simulation time: 0 hr 9 min 1 sec) 
*** Reached end of trace for Core: 0 Repeating trace: /mnt/beegfs/pchatz06/traces/544.nab_r.train.input2.region_13.w_0.03937.trace.gz
Heartbeat CPU 0 instructions: 250000000 cycles: 271260441 heartbeat IPC: 0.717876 cumulative IPC: 0.704448 (Simulation time: 0 hr 9 min 24 sec) 
Finished CPU 0 instructions: 150000002 cycles: 212932643 cumulative IPC: 0.704448 (Simulation time: 0 hr 9 min 24 sec) 

CPU 0 Branch Prediction Accuracy: 99.2602% MPKI: 0.604207
Number of Branches: 12250588 Number of Mispredictions: 90631
Number of LOAD Instructions: 74049612
Number of LOAD Instructions (ROI): 74049612
Number of STORE Instructions: 26645745
Number of STORE Instructions (ROI): 26645745
Total Destination Memory Operands: 27160148
Total Destination Memory Operands (ROI): 27160148
Total Source Memory Operands: 74049612
Total Source Memory Operands (ROI): 74049612
Number of DEPENDED LOADS: 3822729
Number of DEPENDED LOADS (ROI): 3822729
Number of SQ_ADDED: 27160118
Number of SQ_ADDED (ROI): 27160118
Number of LQ_ADDED: 104430008
Number of LQ_ADDED (ROI): 104430008
Number of Instructions read from trace: 250000256

ChampSim completed all CPUs

Region of Interest Statistics

CPU 0 cumulative IPC: 0.704448 instructions: 150000002 cycles: 212932643
ITLB TOTAL     ACCESS:   42471432  HIT:   42471430  MISS:          2
ITLB LOAD      ACCESS:   42471432  HIT:   42471430  MISS:          2
ITLB RFO       ACCESS:          0  HIT:          0  MISS:          0
ITLB PREFETCH  ACCESS:          0  HIT:          0  MISS:          0
ITLB WRITEBACK ACCESS:          0  HIT:          0  MISS:          0
ITLB PREFETCH  REQUESTED:          0  ISSUED:          0  USEFUL:          0  USELESS:          0
ITLB TOTAL MSHR MERGED:          3
ITLB LOAD MSHR MERGED:          3
ITLB RFO MSHR MERGED:          0
ITLB PREFETCH MSHR MERGED:          0
ITLB WRITEBACK MSHR MERGED:          0
ITLB TOTAL ACCESSES:   42471435 HITS:   42471430 MISSES:          5
ITLB LOAD ACCESSES:   42471435 HITS:   42471430 MISSES:          5
ITLB RFO ACCESSES:          0 HITS:          0 MISSES:          0
ITLB PREFETCH ACCESSES:          0 HITS:          0 MISSES:          0
ITLB WRITEBACK ACCESSES:          0 HITS:          0 MISSES:          0
ITLB RQ ACCESS:  150000000
ITLB RQ TO_CACHE:   42471435
ITLB RQ MERGED:  107528565
ITLB RQ FORWARD:          0
ITLB WQ ACCESS:          0
ITLB WQ TO_CACHE:          0
ITLB WQ MERGED:          0
ITLB WQ FORWARD:          0
DTLB TOTAL     ACCESS:   37669744  HIT:   37667619  MISS:       2125
DTLB LOAD      ACCESS:   27391034  HIT:   27388913  MISS:       2121
DTLB RFO       ACCESS:   10278710  HIT:   10278706  MISS:          4
DTLB PREFETCH  ACCESS:          0  HIT:          0  MISS:          0
DTLB WRITEBACK ACCESS:          0  HIT:          0  MISS:          0
DTLB PREFETCH  REQUESTED:          0  ISSUED:          0  USEFUL:          0  USELESS:          0
DTLB TOTAL MSHR MERGED:         39
DTLB LOAD MSHR MERGED:         35
DTLB RFO MSHR MERGED:          4
DTLB PREFETCH MSHR MERGED:          0
DTLB WRITEBACK MSHR MERGED:          0
DTLB TOTAL ACCESSES:   37669783 HITS:   37667619 MISSES:       2164
DTLB LOAD ACCESSES:   27391069 HITS:   27388913 MISSES:       2156
DTLB RFO ACCESSES:   10278714 HITS:   10278706 MISSES:          8
DTLB PREFETCH ACCESSES:          0 HITS:          0 MISSES:          0
DTLB WRITEBACK ACCESSES:          0 HITS:          0 MISSES:          0
DTLB RQ ACCESS:   56062758
DTLB RQ TO_CACHE:   37669783
DTLB RQ MERGED:   18392975
DTLB RQ FORWARD:          0
DTLB WQ ACCESS:          0
DTLB WQ TO_CACHE:          0
DTLB WQ MERGED:          0
DTLB WQ FORWARD:          0
L1D TOTAL     ACCESS:   69663126  HIT:   68607839  MISS:    1055287
L1D LOAD      ACCESS:   28862076  HIT:   28707584  MISS:     154492
L1D RFO       ACCESS:   14948870  HIT:   14947396  MISS:       1474
L1D PREFETCH  ACCESS:   25852180  HIT:   24952859  MISS:     899321
L1D WRITEBACK ACCESS:          0  HIT:          0  MISS:          0
L1D PREFETCH  REQUESTED:   28871653  ISSUED:   27863317  USEFUL:     820473  USELESS:      78854
L1D TOTAL MSHR MERGED:      30295
L1D LOAD MSHR MERGED:       9669
L1D RFO MSHR MERGED:       2929
L1D PREFETCH MSHR MERGED:      17697
L1D WRITEBACK MSHR MERGED:          0
L1D TOTAL ACCESSES:   69693454 HITS:   68607868 MISSES:    1085586
L1D LOAD ACCESSES:   28871653 HITS:   28707584 MISSES:     164069
L1D RFO ACCESSES:   14951796 HITS:   14947396 MISSES:       4400
L1D PREFETCH ACCESSES:   25870005 HITS:   24952888 MISSES:     917117
L1D WRITEBACK ACCESSES:          0 HITS:          0 MISSES:          0
L1D RQ ACCESS:   40871418
L1D RQ TO_CACHE:   28871654
L1D RQ MERGED:   11999764
L1D RQ FORWARD:          0
L1D WQ ACCESS:   15191340
L1D WQ TO_CACHE:   14951796
L1D WQ MERGED:     239544
L1D WQ FORWARD:         29
L1I TOTAL     ACCESS:   48094439  HIT:   48094353  MISS:         86
L1I LOAD      ACCESS:   48094439  HIT:   48094353  MISS:         86
L1I RFO       ACCESS:          0  HIT:          0  MISS:          0
L1I PREFETCH  ACCESS:          0  HIT:          0  MISS:          0
L1I WRITEBACK ACCESS:          0  HIT:          0  MISS:          0
L1I PREFETCH  REQUESTED:          0  ISSUED:          0  USEFUL:          0  USELESS:          0
L1I TOTAL MSHR MERGED:         59
L1I LOAD MSHR MERGED:         59
L1I RFO MSHR MERGED:          0
L1I PREFETCH MSHR MERGED:          0
L1I WRITEBACK MSHR MERGED:          0
L1I TOTAL ACCESSES:   48094498 HITS:   48094353 MISSES:        145
L1I LOAD ACCESSES:   48094498 HITS:   48094353 MISSES:        145
L1I RFO ACCESSES:          0 HITS:          0 MISSES:          0
L1I PREFETCH ACCESSES:          0 HITS:          0 MISSES:          0
L1I WRITEBACK ACCESSES:          0 HITS:          0 MISSES:          0
L1I RQ ACCESS:  150000001
L1I RQ TO_CACHE:   48094498
L1I RQ MERGED:  101905503
L1I RQ FORWARD:          0
L1I WQ ACCESS:          0
L1I WQ TO_CACHE:          0
L1I WQ MERGED:          0
L1I WQ FORWARD:          0
L2C TOTAL     ACCESS:    1356896  HIT:    1301907  MISS:      54989
L2C LOAD      ACCESS:     154484  HIT:     150306  MISS:       4178
L2C RFO       ACCESS:       1468  HIT:       1376  MISS:         92
L2C PREFETCH  ACCESS:     908504  HIT:     857793  MISS:      50711
L2C WRITEBACK ACCESS:     292440  HIT:     292432  MISS:          8
L2C PREFETCH  REQUESTED:      11275  ISSUED:      11275  USEFUL:       3024  USELESS:      48026
L2C TOTAL MSHR MERGED:          2
L2C LOAD MSHR MERGED:          0
L2C RFO MSHR MERGED:          0
L2C PREFETCH MSHR MERGED:          2
L2C WRITEBACK MSHR MERGED:          0
L2C TOTAL ACCESSES:    1356910 HITS:    1301913 MISSES:      54997
L2C LOAD ACCESSES:     154486 HITS:     150306 MISSES:       4180
L2C RFO ACCESSES:       1471 HITS:       1379 MISSES:         92
L2C PREFETCH ACCESSES:     908513 HITS:     857796 MISSES:      50717
L2C WRITEBACK ACCESSES:     292440 HITS:     292432 MISSES:          8
L2C RQ ACCESS:     155957
L2C RQ TO_CACHE:     155954
L2C RQ MERGED:          0
L2C RQ FORWARD:          0
L2C WQ ACCESS:     292440
L2C WQ TO_CACHE:     292440
L2C WQ MERGED:          0
L2C WQ FORWARD:          6
LLC TOTAL     ACCESS:      56515  HIT:       4082  MISS:      52433
LLC LOAD      ACCESS:       4178  HIT:        998  MISS:       3180
LLC RFO       ACCESS:         92  HIT:         92  MISS:          0
LLC PREFETCH  ACCESS:      50713  HIT:       1497  MISS:      49216
LLC WRITEBACK ACCESS:       1532  HIT:       1495  MISS:         37
LLC PREFETCH  REQUESTED:          0  ISSUED:          0  USEFUL:        544  USELESS:      37295
LLC TOTAL MSHR MERGED:          0
LLC LOAD MSHR MERGED:          0
LLC RFO MSHR MERGED:          0
LLC PREFETCH MSHR MERGED:          0
LLC WRITEBACK MSHR MERGED:          0
LLC TOTAL ACCESSES:      56519 HITS:       4082 MISSES:      52437
LLC LOAD ACCESSES:       4180 HITS:        998 MISSES:       3182
LLC RFO ACCESSES:         92 HITS:         92 MISSES:          0
LLC PREFETCH ACCESSES:      50715 HITS:       1497 MISSES:      49218
LLC WRITEBACK ACCESSES:       1532 HITS:       1495 MISSES:         37
LLC 0 RQ ACCESS:       4272
LLC 0 RQ TO_CACHE:       4272
LLC 0 RQ MERGED:          0
LLC 0 RQ FORWARD:          0
LLC WQ ACCESS:       1532
LLC WQ TO_CACHE:       1532
LLC WQ MERGED:          0
LLC WQ FORWARD:          0
Major fault: 0 Minor fault: 2167
CPU 0 L1D next line prefetcher final stats
CPU 0 L2C PC-based stride prefetcher final stats

DRAM Statistics
 CHANNEL 0
 RQ ROW_BUFFER_HIT:      41518  ROW_BUFFER_MISS:      10845
 DBUS_CONGESTED:       3785
 WQ ROW_BUFFER_HIT:        229  ROW_BUFFER_MISS:        638  FULL:          0

 AVG_CONGESTED_CYCLE: 12
LOADS RETIRED: 42808774
INSTR RETIRED: 150000000
