
*** ChampSim Multicore Out-of-Order Simulator ***

Warmup Instructions: 100000000
Simulation Instructions: 150000000
Number of CPUs: 1
LLC sets: 2048
LLC ways: 16
Clean RRIP Policies: 0 Dirty RRIP Policies: 0 PSEL Width: 10 Track Set: 4294967295 PSEL Mask: 15 Demote Mask: 0DS Algo: 0Window size: 64
Off-chip DRAM Size: 4096 MB Channels: 1 Width: 64-bit Data Rate: 1600 MT/s

CPU 0 runs /mnt/beegfs/pchatz06/traces/544.nab_r.refrate.input1.region_9.w_0.07791.trace.gz
NOT SORTED
TRACE STRING: /mnt/beegfs/pchatz06/traces/544.nab_r.refrate.input1.region_9.w_0.07791.trace.gz
SORTED
TRACE STRING: /mnt/beegfs/pchatz06/traces/544.nab_r.refrate.input1.region_9.w_0.07791.trace.gz
INITIAL
TRACE STRING: /mnt/beegfs/pchatz06/traces/544.nab_r.refrate.input1.region_9.w_0.07791.trace.gz

champsim_seed used: 264

CPU 0 L1D next line prefetcher
CPU 0 L2C IP-based stride prefetcher
Heartbeat CPU 0 instructions: 10000003 cycles: 4690749 heartbeat IPC: 2.13186 cumulative IPC: 2.13186 (Simulation time: 0 hr 0 min 19 sec) 
Heartbeat CPU 0 instructions: 20000000 cycles: 9381203 heartbeat IPC: 2.13199 cumulative IPC: 2.13192 (Simulation time: 0 hr 0 min 39 sec) 
Heartbeat CPU 0 instructions: 30000001 cycles: 14071759 heartbeat IPC: 2.13194 cumulative IPC: 2.13193 (Simulation time: 0 hr 0 min 58 sec) 
Heartbeat CPU 0 instructions: 40000000 cycles: 18763156 heartbeat IPC: 2.13156 cumulative IPC: 2.13184 (Simulation time: 0 hr 1 min 18 sec) 
Heartbeat CPU 0 instructions: 50000002 cycles: 23451249 heartbeat IPC: 2.13306 cumulative IPC: 2.13208 (Simulation time: 0 hr 1 min 37 sec) 
Heartbeat CPU 0 instructions: 60000000 cycles: 28140081 heartbeat IPC: 2.13273 cumulative IPC: 2.13219 (Simulation time: 0 hr 1 min 57 sec) 
Heartbeat CPU 0 instructions: 70000000 cycles: 32828431 heartbeat IPC: 2.13295 cumulative IPC: 2.1323 (Simulation time: 0 hr 2 min 17 sec) 
Heartbeat CPU 0 instructions: 80000000 cycles: 37519365 heartbeat IPC: 2.13177 cumulative IPC: 2.13223 (Simulation time: 0 hr 2 min 36 sec) 
Heartbeat CPU 0 instructions: 90000003 cycles: 42212004 heartbeat IPC: 2.131 cumulative IPC: 2.1321 (Simulation time: 0 hr 2 min 56 sec) 
Heartbeat CPU 0 instructions: 100000000 cycles: 46900393 heartbeat IPC: 2.13293 cumulative IPC: 2.13218 (Simulation time: 0 hr 3 min 15 sec) 

Warmup complete CPU 0 instructions: 100000002 cycles: 46900394 (Simulation time: 0 hr 3 min 15 sec) 

Heartbeat CPU 0 instructions: 110000002 cycles: 58701315 heartbeat IPC: 0.847392 cumulative IPC: 0.847391 (Simulation time: 0 hr 3 min 42 sec) 
Heartbeat CPU 0 instructions: 120000000 cycles: 70475078 heartbeat IPC: 0.849346 cumulative IPC: 0.848368 (Simulation time: 0 hr 4 min 10 sec) 
Heartbeat CPU 0 instructions: 130000000 cycles: 82250432 heartbeat IPC: 0.849231 cumulative IPC: 0.848655 (Simulation time: 0 hr 4 min 37 sec) 
Heartbeat CPU 0 instructions: 140000000 cycles: 94039462 heartbeat IPC: 0.848246 cumulative IPC: 0.848553 (Simulation time: 0 hr 5 min 4 sec) 
Heartbeat CPU 0 instructions: 150000000 cycles: 105849650 heartbeat IPC: 0.846727 cumulative IPC: 0.848187 (Simulation time: 0 hr 5 min 31 sec) 
Heartbeat CPU 0 instructions: 160000000 cycles: 117680334 heartbeat IPC: 0.84526 cumulative IPC: 0.847698 (Simulation time: 0 hr 5 min 57 sec) 
Heartbeat CPU 0 instructions: 170000000 cycles: 129457214 heartbeat IPC: 0.849121 cumulative IPC: 0.847901 (Simulation time: 0 hr 6 min 24 sec) 
Heartbeat CPU 0 instructions: 180000000 cycles: 141284172 heartbeat IPC: 0.845526 cumulative IPC: 0.847603 (Simulation time: 0 hr 6 min 51 sec) 
Heartbeat CPU 0 instructions: 190000001 cycles: 153147681 heartbeat IPC: 0.842921 cumulative IPC: 0.84708 (Simulation time: 0 hr 7 min 18 sec) 
Heartbeat CPU 0 instructions: 200000000 cycles: 164980793 heartbeat IPC: 0.845086 cumulative IPC: 0.846881 (Simulation time: 0 hr 7 min 45 sec) 
Heartbeat CPU 0 instructions: 210000003 cycles: 176783609 heartbeat IPC: 0.847256 cumulative IPC: 0.846915 (Simulation time: 0 hr 8 min 12 sec) 
Heartbeat CPU 0 instructions: 220000000 cycles: 188588991 heartbeat IPC: 0.847071 cumulative IPC: 0.846928 (Simulation time: 0 hr 8 min 38 sec) 
Heartbeat CPU 0 instructions: 230000001 cycles: 200392317 heartbeat IPC: 0.847219 cumulative IPC: 0.84695 (Simulation time: 0 hr 9 min 4 sec) 
Heartbeat CPU 0 instructions: 240000000 cycles: 212207672 heartbeat IPC: 0.846356 cumulative IPC: 0.846908 (Simulation time: 0 hr 9 min 31 sec) 
*** Reached end of trace for Core: 0 Repeating trace: /mnt/beegfs/pchatz06/traces/544.nab_r.refrate.input1.region_9.w_0.07791.trace.gz
Heartbeat CPU 0 instructions: 250000002 cycles: 224105944 heartbeat IPC: 0.840458 cumulative IPC: 0.846475 (Simulation time: 0 hr 9 min 57 sec) 
Finished CPU 0 instructions: 150000000 cycles: 177205550 cumulative IPC: 0.846475 (Simulation time: 0 hr 9 min 57 sec) 

CPU 0 Branch Prediction Accuracy: 99.9179% MPKI: 0.06076
Number of Branches: 11095287 Number of Mispredictions: 9114
Number of LOAD Instructions: 68504744
Number of LOAD Instructions (ROI): 68504744
Number of STORE Instructions: 10555485
Number of STORE Instructions (ROI): 10555485
Total Destination Memory Operands: 10555487
Total Destination Memory Operands (ROI): 10555487
Total Source Memory Operands: 68504744
Total Source Memory Operands (ROI): 68504744
Number of DEPENDED LOADS: 28188
Number of DEPENDED LOADS (ROI): 28188
Number of SQ_ADDED: 10555484
Number of SQ_ADDED (ROI): 10555484
Number of LQ_ADDED: 68504742
Number of LQ_ADDED (ROI): 68504742
Number of Instructions read from trace: 250000044

ChampSim completed all CPUs

Region of Interest Statistics

CPU 0 cumulative IPC: 0.846475 instructions: 150000000 cycles: 177205550
ITLB TOTAL     ACCESS:   39685078  HIT:   39685072  MISS:          6
ITLB LOAD      ACCESS:   39685078  HIT:   39685072  MISS:          6
ITLB RFO       ACCESS:          0  HIT:          0  MISS:          0
ITLB PREFETCH  ACCESS:          0  HIT:          0  MISS:          0
ITLB WRITEBACK ACCESS:          0  HIT:          0  MISS:          0
ITLB PREFETCH  REQUESTED:          0  ISSUED:          0  USEFUL:          0  USELESS:          0
ITLB TOTAL MSHR MERGED:          2
ITLB LOAD MSHR MERGED:          2
ITLB RFO MSHR MERGED:          0
ITLB PREFETCH MSHR MERGED:          0
ITLB WRITEBACK MSHR MERGED:          0
ITLB TOTAL ACCESSES:   39685080 HITS:   39685072 MISSES:          8
ITLB LOAD ACCESSES:   39685080 HITS:   39685072 MISSES:          8
ITLB RFO ACCESSES:          0 HITS:          0 MISSES:          0
ITLB PREFETCH ACCESSES:          0 HITS:          0 MISSES:          0
ITLB WRITEBACK ACCESSES:          0 HITS:          0 MISSES:          0
ITLB RQ ACCESS:  149999788
ITLB RQ TO_CACHE:   39685079
ITLB RQ MERGED:  110314709
ITLB RQ FORWARD:          0
ITLB WQ ACCESS:          0
ITLB WQ TO_CACHE:          0
ITLB WQ MERGED:          0
ITLB WQ FORWARD:          0
DTLB TOTAL     ACCESS:   35883404  HIT:   35879355  MISS:       4049
DTLB LOAD      ACCESS:   31126530  HIT:   31122489  MISS:       4041
DTLB RFO       ACCESS:    4756874  HIT:    4756866  MISS:          8
DTLB PREFETCH  ACCESS:          0  HIT:          0  MISS:          0
DTLB WRITEBACK ACCESS:          0  HIT:          0  MISS:          0
DTLB PREFETCH  REQUESTED:          0  ISSUED:          0  USEFUL:          0  USELESS:          0
DTLB TOTAL MSHR MERGED:       5975
DTLB LOAD MSHR MERGED:       5974
DTLB RFO MSHR MERGED:          1
DTLB PREFETCH MSHR MERGED:          0
DTLB WRITEBACK MSHR MERGED:          0
DTLB TOTAL ACCESSES:   35889379 HITS:   35879355 MISSES:      10024
DTLB LOAD ACCESSES:   31132504 HITS:   31122489 MISSES:      10015
DTLB RFO ACCESSES:    4756875 HITS:    4756866 MISSES:          9
DTLB PREFETCH ACCESSES:          0 HITS:          0 MISSES:          0
DTLB WRITEBACK ACCESSES:          0 HITS:          0 MISSES:          0
DTLB RQ ACCESS:   47415776
DTLB RQ TO_CACHE:   35889379
DTLB RQ MERGED:   11526397
DTLB RQ FORWARD:          0
DTLB WQ ACCESS:          0
DTLB WQ TO_CACHE:          0
DTLB WQ MERGED:          0
DTLB WQ FORWARD:          0
L1D TOTAL     ACCESS:   71807716  HIT:   69978078  MISS:    1829638
L1D LOAD      ACCESS:   34730378  HIT:   34561603  MISS:     168775
L1D RFO       ACCESS:    6326330  HIT:    6323585  MISS:       2745
L1D PREFETCH  ACCESS:   30751008  HIT:   29092890  MISS:    1658118
L1D WRITEBACK ACCESS:          0  HIT:          0  MISS:          0
L1D PREFETCH  REQUESTED:   34748527  ISSUED:   32965878  USEFUL:    1537865  USELESS:     120203
L1D TOTAL MSHR MERGED:     100836
L1D LOAD MSHR MERGED:      18610
L1D RFO MSHR MERGED:       6506
L1D PREFETCH MSHR MERGED:      75720
L1D WRITEBACK MSHR MERGED:          0
L1D TOTAL ACCESSES:   71914747 HITS:   69984268 MISSES:    1930479
L1D LOAD ACCESSES:   34748527 HITS:   34561603 MISSES:     186924
L1D RFO ACCESSES:    6332836 HITS:    6323585 MISSES:       9251
L1D PREFETCH ACCESSES:   30833384 HITS:   29099080 MISSES:    1734304
L1D WRITEBACK ACCESSES:          0 HITS:          0 MISSES:          0
L1D RQ ACCESS:   41082937
L1D RQ TO_CACHE:   34748527
L1D RQ MERGED:    6334410
L1D RQ FORWARD:          0
L1D WQ ACCESS:    6332840
L1D WQ TO_CACHE:    6332840
L1D WQ MERGED:          0
L1D WQ FORWARD:       6190
L1I TOTAL     ACCESS:   47455709  HIT:   47455686  MISS:         23
L1I LOAD      ACCESS:   47455709  HIT:   47455686  MISS:         23
L1I RFO       ACCESS:          0  HIT:          0  MISS:          0
L1I PREFETCH  ACCESS:          0  HIT:          0  MISS:          0
L1I WRITEBACK ACCESS:          0  HIT:          0  MISS:          0
L1I PREFETCH  REQUESTED:          0  ISSUED:          0  USEFUL:          0  USELESS:          0
L1I TOTAL MSHR MERGED:          2
L1I LOAD MSHR MERGED:          2
L1I RFO MSHR MERGED:          0
L1I PREFETCH MSHR MERGED:          0
L1I WRITEBACK MSHR MERGED:          0
L1I TOTAL ACCESSES:   47455711 HITS:   47455686 MISSES:         25
L1I LOAD ACCESSES:   47455711 HITS:   47455686 MISSES:         25
L1I RFO ACCESSES:          0 HITS:          0 MISSES:          0
L1I PREFETCH ACCESSES:          0 HITS:          0 MISSES:          0
L1I WRITEBACK ACCESSES:          0 HITS:          0 MISSES:          0
L1I RQ ACCESS:  149999790
L1I RQ TO_CACHE:   47455711
L1I RQ MERGED:  102544079
L1I RQ FORWARD:          0
L1I WQ ACCESS:          0
L1I WQ TO_CACHE:          0
L1I WQ MERGED:          0
L1I WQ FORWARD:          0
L2C TOTAL     ACCESS:    2419113  HIT:    2301773  MISS:     117340
L2C LOAD      ACCESS:     168334  HIT:     160418  MISS:       7916
L2C RFO       ACCESS:       2741  HIT:       2634  MISS:        107
L2C PREFETCH  ACCESS:    1672041  HIT:    1562806  MISS:     109235
L2C WRITEBACK ACCESS:     575997  HIT:     575915  MISS:         82
L2C PREFETCH  REQUESTED:      16795  ISSUED:      16795  USEFUL:       4280  USELESS:     104401
L2C TOTAL MSHR MERGED:          1
L2C LOAD MSHR MERGED:          0
L2C RFO MSHR MERGED:          0
L2C PREFETCH MSHR MERGED:          1
L2C WRITEBACK MSHR MERGED:          0
L2C TOTAL ACCESSES:    2419127 HITS:    2301782 MISSES:     117345
L2C LOAD ACCESSES:     168336 HITS:     160418 MISSES:       7918
L2C RFO ACCESSES:       2745 HITS:       2637 MISSES:        108
L2C PREFETCH ACCESSES:    1672049 HITS:    1562812 MISSES:     109237
L2C WRITEBACK ACCESSES:     575997 HITS:     575915 MISSES:         82
L2C RQ ACCESS:     171082
L2C RQ TO_CACHE:     171079
L2C RQ MERGED:          0
L2C RQ FORWARD:          0
L2C WQ ACCESS:     575997
L2C WQ TO_CACHE:     575997
L2C WQ MERGED:          0
L2C WQ FORWARD:          9
LLC TOTAL     ACCESS:     121500  HIT:      12643  MISS:     108857
LLC LOAD      ACCESS:       7916  HIT:       2846  MISS:       5070
LLC RFO       ACCESS:        107  HIT:         50  MISS:         57
LLC PREFETCH  ACCESS:     109234  HIT:       6198  MISS:     103036
LLC WRITEBACK ACCESS:       4243  HIT:       3549  MISS:        694
LLC PREFETCH  REQUESTED:          0  ISSUED:          0  USEFUL:        347  USELESS:     102106
LLC TOTAL MSHR MERGED:          0
LLC LOAD MSHR MERGED:          0
LLC RFO MSHR MERGED:          0
LLC PREFETCH MSHR MERGED:          0
LLC WRITEBACK MSHR MERGED:          0
LLC TOTAL ACCESSES:     121504 HITS:      12644 MISSES:     108860
LLC LOAD ACCESSES:       7918 HITS:       2846 MISSES:       5072
LLC RFO ACCESSES:        107 HITS:         50 MISSES:         57
LLC PREFETCH ACCESSES:     109236 HITS:       6199 MISSES:     103037
LLC WRITEBACK ACCESSES:       4243 HITS:       3549 MISSES:        694
LLC 0 RQ ACCESS:       8026
LLC 0 RQ TO_CACHE:       8026
LLC 0 RQ MERGED:          0
LLC 0 RQ FORWARD:          0
LLC WQ ACCESS:       4243
LLC WQ TO_CACHE:       4243
LLC WQ MERGED:          0
LLC WQ FORWARD:          1
Major fault: 0 Minor fault: 6735
CPU 0 L1D next line prefetcher final stats
CPU 0 L2C PC-based stride prefetcher final stats

DRAM Statistics
 CHANNEL 0
 RQ ROW_BUFFER_HIT:      95123  ROW_BUFFER_MISS:      12994
 DBUS_CONGESTED:       7259
 WQ ROW_BUFFER_HIT:        359  ROW_BUFFER_MISS:       1269  FULL:          0

 AVG_CONGESTED_CYCLE: 12
LOADS RETIRED: 41100875
INSTR RETIRED: 150000000
