
*** ChampSim Multicore Out-of-Order Simulator ***

Warmup Instructions: 100000000
Simulation Instructions: 150000000
Number of CPUs: 1
LLC sets: 2048
LLC ways: 16
Clean RRIP Policies: 0 Dirty RRIP Policies: 0 PSEL Width: 10 Track Set: 4294967295 PSEL Mask: 15 Demote Mask: 0DS Algo: 0Window size: 64
Off-chip DRAM Size: 4096 MB Channels: 1 Width: 64-bit Data Rate: 1600 MT/s

CPU 0 runs /mnt/beegfs/pchatz06/traces/544.nab_r.refrate.input1.region_11.w_0.33246.trace.gz
NOT SORTED
TRACE STRING: /mnt/beegfs/pchatz06/traces/544.nab_r.refrate.input1.region_11.w_0.33246.trace.gz
SORTED
TRACE STRING: /mnt/beegfs/pchatz06/traces/544.nab_r.refrate.input1.region_11.w_0.33246.trace.gz
INITIAL
TRACE STRING: /mnt/beegfs/pchatz06/traces/544.nab_r.refrate.input1.region_11.w_0.33246.trace.gz

champsim_seed used: 258

CPU 0 L1D next line prefetcher
CPU 0 L2C IP-based stride prefetcher
Heartbeat CPU 0 instructions: 10000000 cycles: 5846952 heartbeat IPC: 1.71029 cumulative IPC: 1.71029 (Simulation time: 0 hr 0 min 22 sec) 
Heartbeat CPU 0 instructions: 20000000 cycles: 11688128 heartbeat IPC: 1.71198 cumulative IPC: 1.71114 (Simulation time: 0 hr 0 min 45 sec) 
Heartbeat CPU 0 instructions: 30000002 cycles: 17530225 heartbeat IPC: 1.71171 cumulative IPC: 1.71133 (Simulation time: 0 hr 1 min 7 sec) 
Heartbeat CPU 0 instructions: 40000000 cycles: 23379641 heartbeat IPC: 1.70957 cumulative IPC: 1.71089 (Simulation time: 0 hr 1 min 29 sec) 
Heartbeat CPU 0 instructions: 50000001 cycles: 29224386 heartbeat IPC: 1.71094 cumulative IPC: 1.7109 (Simulation time: 0 hr 1 min 52 sec) 
Heartbeat CPU 0 instructions: 60000000 cycles: 35068040 heartbeat IPC: 1.71126 cumulative IPC: 1.71096 (Simulation time: 0 hr 2 min 14 sec) 
Heartbeat CPU 0 instructions: 70000002 cycles: 40906265 heartbeat IPC: 1.71285 cumulative IPC: 1.71123 (Simulation time: 0 hr 2 min 36 sec) 
Heartbeat CPU 0 instructions: 80000000 cycles: 46751233 heartbeat IPC: 1.71087 cumulative IPC: 1.71118 (Simulation time: 0 hr 2 min 58 sec) 
Heartbeat CPU 0 instructions: 90000001 cycles: 52594922 heartbeat IPC: 1.71125 cumulative IPC: 1.71119 (Simulation time: 0 hr 3 min 21 sec) 
Heartbeat CPU 0 instructions: 100000000 cycles: 58434874 heartbeat IPC: 1.71234 cumulative IPC: 1.71131 (Simulation time: 0 hr 3 min 43 sec) 

Warmup complete CPU 0 instructions: 100000001 cycles: 58434879 (Simulation time: 0 hr 3 min 43 sec) 

Heartbeat CPU 0 instructions: 110000000 cycles: 72713869 heartbeat IPC: 0.700329 cumulative IPC: 0.70033 (Simulation time: 0 hr 4 min 13 sec) 
Heartbeat CPU 0 instructions: 120000000 cycles: 86983155 heartbeat IPC: 0.700806 cumulative IPC: 0.700568 (Simulation time: 0 hr 4 min 44 sec) 
Heartbeat CPU 0 instructions: 130000000 cycles: 101267110 heartbeat IPC: 0.700086 cumulative IPC: 0.700407 (Simulation time: 0 hr 5 min 14 sec) 
Heartbeat CPU 0 instructions: 140000000 cycles: 115555193 heartbeat IPC: 0.699884 cumulative IPC: 0.700276 (Simulation time: 0 hr 5 min 44 sec) 
Heartbeat CPU 0 instructions: 150000003 cycles: 129838100 heartbeat IPC: 0.700138 cumulative IPC: 0.700249 (Simulation time: 0 hr 6 min 15 sec) 
Heartbeat CPU 0 instructions: 160000000 cycles: 144119229 heartbeat IPC: 0.700225 cumulative IPC: 0.700245 (Simulation time: 0 hr 6 min 45 sec) 
Heartbeat CPU 0 instructions: 170000002 cycles: 158409874 heartbeat IPC: 0.699759 cumulative IPC: 0.700175 (Simulation time: 0 hr 7 min 15 sec) 
Heartbeat CPU 0 instructions: 180000000 cycles: 172678536 heartbeat IPC: 0.700836 cumulative IPC: 0.700258 (Simulation time: 0 hr 7 min 46 sec) 
Heartbeat CPU 0 instructions: 190000001 cycles: 186957707 heartbeat IPC: 0.700321 cumulative IPC: 0.700265 (Simulation time: 0 hr 8 min 16 sec) 
Heartbeat CPU 0 instructions: 200000000 cycles: 201260987 heartbeat IPC: 0.69914 cumulative IPC: 0.700152 (Simulation time: 0 hr 8 min 47 sec) 
Heartbeat CPU 0 instructions: 210000001 cycles: 215569065 heartbeat IPC: 0.698906 cumulative IPC: 0.700039 (Simulation time: 0 hr 9 min 17 sec) 
Heartbeat CPU 0 instructions: 220000000 cycles: 229855888 heartbeat IPC: 0.699946 cumulative IPC: 0.700031 (Simulation time: 0 hr 9 min 47 sec) 
Heartbeat CPU 0 instructions: 230000000 cycles: 244133283 heartbeat IPC: 0.700408 cumulative IPC: 0.70006 (Simulation time: 0 hr 10 min 18 sec) 
Heartbeat CPU 0 instructions: 240000000 cycles: 258434026 heartbeat IPC: 0.699264 cumulative IPC: 0.700003 (Simulation time: 0 hr 10 min 48 sec) 
*** Reached end of trace for Core: 0 Repeating trace: /mnt/beegfs/pchatz06/traces/544.nab_r.refrate.input1.region_11.w_0.33246.trace.gz
Heartbeat CPU 0 instructions: 250000000 cycles: 272732835 heartbeat IPC: 0.699359 cumulative IPC: 0.69996 (Simulation time: 0 hr 11 min 18 sec) 
Finished CPU 0 instructions: 150000000 cycles: 214297957 cumulative IPC: 0.69996 (Simulation time: 0 hr 11 min 18 sec) 

CPU 0 Branch Prediction Accuracy: 99.9711% MPKI: 0.0197067
Number of Branches: 10217819 Number of Mispredictions: 2956
Number of LOAD Instructions: 78078826
Number of LOAD Instructions (ROI): 78078826
Number of STORE Instructions: 29225170
Number of STORE Instructions (ROI): 29225170
Total Destination Memory Operands: 29904133
Total Destination Memory Operands (ROI): 29904133
Total Source Memory Operands: 78078826
Total Source Memory Operands (ROI): 78078826
Number of DEPENDED LOADS: 4707264
Number of DEPENDED LOADS (ROI): 4707264
Number of SQ_ADDED: 29904101
Number of SQ_ADDED (ROI): 29904101
Number of LQ_ADDED: 121071186
Number of LQ_ADDED (ROI): 121071186
Number of Instructions read from trace: 250000256

ChampSim completed all CPUs

Region of Interest Statistics

CPU 0 cumulative IPC: 0.69996 instructions: 150000000 cycles: 214297957
ITLB TOTAL     ACCESS:   46809680  HIT:   46809680  MISS:          0
ITLB LOAD      ACCESS:   46809680  HIT:   46809680  MISS:          0
ITLB RFO       ACCESS:          0  HIT:          0  MISS:          0
ITLB PREFETCH  ACCESS:          0  HIT:          0  MISS:          0
ITLB WRITEBACK ACCESS:          0  HIT:          0  MISS:          0
ITLB PREFETCH  REQUESTED:          0  ISSUED:          0  USEFUL:          0  USELESS:          0
ITLB TOTAL MSHR MERGED:          0
ITLB LOAD MSHR MERGED:          0
ITLB RFO MSHR MERGED:          0
ITLB PREFETCH MSHR MERGED:          0
ITLB WRITEBACK MSHR MERGED:          0
ITLB TOTAL ACCESSES:   46809680 HITS:   46809680 MISSES:          0
ITLB LOAD ACCESSES:   46809680 HITS:   46809680 MISSES:          0
ITLB RFO ACCESSES:          0 HITS:          0 MISSES:          0
ITLB PREFETCH ACCESSES:          0 HITS:          0 MISSES:          0
ITLB WRITEBACK ACCESSES:          0 HITS:          0 MISSES:          0
ITLB RQ ACCESS:  150000000
ITLB RQ TO_CACHE:   46809680
ITLB RQ MERGED:  103190320
ITLB RQ FORWARD:          0
ITLB WQ ACCESS:          0
ITLB WQ TO_CACHE:          0
ITLB WQ MERGED:          0
ITLB WQ FORWARD:          0
DTLB TOTAL     ACCESS:   42069758  HIT:   42068760  MISS:        998
DTLB LOAD      ACCESS:   29796227  HIT:   29795244  MISS:        983
DTLB RFO       ACCESS:   12273531  HIT:   12273516  MISS:         15
DTLB PREFETCH  ACCESS:          0  HIT:          0  MISS:          0
DTLB WRITEBACK ACCESS:          0  HIT:          0  MISS:          0
DTLB PREFETCH  REQUESTED:          0  ISSUED:          0  USEFUL:          0  USELESS:          0
DTLB TOTAL MSHR MERGED:         81
DTLB LOAD MSHR MERGED:         73
DTLB RFO MSHR MERGED:          8
DTLB PREFETCH MSHR MERGED:          0
DTLB WRITEBACK MSHR MERGED:          0
DTLB TOTAL ACCESSES:   42069839 HITS:   42068760 MISSES:       1079
DTLB LOAD ACCESSES:   29796300 HITS:   29795244 MISSES:       1056
DTLB RFO ACCESSES:   12273539 HITS:   12273516 MISSES:         23
DTLB PREFETCH ACCESSES:          0 HITS:          0 MISSES:          0
DTLB WRITEBACK ACCESSES:          0 HITS:          0 MISSES:          0
DTLB RQ ACCESS:   61964172
DTLB RQ TO_CACHE:   42069839
DTLB RQ MERGED:   19894333
DTLB RQ FORWARD:          0
DTLB WQ ACCESS:          0
DTLB WQ TO_CACHE:          0
DTLB WQ MERGED:          0
DTLB WQ FORWARD:          0
L1D TOTAL     ACCESS:   76733642  HIT:   75901452  MISS:     832190
L1D LOAD      ACCESS:   31495472  HIT:   31347427  MISS:     148045
L1D RFO       ACCESS:   17540949  HIT:   17539621  MISS:       1328
L1D PREFETCH  ACCESS:   27697221  HIT:   27014404  MISS:     682817
L1D WRITEBACK ACCESS:          0  HIT:          0  MISS:          0
L1D PREFETCH  REQUESTED:   31511707  ISSUED:   30995659  USEFUL:     608230  USELESS:      74619
L1D TOTAL MSHR MERGED:      23589
L1D LOAD MSHR MERGED:      16412
L1D RFO MSHR MERGED:       2747
L1D PREFETCH MSHR MERGED:       4430
L1D WRITEBACK MSHR MERGED:          0
L1D TOTAL ACCESSES:   76757257 HITS:   75901478 MISSES:     855779
L1D LOAD ACCESSES:   31511707 HITS:   31347427 MISSES:     164280
L1D RFO ACCESSES:   17543691 HITS:   17539621 MISSES:       4070
L1D PREFETCH ACCESSES:   27701859 HITS:   27014430 MISSES:     687429
L1D WRITEBACK ACCESSES:          0 HITS:          0 MISSES:          0
L1D RQ ACCESS:   44019194
L1D RQ TO_CACHE:   31511708
L1D RQ MERGED:   12507486
L1D RQ FORWARD:          0
L1D WQ ACCESS:   17944986
L1D WQ TO_CACHE:   17543691
L1D WQ MERGED:     401295
L1D WQ FORWARD:         26
L1I TOTAL     ACCESS:   53192454  HIT:   53192453  MISS:          1
L1I LOAD      ACCESS:   53192454  HIT:   53192453  MISS:          1
L1I RFO       ACCESS:          0  HIT:          0  MISS:          0
L1I PREFETCH  ACCESS:          0  HIT:          0  MISS:          0
L1I WRITEBACK ACCESS:          0  HIT:          0  MISS:          0
L1I PREFETCH  REQUESTED:          0  ISSUED:          0  USEFUL:          0  USELESS:          0
L1I TOTAL MSHR MERGED:          0
L1I LOAD MSHR MERGED:          0
L1I RFO MSHR MERGED:          0
L1I PREFETCH MSHR MERGED:          0
L1I WRITEBACK MSHR MERGED:          0
L1I TOTAL ACCESSES:   53192454 HITS:   53192453 MISSES:          1
L1I LOAD ACCESSES:   53192454 HITS:   53192453 MISSES:          1
L1I RFO ACCESSES:          0 HITS:          0 MISSES:          0
L1I PREFETCH ACCESSES:          0 HITS:          0 MISSES:          0
L1I WRITEBACK ACCESSES:          0 HITS:          0 MISSES:          0
L1I RQ ACCESS:  149999993
L1I RQ TO_CACHE:   53192454
L1I RQ MERGED:   96807539
L1I RQ FORWARD:          0
L1I WQ ACCESS:          0
L1I WQ TO_CACHE:          0
L1I WQ MERGED:          0
L1I WQ FORWARD:          0
L2C TOTAL     ACCESS:    1064769  HIT:    1030323  MISS:      34446
L2C LOAD      ACCESS:     147869  HIT:     144802  MISS:       3067
L2C RFO       ACCESS:       1323  HIT:       1041  MISS:        282
L2C PREFETCH  ACCESS:     687903  HIT:     656807  MISS:      31096
L2C WRITEBACK ACCESS:     227674  HIT:     227673  MISS:          1
L2C PREFETCH  REQUESTED:       6037  ISSUED:       6037  USEFUL:       1951  USELESS:      29291
L2C TOTAL MSHR MERGED:          0
L2C LOAD MSHR MERGED:          0
L2C RFO MSHR MERGED:          0
L2C PREFETCH MSHR MERGED:          0
L2C WRITEBACK MSHR MERGED:          0
L2C TOTAL ACCESSES:    1064769 HITS:    1030323 MISSES:      34446
L2C LOAD ACCESSES:     147869 HITS:     144802 MISSES:       3067
L2C RFO ACCESSES:       1323 HITS:       1041 MISSES:        282
L2C PREFETCH ACCESSES:     687903 HITS:     656807 MISSES:      31096
L2C WRITEBACK ACCESSES:     227674 HITS:     227673 MISSES:          1
L2C RQ ACCESS:     149192
L2C RQ TO_CACHE:     149192
L2C RQ MERGED:          0
L2C RQ FORWARD:          0
L2C WQ ACCESS:     227674
L2C WQ TO_CACHE:     227674
L2C WQ MERGED:          0
L2C WQ FORWARD:          0
LLC TOTAL     ACCESS:      36998  HIT:       8958  MISS:      28040
LLC LOAD      ACCESS:       3067  HIT:       1798  MISS:       1269
LLC RFO       ACCESS:        282  HIT:        282  MISS:          0
LLC PREFETCH  ACCESS:      31096  HIT:       4419  MISS:      26677
LLC WRITEBACK ACCESS:       2553  HIT:       2459  MISS:         94
LLC PREFETCH  REQUESTED:          0  ISSUED:          0  USEFUL:        376  USELESS:      16445
LLC TOTAL MSHR MERGED:          0
LLC LOAD MSHR MERGED:          0
LLC RFO MSHR MERGED:          0
LLC PREFETCH MSHR MERGED:          0
LLC WRITEBACK MSHR MERGED:          0
LLC TOTAL ACCESSES:      36998 HITS:       8958 MISSES:      28040
LLC LOAD ACCESSES:       3067 HITS:       1798 MISSES:       1269
LLC RFO ACCESSES:        282 HITS:        282 MISSES:          0
LLC PREFETCH ACCESSES:      31096 HITS:       4419 MISSES:      26677
LLC WRITEBACK ACCESSES:       2553 HITS:       2459 MISSES:         94
LLC 0 RQ ACCESS:       3349
LLC 0 RQ TO_CACHE:       3349
LLC 0 RQ MERGED:          0
LLC 0 RQ FORWARD:          0
LLC WQ ACCESS:       2553
LLC WQ TO_CACHE:       2553
LLC WQ MERGED:          0
LLC WQ FORWARD:          0
Major fault: 0 Minor fault: 1385
CPU 0 L1D next line prefetcher final stats
CPU 0 L2C PC-based stride prefetcher final stats

DRAM Statistics
 CHANNEL 0
 RQ ROW_BUFFER_HIT:      24797  ROW_BUFFER_MISS:       3135
 DBUS_CONGESTED:       2104
 WQ ROW_BUFFER_HIT:        179  ROW_BUFFER_MISS:        857  FULL:          0

 AVG_CONGESTED_CYCLE: 12
LOADS RETIRED: 46843134
INSTR RETIRED: 150000000
