
*** ChampSim Multicore Out-of-Order Simulator ***

Warmup Instructions: 100000000
Simulation Instructions: 150000000
Number of CPUs: 1
LLC sets: 2048
LLC ways: 16
Clean RRIP Policies: 0 Dirty RRIP Policies: 0 PSEL Width: 10 Track Set: 4294967295 PSEL Mask: 15 Demote Mask: 0DS Algo: 0Window size: 64
Off-chip DRAM Size: 4096 MB Channels: 1 Width: 64-bit Data Rate: 1600 MT/s

CPU 0 runs /mnt/beegfs/pchatz06/traces/548.exchange2_r.test.input1.region_1.w_0.11127.trace.gz
NOT SORTED
TRACE STRING: /mnt/beegfs/pchatz06/traces/548.exchange2_r.test.input1.region_1.w_0.11127.trace.gz
SORTED
TRACE STRING: /mnt/beegfs/pchatz06/traces/548.exchange2_r.test.input1.region_1.w_0.11127.trace.gz
INITIAL
TRACE STRING: /mnt/beegfs/pchatz06/traces/548.exchange2_r.test.input1.region_1.w_0.11127.trace.gz

champsim_seed used: 252

CPU 0 L1D next line prefetcher
CPU 0 L2C IP-based stride prefetcher
Heartbeat CPU 0 instructions: 10000000 cycles: 5832756 heartbeat IPC: 1.71446 cumulative IPC: 1.71446 (Simulation time: 0 hr 0 min 15 sec) 
Heartbeat CPU 0 instructions: 20000000 cycles: 11690257 heartbeat IPC: 1.70721 cumulative IPC: 1.71083 (Simulation time: 0 hr 0 min 31 sec) 
Heartbeat CPU 0 instructions: 30000001 cycles: 17701973 heartbeat IPC: 1.66342 cumulative IPC: 1.69473 (Simulation time: 0 hr 0 min 47 sec) 
Heartbeat CPU 0 instructions: 40000000 cycles: 23700117 heartbeat IPC: 1.66718 cumulative IPC: 1.68776 (Simulation time: 0 hr 1 min 3 sec) 
Heartbeat CPU 0 instructions: 50000003 cycles: 29609974 heartbeat IPC: 1.69209 cumulative IPC: 1.68862 (Simulation time: 0 hr 1 min 19 sec) 
Heartbeat CPU 0 instructions: 60000000 cycles: 35456501 heartbeat IPC: 1.71042 cumulative IPC: 1.69221 (Simulation time: 0 hr 1 min 35 sec) 
Heartbeat CPU 0 instructions: 70000003 cycles: 41291548 heartbeat IPC: 1.71378 cumulative IPC: 1.69526 (Simulation time: 0 hr 1 min 51 sec) 
Heartbeat CPU 0 instructions: 80000000 cycles: 47115716 heartbeat IPC: 1.71698 cumulative IPC: 1.69795 (Simulation time: 0 hr 2 min 6 sec) 
Heartbeat CPU 0 instructions: 90000003 cycles: 52956067 heartbeat IPC: 1.71223 cumulative IPC: 1.69952 (Simulation time: 0 hr 2 min 22 sec) 
Heartbeat CPU 0 instructions: 100000000 cycles: 58474831 heartbeat IPC: 1.812 cumulative IPC: 1.71014 (Simulation time: 0 hr 2 min 38 sec) 

Warmup complete CPU 0 instructions: 100000001 cycles: 58474844 (Simulation time: 0 hr 2 min 38 sec) 

Heartbeat CPU 0 instructions: 110000003 cycles: 67275039 heartbeat IPC: 1.13634 cumulative IPC: 1.13634 (Simulation time: 0 hr 2 min 57 sec) 
Heartbeat CPU 0 instructions: 120000000 cycles: 75848185 heartbeat IPC: 1.16643 cumulative IPC: 1.15119 (Simulation time: 0 hr 3 min 16 sec) 
Heartbeat CPU 0 instructions: 130000002 cycles: 84006149 heartbeat IPC: 1.2258 cumulative IPC: 1.17503 (Simulation time: 0 hr 3 min 35 sec) 
Heartbeat CPU 0 instructions: 140000000 cycles: 92818076 heartbeat IPC: 1.13483 cumulative IPC: 1.16471 (Simulation time: 0 hr 3 min 54 sec) 
Heartbeat CPU 0 instructions: 150000001 cycles: 102001613 heartbeat IPC: 1.08891 cumulative IPC: 1.14872 (Simulation time: 0 hr 4 min 13 sec) 
Heartbeat CPU 0 instructions: 160000000 cycles: 110842498 heartbeat IPC: 1.13111 cumulative IPC: 1.14575 (Simulation time: 0 hr 4 min 31 sec) 
Heartbeat CPU 0 instructions: 170000000 cycles: 119770488 heartbeat IPC: 1.12007 cumulative IPC: 1.14201 (Simulation time: 0 hr 4 min 50 sec) 
Heartbeat CPU 0 instructions: 180000000 cycles: 128474066 heartbeat IPC: 1.14895 cumulative IPC: 1.14287 (Simulation time: 0 hr 5 min 9 sec) 
Heartbeat CPU 0 instructions: 190000000 cycles: 137436916 heartbeat IPC: 1.11572 cumulative IPC: 1.13979 (Simulation time: 0 hr 5 min 27 sec) 
Heartbeat CPU 0 instructions: 200000000 cycles: 146272492 heartbeat IPC: 1.13179 cumulative IPC: 1.13898 (Simulation time: 0 hr 5 min 46 sec) 
Heartbeat CPU 0 instructions: 210000003 cycles: 154664521 heartbeat IPC: 1.19161 cumulative IPC: 1.14357 (Simulation time: 0 hr 6 min 5 sec) 
Heartbeat CPU 0 instructions: 220000000 cycles: 162981193 heartbeat IPC: 1.2024 cumulative IPC: 1.14826 (Simulation time: 0 hr 6 min 24 sec) 
Heartbeat CPU 0 instructions: 230000002 cycles: 171688321 heartbeat IPC: 1.14848 cumulative IPC: 1.14827 (Simulation time: 0 hr 6 min 42 sec) 
Heartbeat CPU 0 instructions: 240000000 cycles: 180464916 heartbeat IPC: 1.13939 cumulative IPC: 1.14763 (Simulation time: 0 hr 7 min 1 sec) 
*** Reached end of trace for Core: 0 Repeating trace: /mnt/beegfs/pchatz06/traces/548.exchange2_r.test.input1.region_1.w_0.11127.trace.gz
Heartbeat CPU 0 instructions: 250000000 cycles: 188934432 heartbeat IPC: 1.18071 cumulative IPC: 1.14978 (Simulation time: 0 hr 7 min 20 sec) 
Finished CPU 0 instructions: 150000003 cycles: 130459589 cumulative IPC: 1.14978 (Simulation time: 0 hr 7 min 20 sec) 

CPU 0 Branch Prediction Accuracy: 97.1042% MPKI: 3.50478
Number of Branches: 18154208 Number of Mispredictions: 525717
Number of LOAD Instructions: 88156003
Number of LOAD Instructions (ROI): 88156003
Number of STORE Instructions: 22553887
Number of STORE Instructions (ROI): 22553887
Total Destination Memory Operands: 59571484
Total Destination Memory Operands (ROI): 59571484
Total Source Memory Operands: 88156003
Total Source Memory Operands (ROI): 88156003
Number of DEPENDED LOADS: 35462927
Number of DEPENDED LOADS (ROI): 35462927
Number of SQ_ADDED: 59571483
Number of SQ_ADDED (ROI): 59571483
Number of LQ_ADDED: 1087915693
Number of LQ_ADDED (ROI): 1087915693
Number of Instructions read from trace: 250000053

ChampSim completed all CPUs

Region of Interest Statistics

CPU 0 cumulative IPC: 1.14978 instructions: 150000003 cycles: 130459589
ITLB TOTAL     ACCESS:   26949465  HIT:   26949436  MISS:         29
ITLB LOAD      ACCESS:   26949465  HIT:   26949436  MISS:         29
ITLB RFO       ACCESS:          0  HIT:          0  MISS:          0
ITLB PREFETCH  ACCESS:          0  HIT:          0  MISS:          0
ITLB WRITEBACK ACCESS:          0  HIT:          0  MISS:          0
ITLB PREFETCH  REQUESTED:          0  ISSUED:          0  USEFUL:          0  USELESS:          0
ITLB TOTAL MSHR MERGED:         43
ITLB LOAD MSHR MERGED:         43
ITLB RFO MSHR MERGED:          0
ITLB PREFETCH MSHR MERGED:          0
ITLB WRITEBACK MSHR MERGED:          0
ITLB TOTAL ACCESSES:   26949508 HITS:   26949436 MISSES:         72
ITLB LOAD ACCESSES:   26949508 HITS:   26949436 MISSES:         72
ITLB RFO ACCESSES:          0 HITS:          0 MISSES:          0
ITLB PREFETCH ACCESSES:          0 HITS:          0 MISSES:          0
ITLB WRITEBACK ACCESSES:          0 HITS:          0 MISSES:          0
ITLB RQ ACCESS:  149999862
ITLB RQ TO_CACHE:   26949508
ITLB RQ MERGED:  123050354
ITLB RQ FORWARD:          0
ITLB WQ ACCESS:          0
ITLB WQ TO_CACHE:          0
ITLB WQ MERGED:          0
ITLB WQ FORWARD:          0
DTLB TOTAL     ACCESS:   31595383  HIT:   31595375  MISS:          8
DTLB LOAD      ACCESS:   11820752  HIT:   11820745  MISS:          7
DTLB RFO       ACCESS:   19774631  HIT:   19774630  MISS:          1
DTLB PREFETCH  ACCESS:          0  HIT:          0  MISS:          0
DTLB WRITEBACK ACCESS:          0  HIT:          0  MISS:          0
DTLB PREFETCH  REQUESTED:          0  ISSUED:          0  USEFUL:          0  USELESS:          0
DTLB TOTAL MSHR MERGED:          0
DTLB LOAD MSHR MERGED:          0
DTLB RFO MSHR MERGED:          0
DTLB PREFETCH MSHR MERGED:          0
DTLB WRITEBACK MSHR MERGED:          0
DTLB TOTAL ACCESSES:   31595383 HITS:   31595375 MISSES:          8
DTLB LOAD ACCESSES:   11820752 HITS:   11820745 MISSES:          7
DTLB RFO ACCESSES:   19774631 HITS:   19774630 MISSES:          1
DTLB PREFETCH ACCESSES:          0 HITS:          0 MISSES:          0
DTLB WRITEBACK ACCESSES:          0 HITS:          0 MISSES:          0
DTLB RQ ACCESS:   64860205
DTLB RQ TO_CACHE:   31595383
DTLB RQ MERGED:   33264822
DTLB RQ FORWARD:          0
DTLB WQ ACCESS:          0
DTLB WQ TO_CACHE:          0
DTLB WQ MERGED:          0
DTLB WQ FORWARD:          0
L1D TOTAL     ACCESS:   68772700  HIT:   68772527  MISS:        173
L1D LOAD      ACCESS:   20504547  HIT:   20504509  MISS:         38
L1D RFO       ACCESS:   31017056  HIT:   31016977  MISS:         79
L1D PREFETCH  ACCESS:   17251097  HIT:   17251041  MISS:         56
L1D WRITEBACK ACCESS:          0  HIT:          0  MISS:          0
L1D PREFETCH  REQUESTED:   20504561  ISSUED:   20397415  USEFUL:         33  USELESS:          9
L1D TOTAL MSHR MERGED:        332
L1D LOAD MSHR MERGED:         16
L1D RFO MSHR MERGED:        275
L1D PREFETCH MSHR MERGED:         41
L1D WRITEBACK MSHR MERGED:          0
L1D TOTAL ACCESSES:   68812825 HITS:   68812320 MISSES:        505
L1D LOAD ACCESSES:   20504561 HITS:   20504509 MISSES:         52
L1D RFO ACCESSES:   31017331 HITS:   31016977 MISSES:        354
L1D PREFETCH ACCESSES:   17290933 HITS:   17290834 MISSES:         99
L1D WRITEBACK ACCESSES:          0 HITS:          0 MISSES:          0
L1D RQ ACCESS:   30627779
L1D RQ TO_CACHE:   20504561
L1D RQ MERGED:   10123218
L1D RQ FORWARD:          0
L1D WQ ACCESS:   34232445
L1D WQ TO_CACHE:   31017333
L1D WQ MERGED:    3215112
L1D WQ FORWARD:      39793
L1I TOTAL     ACCESS:   36932008  HIT:   36920980  MISS:      11028
L1I LOAD      ACCESS:   36932008  HIT:   36920980  MISS:      11028
L1I RFO       ACCESS:          0  HIT:          0  MISS:          0
L1I PREFETCH  ACCESS:          0  HIT:          0  MISS:          0
L1I WRITEBACK ACCESS:          0  HIT:          0  MISS:          0
L1I PREFETCH  REQUESTED:          0  ISSUED:          0  USEFUL:          0  USELESS:          0
L1I TOTAL MSHR MERGED:      10043
L1I LOAD MSHR MERGED:      10043
L1I RFO MSHR MERGED:          0
L1I PREFETCH MSHR MERGED:          0
L1I WRITEBACK MSHR MERGED:          0
L1I TOTAL ACCESSES:   36942051 HITS:   36920980 MISSES:      21071
L1I LOAD ACCESSES:   36942051 HITS:   36920980 MISSES:      21071
L1I RFO ACCESSES:          0 HITS:          0 MISSES:          0
L1I PREFETCH ACCESSES:          0 HITS:          0 MISSES:          0
L1I WRITEBACK ACCESSES:          0 HITS:          0 MISSES:          0
L1I RQ ACCESS:  149999862
L1I RQ TO_CACHE:   36942051
L1I RQ MERGED:  113057811
L1I RQ FORWARD:          0
L1I WQ ACCESS:          0
L1I WQ TO_CACHE:          0
L1I WQ MERGED:          0
L1I WQ FORWARD:          0
L2C TOTAL     ACCESS:      11249  HIT:      10008  MISS:       1241
L2C LOAD      ACCESS:      11064  HIT:       9906  MISS:       1158
L2C RFO       ACCESS:         79  HIT:         39  MISS:         40
L2C PREFETCH  ACCESS:         58  HIT:         15  MISS:         43
L2C WRITEBACK ACCESS:         48  HIT:         48  MISS:          0
L2C PREFETCH  REQUESTED:          0  ISSUED:          0  USEFUL:          4  USELESS:          0
L2C TOTAL MSHR MERGED:          0
L2C LOAD MSHR MERGED:          0
L2C RFO MSHR MERGED:          0
L2C PREFETCH MSHR MERGED:          0
L2C WRITEBACK MSHR MERGED:          0
L2C TOTAL ACCESSES:      11249 HITS:      10008 MISSES:       1241
L2C LOAD ACCESSES:      11064 HITS:       9906 MISSES:       1158
L2C RFO ACCESSES:         79 HITS:         39 MISSES:         40
L2C PREFETCH ACCESSES:         58 HITS:         15 MISSES:         43
L2C WRITEBACK ACCESSES:         48 HITS:         48 MISSES:          0
L2C RQ ACCESS:      11143
L2C RQ TO_CACHE:      11143
L2C RQ MERGED:          0
L2C RQ FORWARD:          0
L2C WQ ACCESS:         48
L2C WQ TO_CACHE:         48
L2C WQ MERGED:          0
L2C WQ FORWARD:          0
LLC TOTAL     ACCESS:       1241  HIT:          0  MISS:       1241
LLC LOAD      ACCESS:       1158  HIT:          0  MISS:       1158
LLC RFO       ACCESS:         40  HIT:          0  MISS:         40
LLC PREFETCH  ACCESS:         43  HIT:          0  MISS:         43
LLC WRITEBACK ACCESS:          0  HIT:          0  MISS:          0
LLC PREFETCH  REQUESTED:          0  ISSUED:          0  USEFUL:          0  USELESS:          0
LLC TOTAL MSHR MERGED:          0
LLC LOAD MSHR MERGED:          0
LLC RFO MSHR MERGED:          0
LLC PREFETCH MSHR MERGED:          0
LLC WRITEBACK MSHR MERGED:          0
LLC TOTAL ACCESSES:       1241 HITS:          0 MISSES:       1241
LLC LOAD ACCESSES:       1158 HITS:          0 MISSES:       1158
LLC RFO ACCESSES:         40 HITS:          0 MISSES:         40
LLC PREFETCH ACCESSES:         43 HITS:          0 MISSES:         43
LLC WRITEBACK ACCESSES:          0 HITS:          0 MISSES:          0
LLC 0 RQ ACCESS:       1198
LLC 0 RQ TO_CACHE:       1198
LLC 0 RQ MERGED:          0
LLC 0 RQ FORWARD:          0
LLC WQ ACCESS:          0
LLC WQ TO_CACHE:          0
LLC WQ MERGED:          0
LLC WQ FORWARD:          0
Major fault: 0 Minor fault: 54
CPU 0 L1D next line prefetcher final stats
CPU 0 L2C PC-based stride prefetcher final stats

DRAM Statistics
 CHANNEL 0
 RQ ROW_BUFFER_HIT:       1077  ROW_BUFFER_MISS:        164
 DBUS_CONGESTED:        608
 WQ ROW_BUFFER_HIT:          0  ROW_BUFFER_MISS:          0  FULL:          0

 AVG_CONGESTED_CYCLE: 14
LOADS RETIRED: 51083339
INSTR RETIRED: 150000000
