
*** ChampSim Multicore Out-of-Order Simulator ***

Warmup Instructions: 100000000
Simulation Instructions: 150000000
Number of CPUs: 1
LLC sets: 2048
LLC ways: 16
Clean RRIP Policies: 0 Dirty RRIP Policies: 0 PSEL Width: 10 Track Set: 4294967295 PSEL Mask: 15 Demote Mask: 0DS Algo: 0Window size: 64
Off-chip DRAM Size: 4096 MB Channels: 1 Width: 64-bit Data Rate: 1600 MT/s

CPU 0 runs /mnt/beegfs/pchatz06/traces/548.exchange2_r.test.input1.region_6.w_0.07989.trace.gz
NOT SORTED
TRACE STRING: /mnt/beegfs/pchatz06/traces/548.exchange2_r.test.input1.region_6.w_0.07989.trace.gz
SORTED
TRACE STRING: /mnt/beegfs/pchatz06/traces/548.exchange2_r.test.input1.region_6.w_0.07989.trace.gz
INITIAL
TRACE STRING: /mnt/beegfs/pchatz06/traces/548.exchange2_r.test.input1.region_6.w_0.07989.trace.gz

champsim_seed used: 273

CPU 0 L1D next line prefetcher
CPU 0 L2C IP-based stride prefetcher
Heartbeat CPU 0 instructions: 10000003 cycles: 5965586 heartbeat IPC: 1.67628 cumulative IPC: 1.67628 (Simulation time: 0 hr 0 min 17 sec) 
Heartbeat CPU 0 instructions: 20000000 cycles: 11824725 heartbeat IPC: 1.70673 cumulative IPC: 1.69137 (Simulation time: 0 hr 0 min 34 sec) 
Heartbeat CPU 0 instructions: 30000000 cycles: 17729376 heartbeat IPC: 1.69358 cumulative IPC: 1.69211 (Simulation time: 0 hr 0 min 51 sec) 
Heartbeat CPU 0 instructions: 40000000 cycles: 23693261 heartbeat IPC: 1.67676 cumulative IPC: 1.68824 (Simulation time: 0 hr 1 min 9 sec) 
Heartbeat CPU 0 instructions: 50000001 cycles: 29561603 heartbeat IPC: 1.70406 cumulative IPC: 1.69138 (Simulation time: 0 hr 1 min 26 sec) 
Heartbeat CPU 0 instructions: 60000000 cycles: 35306050 heartbeat IPC: 1.74081 cumulative IPC: 1.69943 (Simulation time: 0 hr 1 min 43 sec) 
Heartbeat CPU 0 instructions: 70000000 cycles: 41132264 heartbeat IPC: 1.71638 cumulative IPC: 1.70183 (Simulation time: 0 hr 2 min 0 sec) 
Heartbeat CPU 0 instructions: 80000000 cycles: 47073126 heartbeat IPC: 1.68326 cumulative IPC: 1.69948 (Simulation time: 0 hr 2 min 17 sec) 
Heartbeat CPU 0 instructions: 90000000 cycles: 52990064 heartbeat IPC: 1.69006 cumulative IPC: 1.69843 (Simulation time: 0 hr 2 min 35 sec) 
Heartbeat CPU 0 instructions: 100000000 cycles: 58917890 heartbeat IPC: 1.68696 cumulative IPC: 1.69728 (Simulation time: 0 hr 2 min 52 sec) 

Warmup complete CPU 0 instructions: 100000001 cycles: 58917899 (Simulation time: 0 hr 2 min 52 sec) 

Heartbeat CPU 0 instructions: 110000002 cycles: 67774048 heartbeat IPC: 1.12916 cumulative IPC: 1.12916 (Simulation time: 0 hr 3 min 13 sec) 
Heartbeat CPU 0 instructions: 120000000 cycles: 76723052 heartbeat IPC: 1.11744 cumulative IPC: 1.12327 (Simulation time: 0 hr 3 min 34 sec) 
Heartbeat CPU 0 instructions: 130000003 cycles: 85549103 heartbeat IPC: 1.13301 cumulative IPC: 1.1265 (Simulation time: 0 hr 3 min 55 sec) 
Heartbeat CPU 0 instructions: 140000000 cycles: 94351710 heartbeat IPC: 1.13603 cumulative IPC: 1.12887 (Simulation time: 0 hr 4 min 16 sec) 
Heartbeat CPU 0 instructions: 150000001 cycles: 103178722 heartbeat IPC: 1.13289 cumulative IPC: 1.12967 (Simulation time: 0 hr 4 min 37 sec) 
Heartbeat CPU 0 instructions: 160000000 cycles: 111978192 heartbeat IPC: 1.13643 cumulative IPC: 1.13079 (Simulation time: 0 hr 4 min 58 sec) 
Heartbeat CPU 0 instructions: 170000000 cycles: 120970419 heartbeat IPC: 1.11207 cumulative IPC: 1.12808 (Simulation time: 0 hr 5 min 18 sec) 
Heartbeat CPU 0 instructions: 180000000 cycles: 129725303 heartbeat IPC: 1.14222 cumulative IPC: 1.12983 (Simulation time: 0 hr 5 min 40 sec) 
Heartbeat CPU 0 instructions: 190000002 cycles: 138495687 heartbeat IPC: 1.1402 cumulative IPC: 1.13097 (Simulation time: 0 hr 6 min 1 sec) 
Heartbeat CPU 0 instructions: 200000000 cycles: 147449324 heartbeat IPC: 1.11686 cumulative IPC: 1.12954 (Simulation time: 0 hr 6 min 23 sec) 
Heartbeat CPU 0 instructions: 210000000 cycles: 156154706 heartbeat IPC: 1.14871 cumulative IPC: 1.13126 (Simulation time: 0 hr 6 min 43 sec) 
Heartbeat CPU 0 instructions: 220000000 cycles: 165063822 heartbeat IPC: 1.12245 cumulative IPC: 1.13052 (Simulation time: 0 hr 7 min 4 sec) 
Heartbeat CPU 0 instructions: 230000001 cycles: 173833701 heartbeat IPC: 1.14027 cumulative IPC: 1.13126 (Simulation time: 0 hr 7 min 25 sec) 
Heartbeat CPU 0 instructions: 240000000 cycles: 182687028 heartbeat IPC: 1.12952 cumulative IPC: 1.13114 (Simulation time: 0 hr 7 min 46 sec) 
*** Reached end of trace for Core: 0 Repeating trace: /mnt/beegfs/pchatz06/traces/548.exchange2_r.test.input1.region_6.w_0.07989.trace.gz
Heartbeat CPU 0 instructions: 250000002 cycles: 190998707 heartbeat IPC: 1.20313 cumulative IPC: 1.13567 (Simulation time: 0 hr 8 min 6 sec) 
Finished CPU 0 instructions: 150000001 cycles: 132080808 cumulative IPC: 1.13567 (Simulation time: 0 hr 8 min 6 sec) 

CPU 0 Branch Prediction Accuracy: 97.3105% MPKI: 3.01193
Number of Branches: 16798022 Number of Mispredictions: 451789
Number of LOAD Instructions: 93517983
Number of LOAD Instructions (ROI): 93517983
Number of STORE Instructions: 22469043
Number of STORE Instructions (ROI): 22469043
Total Destination Memory Operands: 63723972
Total Destination Memory Operands (ROI): 63723972
Total Source Memory Operands: 93517983
Total Source Memory Operands (ROI): 93517983
Number of DEPENDED LOADS: 38039296
Number of DEPENDED LOADS (ROI): 38039296
Number of SQ_ADDED: 63723972
Number of SQ_ADDED (ROI): 63723972
Number of LQ_ADDED: 1248016817
Number of LQ_ADDED (ROI): 1248016817
Number of Instructions read from trace: 250000053

ChampSim completed all CPUs

Region of Interest Statistics

CPU 0 cumulative IPC: 1.13567 instructions: 150000001 cycles: 132080808
ITLB TOTAL     ACCESS:   26926982  HIT:   26926953  MISS:         29
ITLB LOAD      ACCESS:   26926982  HIT:   26926953  MISS:         29
ITLB RFO       ACCESS:          0  HIT:          0  MISS:          0
ITLB PREFETCH  ACCESS:          0  HIT:          0  MISS:          0
ITLB WRITEBACK ACCESS:          0  HIT:          0  MISS:          0
ITLB PREFETCH  REQUESTED:          0  ISSUED:          0  USEFUL:          0  USELESS:          0
ITLB TOTAL MSHR MERGED:         44
ITLB LOAD MSHR MERGED:         44
ITLB RFO MSHR MERGED:          0
ITLB PREFETCH MSHR MERGED:          0
ITLB WRITEBACK MSHR MERGED:          0
ITLB TOTAL ACCESSES:   26927026 HITS:   26926953 MISSES:         73
ITLB LOAD ACCESSES:   26927026 HITS:   26926953 MISSES:         73
ITLB RFO ACCESSES:          0 HITS:          0 MISSES:          0
ITLB PREFETCH ACCESSES:          0 HITS:          0 MISSES:          0
ITLB WRITEBACK ACCESSES:          0 HITS:          0 MISSES:          0
ITLB RQ ACCESS:  149999999
ITLB RQ TO_CACHE:   26927026
ITLB RQ MERGED:  123072973
ITLB RQ FORWARD:          0
ITLB WQ ACCESS:          0
ITLB WQ TO_CACHE:          0
ITLB WQ MERGED:          0
ITLB WQ FORWARD:          0
DTLB TOTAL     ACCESS:   33453286  HIT:   33453280  MISS:          6
DTLB LOAD      ACCESS:   11731802  HIT:   11731797  MISS:          5
DTLB RFO       ACCESS:   21721484  HIT:   21721483  MISS:          1
DTLB PREFETCH  ACCESS:          0  HIT:          0  MISS:          0
DTLB WRITEBACK ACCESS:          0  HIT:          0  MISS:          0
DTLB PREFETCH  REQUESTED:          0  ISSUED:          0  USEFUL:          0  USELESS:          0
DTLB TOTAL MSHR MERGED:          0
DTLB LOAD MSHR MERGED:          0
DTLB RFO MSHR MERGED:          0
DTLB PREFETCH MSHR MERGED:          0
DTLB WRITEBACK MSHR MERGED:          0
DTLB TOTAL ACCESSES:   33453286 HITS:   33453280 MISSES:          6
DTLB LOAD ACCESSES:   11731802 HITS:   11731797 MISSES:          5
DTLB RFO ACCESSES:   21721484 HITS:   21721483 MISSES:          1
DTLB PREFETCH ACCESSES:          0 HITS:          0 MISSES:          0
DTLB WRITEBACK ACCESSES:          0 HITS:          0 MISSES:          0
DTLB RQ ACCESS:   71066026
DTLB RQ TO_CACHE:   33453286
DTLB RQ MERGED:   37612740
DTLB RQ FORWARD:          0
DTLB WQ ACCESS:          0
DTLB WQ TO_CACHE:          0
DTLB WQ MERGED:          0
DTLB WQ FORWARD:          0
L1D TOTAL     ACCESS:   74602321  HIT:   74602207  MISS:        114
L1D LOAD      ACCESS:   21863131  HIT:   21863094  MISS:         37
L1D RFO       ACCESS:   34471532  HIT:   34471495  MISS:         37
L1D PREFETCH  ACCESS:   18267658  HIT:   18267618  MISS:         40
L1D WRITEBACK ACCESS:          0  HIT:          0  MISS:          0
L1D PREFETCH  REQUESTED:   21863147  ISSUED:   21762557  USEFUL:         28  USELESS:          0
L1D TOTAL MSHR MERGED:        261
L1D LOAD MSHR MERGED:         19
L1D RFO MSHR MERGED:        193
L1D PREFETCH MSHR MERGED:         49
L1D WRITEBACK MSHR MERGED:          0
L1D TOTAL ACCESSES:   74649434 HITS:   74649059 MISSES:        375
L1D LOAD ACCESSES:   21863149 HITS:   21863096 MISSES:         53
L1D RFO ACCESSES:   34471725 HITS:   34471495 MISSES:        230
L1D PREFETCH ACCESSES:   18314560 HITS:   18314468 MISSES:         92
L1D WRITEBACK ACCESSES:          0 HITS:          0 MISSES:          0
L1D RQ ACCESS:   32951040
L1D RQ TO_CACHE:   21863147
L1D RQ MERGED:   11087891
L1D RQ FORWARD:          0
L1D WQ ACCESS:   38114988
L1D WQ TO_CACHE:   34471727
L1D WQ MERGED:    3643261
L1D WQ FORWARD:      46852
L1I TOTAL     ACCESS:   37110930  HIT:   37109566  MISS:       1364
L1I LOAD      ACCESS:   37110930  HIT:   37109566  MISS:       1364
L1I RFO       ACCESS:          0  HIT:          0  MISS:          0
L1I PREFETCH  ACCESS:          0  HIT:          0  MISS:          0
L1I WRITEBACK ACCESS:          0  HIT:          0  MISS:          0
L1I PREFETCH  REQUESTED:          0  ISSUED:          0  USEFUL:          0  USELESS:          0
L1I TOTAL MSHR MERGED:       1278
L1I LOAD MSHR MERGED:       1278
L1I RFO MSHR MERGED:          0
L1I PREFETCH MSHR MERGED:          0
L1I WRITEBACK MSHR MERGED:          0
L1I TOTAL ACCESSES:   37112208 HITS:   37109566 MISSES:       2642
L1I LOAD ACCESSES:   37112208 HITS:   37109566 MISSES:       2642
L1I RFO ACCESSES:          0 HITS:          0 MISSES:          0
L1I PREFETCH ACCESSES:          0 HITS:          0 MISSES:          0
L1I WRITEBACK ACCESSES:          0 HITS:          0 MISSES:          0
L1I RQ ACCESS:  149999999
L1I RQ TO_CACHE:   37112208
L1I RQ MERGED:  112887791
L1I RQ FORWARD:          0
L1I WQ ACCESS:          0
L1I WQ TO_CACHE:          0
L1I WQ MERGED:          0
L1I WQ FORWARD:          0
L2C TOTAL     ACCESS:       1478  HIT:        367  MISS:       1111
L2C LOAD      ACCESS:       1398  HIT:        367  MISS:       1031
L2C RFO       ACCESS:         37  HIT:          0  MISS:         37
L2C PREFETCH  ACCESS:         43  HIT:          0  MISS:         43
L2C WRITEBACK ACCESS:          0  HIT:          0  MISS:          0
L2C PREFETCH  REQUESTED:          0  ISSUED:          0  USEFUL:          0  USELESS:          0
L2C TOTAL MSHR MERGED:          0
L2C LOAD MSHR MERGED:          0
L2C RFO MSHR MERGED:          0
L2C PREFETCH MSHR MERGED:          0
L2C WRITEBACK MSHR MERGED:          0
L2C TOTAL ACCESSES:       1478 HITS:        367 MISSES:       1111
L2C LOAD ACCESSES:       1398 HITS:        367 MISSES:       1031
L2C RFO ACCESSES:         37 HITS:          0 MISSES:         37
L2C PREFETCH ACCESSES:         43 HITS:          0 MISSES:         43
L2C WRITEBACK ACCESSES:          0 HITS:          0 MISSES:          0
L2C RQ ACCESS:       1435
L2C RQ TO_CACHE:       1435
L2C RQ MERGED:          0
L2C RQ FORWARD:          0
L2C WQ ACCESS:          0
L2C WQ TO_CACHE:          0
L2C WQ MERGED:          0
L2C WQ FORWARD:          0
LLC TOTAL     ACCESS:       1111  HIT:          0  MISS:       1111
LLC LOAD      ACCESS:       1031  HIT:          0  MISS:       1031
LLC RFO       ACCESS:         37  HIT:          0  MISS:         37
LLC PREFETCH  ACCESS:         43  HIT:          0  MISS:         43
LLC WRITEBACK ACCESS:          0  HIT:          0  MISS:          0
LLC PREFETCH  REQUESTED:          0  ISSUED:          0  USEFUL:          0  USELESS:          0
LLC TOTAL MSHR MERGED:          0
LLC LOAD MSHR MERGED:          0
LLC RFO MSHR MERGED:          0
LLC PREFETCH MSHR MERGED:          0
LLC WRITEBACK MSHR MERGED:          0
LLC TOTAL ACCESSES:       1111 HITS:          0 MISSES:       1111
LLC LOAD ACCESSES:       1031 HITS:          0 MISSES:       1031
LLC RFO ACCESSES:         37 HITS:          0 MISSES:         37
LLC PREFETCH ACCESSES:         43 HITS:          0 MISSES:         43
LLC WRITEBACK ACCESSES:          0 HITS:          0 MISSES:          0
LLC 0 RQ ACCESS:       1068
LLC 0 RQ TO_CACHE:       1068
LLC 0 RQ MERGED:          0
LLC 0 RQ FORWARD:          0
LLC WQ ACCESS:          0
LLC WQ TO_CACHE:          0
LLC WQ MERGED:          0
LLC WQ FORWARD:          0
Major fault: 0 Minor fault: 52
CPU 0 L1D next line prefetcher final stats
CPU 0 L2C PC-based stride prefetcher final stats

DRAM Statistics
 CHANNEL 0
 RQ ROW_BUFFER_HIT:        965  ROW_BUFFER_MISS:        146
 DBUS_CONGESTED:        563
 WQ ROW_BUFFER_HIT:          0  ROW_BUFFER_MISS:          0  FULL:          0

 AVG_CONGESTED_CYCLE: 14
LOADS RETIRED: 55984456
INSTR RETIRED: 150000000
