
*** ChampSim Multicore Out-of-Order Simulator ***

Warmup Instructions: 100000000
Simulation Instructions: 150000000
Number of CPUs: 1
LLC sets: 2048
LLC ways: 16
Clean RRIP Policies: 0 Dirty RRIP Policies: 0 PSEL Width: 10 Track Set: 4294967295 PSEL Mask: 15 Demote Mask: 0DS Algo: 0Window size: 64
Off-chip DRAM Size: 4096 MB Channels: 1 Width: 64-bit Data Rate: 1600 MT/s

CPU 0 runs /mnt/beegfs/pchatz06/traces/549.fotonik3d_r.refrate.input1.region_15.w_0.05843.trace.gz
NOT SORTED
TRACE STRING: /mnt/beegfs/pchatz06/traces/549.fotonik3d_r.refrate.input1.region_15.w_0.05843.trace.gz
SORTED
TRACE STRING: /mnt/beegfs/pchatz06/traces/549.fotonik3d_r.refrate.input1.region_15.w_0.05843.trace.gz
INITIAL
TRACE STRING: /mnt/beegfs/pchatz06/traces/549.fotonik3d_r.refrate.input1.region_15.w_0.05843.trace.gz

champsim_seed used: 260

CPU 0 L1D next line prefetcher
CPU 0 L2C IP-based stride prefetcher
Heartbeat CPU 0 instructions: 10000001 cycles: 6450697 heartbeat IPC: 1.55022 cumulative IPC: 1.55022 (Simulation time: 0 hr 0 min 25 sec) 
Heartbeat CPU 0 instructions: 20000000 cycles: 12855637 heartbeat IPC: 1.56129 cumulative IPC: 1.55574 (Simulation time: 0 hr 0 min 52 sec) 
Heartbeat CPU 0 instructions: 30000003 cycles: 19261433 heartbeat IPC: 1.56109 cumulative IPC: 1.55752 (Simulation time: 0 hr 1 min 18 sec) 
Heartbeat CPU 0 instructions: 40000000 cycles: 25667457 heartbeat IPC: 1.56103 cumulative IPC: 1.55839 (Simulation time: 0 hr 1 min 45 sec) 
Heartbeat CPU 0 instructions: 50000002 cycles: 32072722 heartbeat IPC: 1.56122 cumulative IPC: 1.55896 (Simulation time: 0 hr 2 min 11 sec) 
Heartbeat CPU 0 instructions: 60000000 cycles: 38090180 heartbeat IPC: 1.66183 cumulative IPC: 1.57521 (Simulation time: 0 hr 2 min 38 sec) 
Heartbeat CPU 0 instructions: 70000000 cycles: 44415783 heartbeat IPC: 1.58088 cumulative IPC: 1.57602 (Simulation time: 0 hr 3 min 4 sec) 
Heartbeat CPU 0 instructions: 80000000 cycles: 50742887 heartbeat IPC: 1.5805 cumulative IPC: 1.57658 (Simulation time: 0 hr 3 min 31 sec) 
Heartbeat CPU 0 instructions: 90000000 cycles: 57070733 heartbeat IPC: 1.58032 cumulative IPC: 1.57699 (Simulation time: 0 hr 3 min 57 sec) 
Heartbeat CPU 0 instructions: 100000000 cycles: 63398511 heartbeat IPC: 1.58033 cumulative IPC: 1.57732 (Simulation time: 0 hr 4 min 24 sec) 

Warmup complete CPU 0 instructions: 100000001 cycles: 63398528 (Simulation time: 0 hr 4 min 24 sec) 

Heartbeat CPU 0 instructions: 110000000 cycles: 77262468 heartbeat IPC: 0.721295 cumulative IPC: 0.721296 (Simulation time: 0 hr 4 min 56 sec) 
Heartbeat CPU 0 instructions: 120000000 cycles: 89328801 heartbeat IPC: 0.828752 cumulative IPC: 0.771299 (Simulation time: 0 hr 5 min 26 sec) 
Heartbeat CPU 0 instructions: 130000000 cycles: 101318434 heartbeat IPC: 0.834054 cumulative IPC: 0.791141 (Simulation time: 0 hr 5 min 56 sec) 
Heartbeat CPU 0 instructions: 140000000 cycles: 113291443 heartbeat IPC: 0.835212 cumulative IPC: 0.801717 (Simulation time: 0 hr 6 min 26 sec) 
Heartbeat CPU 0 instructions: 150000001 cycles: 125743117 heartbeat IPC: 0.803105 cumulative IPC: 0.801994 (Simulation time: 0 hr 6 min 57 sec) 
Heartbeat CPU 0 instructions: 160000000 cycles: 137656747 heartbeat IPC: 0.839375 cumulative IPC: 0.807991 (Simulation time: 0 hr 7 min 27 sec) 
Heartbeat CPU 0 instructions: 170000000 cycles: 149491242 heartbeat IPC: 0.844987 cumulative IPC: 0.813077 (Simulation time: 0 hr 7 min 58 sec) 
Heartbeat CPU 0 instructions: 180000000 cycles: 173030524 heartbeat IPC: 0.424822 cumulative IPC: 0.729714 (Simulation time: 0 hr 8 min 37 sec) 
Heartbeat CPU 0 instructions: 190000000 cycles: 185601426 heartbeat IPC: 0.795488 cumulative IPC: 0.73648 (Simulation time: 0 hr 9 min 9 sec) 
Heartbeat CPU 0 instructions: 200000000 cycles: 198198383 heartbeat IPC: 0.793842 cumulative IPC: 0.741841 (Simulation time: 0 hr 9 min 41 sec) 
Heartbeat CPU 0 instructions: 210000003 cycles: 210827511 heartbeat IPC: 0.791821 cumulative IPC: 0.746122 (Simulation time: 0 hr 10 min 13 sec) 
Heartbeat CPU 0 instructions: 220000000 cycles: 223471600 heartbeat IPC: 0.790883 cumulative IPC: 0.749658 (Simulation time: 0 hr 10 min 45 sec) 
Heartbeat CPU 0 instructions: 230000001 cycles: 236045656 heartbeat IPC: 0.795288 cumulative IPC: 0.752981 (Simulation time: 0 hr 11 min 17 sec) 
Heartbeat CPU 0 instructions: 240000000 cycles: 248651386 heartbeat IPC: 0.79329 cumulative IPC: 0.755724 (Simulation time: 0 hr 11 min 49 sec) 
*** Reached end of trace for Core: 0 Repeating trace: /mnt/beegfs/pchatz06/traces/549.fotonik3d_r.refrate.input1.region_15.w_0.05843.trace.gz
Heartbeat CPU 0 instructions: 250000002 cycles: 261240176 heartbeat IPC: 0.794358 cumulative IPC: 0.758182 (Simulation time: 0 hr 12 min 21 sec) 
Finished CPU 0 instructions: 150000001 cycles: 197841648 cumulative IPC: 0.758182 (Simulation time: 0 hr 12 min 21 sec) 

CPU 0 Branch Prediction Accuracy: 98.5661% MPKI: 0.14782
Number of Branches: 1546341 Number of Mispredictions: 22173
Number of LOAD Instructions: 124015485
Number of LOAD Instructions (ROI): 124015485
Number of STORE Instructions: 22763864
Number of STORE Instructions (ROI): 22763864
Total Destination Memory Operands: 34402807
Total Destination Memory Operands (ROI): 34402807
Total Source Memory Operands: 124015485
Total Source Memory Operands (ROI): 124015485
Number of DEPENDED LOADS: 8800536
Number of DEPENDED LOADS (ROI): 8800536
Number of SQ_ADDED: 34402783
Number of SQ_ADDED (ROI): 34402783
Number of LQ_ADDED: 743898626
Number of LQ_ADDED (ROI): 743898626
Number of Instructions read from trace: 250000254

ChampSim completed all CPUs

Region of Interest Statistics

CPU 0 cumulative IPC: 0.758182 instructions: 150000001 cycles: 197841648
ITLB TOTAL     ACCESS:   28691103  HIT:   28691097  MISS:          6
ITLB LOAD      ACCESS:   28691103  HIT:   28691097  MISS:          6
ITLB RFO       ACCESS:          0  HIT:          0  MISS:          0
ITLB PREFETCH  ACCESS:          0  HIT:          0  MISS:          0
ITLB WRITEBACK ACCESS:          0  HIT:          0  MISS:          0
ITLB PREFETCH  REQUESTED:          0  ISSUED:          0  USEFUL:          0  USELESS:          0
ITLB TOTAL MSHR MERGED:         14
ITLB LOAD MSHR MERGED:         14
ITLB RFO MSHR MERGED:          0
ITLB PREFETCH MSHR MERGED:          0
ITLB WRITEBACK MSHR MERGED:          0
ITLB TOTAL ACCESSES:   28691117 HITS:   28691097 MISSES:         20
ITLB LOAD ACCESSES:   28691117 HITS:   28691097 MISSES:         20
ITLB RFO ACCESSES:          0 HITS:          0 MISSES:          0
ITLB PREFETCH ACCESSES:          0 HITS:          0 MISSES:          0
ITLB WRITEBACK ACCESSES:          0 HITS:          0 MISSES:          0
ITLB RQ ACCESS:  149999998
ITLB RQ TO_CACHE:   28691117
ITLB RQ MERGED:  121308881
ITLB RQ FORWARD:          0
ITLB WQ ACCESS:          0
ITLB WQ TO_CACHE:          0
ITLB WQ MERGED:          0
ITLB WQ FORWARD:          0
DTLB TOTAL     ACCESS:   55627953  HIT:   55488335  MISS:     139618
DTLB LOAD      ACCESS:   42403487  HIT:   42263869  MISS:     139618
DTLB RFO       ACCESS:   13224466  HIT:   13224466  MISS:          0
DTLB PREFETCH  ACCESS:          0  HIT:          0  MISS:          0
DTLB WRITEBACK ACCESS:          0  HIT:          0  MISS:          0
DTLB PREFETCH  REQUESTED:          0  ISSUED:          0  USEFUL:          0  USELESS:          0
DTLB TOTAL MSHR MERGED:      17461
DTLB LOAD MSHR MERGED:      17461
DTLB RFO MSHR MERGED:          0
DTLB PREFETCH MSHR MERGED:          0
DTLB WRITEBACK MSHR MERGED:          0
DTLB TOTAL ACCESSES:   55645415 HITS:   55488335 MISSES:     157080
DTLB LOAD ACCESSES:   42420949 HITS:   42263869 MISSES:     157080
DTLB RFO ACCESSES:   13224466 HITS:   13224466 MISSES:          0
DTLB PREFETCH ACCESSES:          0 HITS:          0 MISSES:          0
DTLB WRITEBACK ACCESSES:          0 HITS:          0 MISSES:          0
DTLB RQ ACCESS:   88903034
DTLB RQ TO_CACHE:   55645415
DTLB RQ MERGED:   33257619
DTLB RQ FORWARD:          0
DTLB WQ ACCESS:          0
DTLB WQ TO_CACHE:          0
DTLB WQ MERGED:          0
DTLB WQ FORWARD:          0
L1D TOTAL     ACCESS:   93178706  HIT:   89004120  MISS:    4174586
L1D LOAD      ACCESS:   45529564  HIT:   44755064  MISS:     774500
L1D RFO       ACCESS:   19174043  HIT:   19174023  MISS:         20
L1D PREFETCH  ACCESS:   28475099  HIT:   25075033  MISS:    3400066
L1D WRITEBACK ACCESS:          0  HIT:          0  MISS:          0
L1D PREFETCH  REQUESTED:   45643036  ISSUED:   44795581  USEFUL:    3072840  USELESS:     327341
L1D TOTAL MSHR MERGED:    5219814
L1D LOAD MSHR MERGED:     290505
L1D RFO MSHR MERGED:         40
L1D PREFETCH MSHR MERGED:    4929269
L1D WRITEBACK MSHR MERGED:          0
L1D TOTAL ACCESSES:   98427176 HITS:   89032773 MISSES:    9394403
L1D LOAD ACCESSES:   45643605 HITS:   44755633 MISSES:     887972
L1D RFO ACCESSES:   19174083 HITS:   19174023 MISSES:         60
L1D PREFETCH ACCESSES:   33609488 HITS:   25103117 MISSES:    8506371
L1D WRITEBACK ACCESSES:          0 HITS:          0 MISSES:          0
L1D RQ ACCESS:   69708071
L1D RQ TO_CACHE:   45643037
L1D RQ MERGED:   24064465
L1D RQ FORWARD:          0
L1D WQ ACCESS:   19194995
L1D WQ TO_CACHE:   19174083
L1D WQ MERGED:      20912
L1D WQ FORWARD:      28653
L1I TOTAL     ACCESS:   35770931  HIT:   35770491  MISS:        440
L1I LOAD      ACCESS:   35770931  HIT:   35770491  MISS:        440
L1I RFO       ACCESS:          0  HIT:          0  MISS:          0
L1I PREFETCH  ACCESS:          0  HIT:          0  MISS:          0
L1I WRITEBACK ACCESS:          0  HIT:          0  MISS:          0
L1I PREFETCH  REQUESTED:          0  ISSUED:          0  USEFUL:          0  USELESS:          0
L1I TOTAL MSHR MERGED:        371
L1I LOAD MSHR MERGED:        371
L1I RFO MSHR MERGED:          0
L1I PREFETCH MSHR MERGED:          0
L1I WRITEBACK MSHR MERGED:          0
L1I TOTAL ACCESSES:   35771306 HITS:   35770491 MISSES:        815
L1I LOAD ACCESSES:   35771306 HITS:   35770491 MISSES:        815
L1I RFO ACCESSES:          0 HITS:          0 MISSES:          0
L1I PREFETCH ACCESSES:          0 HITS:          0 MISSES:          0
L1I WRITEBACK ACCESSES:          0 HITS:          0 MISSES:          0
L1I RQ ACCESS:  149999990
L1I RQ TO_CACHE:   35771306
L1I RQ MERGED:  114228684
L1I RQ FORWARD:          0
L1I WQ ACCESS:          0
L1I WQ TO_CACHE:          0
L1I WQ MERGED:          0
L1I WQ FORWARD:          0
L2C TOTAL     ACCESS:    5767275  HIT:    1782176  MISS:    3985099
L2C LOAD      ACCESS:     597884  HIT:      84888  MISS:     512996
L2C RFO       ACCESS:         20  HIT:          0  MISS:         20
L2C PREFETCH  ACCESS:    3611603  HIT:     140434  MISS:    3471169
L2C WRITEBACK ACCESS:    1557768  HIT:    1556854  MISS:        914
L2C PREFETCH  REQUESTED:      56275  ISSUED:      56275  USEFUL:      20027  USELESS:    3450164
L2C TOTAL MSHR MERGED:       5911
L2C LOAD MSHR MERGED:       3327
L2C RFO MSHR MERGED:          0
L2C PREFETCH MSHR MERGED:       2584
L2C WRITEBACK MSHR MERGED:          0
L2C TOTAL ACCESSES:    5788619 HITS:    1782211 MISSES:    4006408
L2C LOAD ACCESSES:     597911 HITS:      84911 MISSES:     513000
L2C RFO ACCESSES:         20 HITS:          0 MISSES:         20
L2C PREFETCH ACCESSES:    3632920 HITS:     140446 MISSES:    3492474
L2C WRITEBACK ACCESSES:    1557768 HITS:    1556854 MISSES:        914
L2C RQ ACCESS:     597931
L2C RQ TO_CACHE:     597908
L2C RQ MERGED:          0
L2C RQ FORWARD:          0
L2C WQ ACCESS:    1557768
L2C WQ TO_CACHE:    1557768
L2C WQ MERGED:          0
L2C WQ FORWARD:         35
LLC TOTAL     ACCESS:    5550022  HIT:    1628735  MISS:    3921287
LLC LOAD      ACCESS:     509670  HIT:      32743  MISS:     476927
LLC RFO       ACCESS:         20  HIT:         10  MISS:         10
LLC PREFETCH  ACCESS:    3485829  HIT:      41874  MISS:    3443955
LLC WRITEBACK ACCESS:    1554503  HIT:    1554108  MISS:        395
LLC PREFETCH  REQUESTED:          0  ISSUED:          0  USEFUL:       7836  USELESS:    3429053
LLC TOTAL MSHR MERGED:       4058
LLC LOAD MSHR MERGED:       3330
LLC RFO MSHR MERGED:          0
LLC PREFETCH MSHR MERGED:        728
LLC WRITEBACK MSHR MERGED:          0
LLC TOTAL ACCESSES:    5554085 HITS:    1628735 MISSES:    3925350
LLC LOAD ACCESSES:     509673 HITS:      32743 MISSES:     476930
LLC RFO ACCESSES:         20 HITS:         10 MISSES:         10
LLC PREFETCH ACCESSES:    3489889 HITS:      41874 MISSES:    3448015
LLC WRITEBACK ACCESSES:    1554503 HITS:    1554108 MISSES:        395
LLC 0 RQ ACCESS:     509693
LLC 0 RQ TO_CACHE:     509693
LLC 0 RQ MERGED:          0
LLC 0 RQ FORWARD:          0
LLC WQ ACCESS:    1554503
LLC WQ TO_CACHE:    1554503
LLC WQ MERGED:          0
LLC WQ FORWARD:          0
Major fault: 0 Minor fault: 129798
CPU 0 L1D next line prefetcher final stats
CPU 0 L2C PC-based stride prefetcher final stats

DRAM Statistics
 CHANNEL 0
 RQ ROW_BUFFER_HIT:    1906132  ROW_BUFFER_MISS:    2014761
 DBUS_CONGESTED:    3276178
 WQ ROW_BUFFER_HIT:     221914  ROW_BUFFER_MISS:    1334640  FULL:          0

 AVG_CONGESTED_CYCLE: 13
LOADS RETIRED: 76557954
INSTR RETIRED: 150000000
