
*** ChampSim Multicore Out-of-Order Simulator ***

Warmup Instructions: 100000000
Simulation Instructions: 150000000
Number of CPUs: 1
LLC sets: 2048
LLC ways: 16
Clean RRIP Policies: 0 Dirty RRIP Policies: 0 PSEL Width: 10 Track Set: 4294967295 PSEL Mask: 15 Demote Mask: 0DS Algo: 0Window size: 64
Off-chip DRAM Size: 4096 MB Channels: 1 Width: 64-bit Data Rate: 1600 MT/s

CPU 0 runs /mnt/beegfs/pchatz06/traces/554.roms_r.train.input1.region_10.w_0.06856.trace.gz
NOT SORTED
TRACE STRING: /mnt/beegfs/pchatz06/traces/554.roms_r.train.input1.region_10.w_0.06856.trace.gz
SORTED
TRACE STRING: /mnt/beegfs/pchatz06/traces/554.roms_r.train.input1.region_10.w_0.06856.trace.gz
INITIAL
TRACE STRING: /mnt/beegfs/pchatz06/traces/554.roms_r.train.input1.region_10.w_0.06856.trace.gz

champsim_seed used: 265

CPU 0 L1D next line prefetcher
CPU 0 L2C IP-based stride prefetcher
Heartbeat CPU 0 instructions: 10000000 cycles: 5388077 heartbeat IPC: 1.85595 cumulative IPC: 1.85595 (Simulation time: 0 hr 0 min 18 sec) 
Heartbeat CPU 0 instructions: 20000000 cycles: 10397684 heartbeat IPC: 1.99616 cumulative IPC: 1.92351 (Simulation time: 0 hr 0 min 35 sec) 
Heartbeat CPU 0 instructions: 30000001 cycles: 15468557 heartbeat IPC: 1.97205 cumulative IPC: 1.93942 (Simulation time: 0 hr 0 min 51 sec) 
Heartbeat CPU 0 instructions: 40000000 cycles: 20111558 heartbeat IPC: 2.15378 cumulative IPC: 1.98891 (Simulation time: 0 hr 1 min 8 sec) 
Heartbeat CPU 0 instructions: 50000002 cycles: 24918212 heartbeat IPC: 2.08045 cumulative IPC: 2.00656 (Simulation time: 0 hr 1 min 28 sec) 
Heartbeat CPU 0 instructions: 60000000 cycles: 29725425 heartbeat IPC: 2.08021 cumulative IPC: 2.01847 (Simulation time: 0 hr 1 min 47 sec) 
Heartbeat CPU 0 instructions: 70000002 cycles: 34532684 heartbeat IPC: 2.08019 cumulative IPC: 2.02707 (Simulation time: 0 hr 2 min 6 sec) 
Heartbeat CPU 0 instructions: 80000000 cycles: 39024033 heartbeat IPC: 2.2265 cumulative IPC: 2.05002 (Simulation time: 0 hr 2 min 24 sec) 
Heartbeat CPU 0 instructions: 90000001 cycles: 43005726 heartbeat IPC: 2.51149 cumulative IPC: 2.09274 (Simulation time: 0 hr 2 min 39 sec) 
Heartbeat CPU 0 instructions: 100000000 cycles: 47807066 heartbeat IPC: 2.08275 cumulative IPC: 2.09174 (Simulation time: 0 hr 2 min 59 sec) 

Warmup complete CPU 0 instructions: 100000002 cycles: 47807081 (Simulation time: 0 hr 2 min 59 sec) 

Heartbeat CPU 0 instructions: 110000002 cycles: 56051149 heartbeat IPC: 1.21299 cumulative IPC: 1.21299 (Simulation time: 0 hr 3 min 21 sec) 
Heartbeat CPU 0 instructions: 120000000 cycles: 64304149 heartbeat IPC: 1.21168 cumulative IPC: 1.21234 (Simulation time: 0 hr 3 min 43 sec) 
Heartbeat CPU 0 instructions: 130000002 cycles: 72822328 heartbeat IPC: 1.17396 cumulative IPC: 1.19927 (Simulation time: 0 hr 4 min 4 sec) 
Heartbeat CPU 0 instructions: 140000000 cycles: 84008161 heartbeat IPC: 0.893988 cumulative IPC: 1.10494 (Simulation time: 0 hr 4 min 25 sec) 
Heartbeat CPU 0 instructions: 150000001 cycles: 92256693 heartbeat IPC: 1.21234 cumulative IPC: 1.12487 (Simulation time: 0 hr 4 min 47 sec) 
Heartbeat CPU 0 instructions: 160000000 cycles: 100523168 heartbeat IPC: 1.20971 cumulative IPC: 1.13817 (Simulation time: 0 hr 5 min 10 sec) 
Heartbeat CPU 0 instructions: 170000002 cycles: 108799235 heartbeat IPC: 1.2083 cumulative IPC: 1.14769 (Simulation time: 0 hr 5 min 32 sec) 
Heartbeat CPU 0 instructions: 180000000 cycles: 117285977 heartbeat IPC: 1.17831 cumulative IPC: 1.15143 (Simulation time: 0 hr 5 min 53 sec) 
Heartbeat CPU 0 instructions: 190000000 cycles: 128785534 heartbeat IPC: 0.869599 cumulative IPC: 1.11141 (Simulation time: 0 hr 6 min 14 sec) 
Heartbeat CPU 0 instructions: 200000000 cycles: 137058276 heartbeat IPC: 1.20879 cumulative IPC: 1.12043 (Simulation time: 0 hr 6 min 36 sec) 
Heartbeat CPU 0 instructions: 210000003 cycles: 145301793 heartbeat IPC: 1.21307 cumulative IPC: 1.12827 (Simulation time: 0 hr 6 min 59 sec) 
Heartbeat CPU 0 instructions: 220000000 cycles: 153589696 heartbeat IPC: 1.20658 cumulative IPC: 1.1344 (Simulation time: 0 hr 7 min 21 sec) 
Heartbeat CPU 0 instructions: 230000001 cycles: 162443492 heartbeat IPC: 1.12946 cumulative IPC: 1.13402 (Simulation time: 0 hr 7 min 42 sec) 
Heartbeat CPU 0 instructions: 240000000 cycles: 174012541 heartbeat IPC: 0.864375 cumulative IPC: 1.1093 (Simulation time: 0 hr 8 min 3 sec) 
*** Reached end of trace for Core: 0 Repeating trace: /mnt/beegfs/pchatz06/traces/554.roms_r.train.input1.region_10.w_0.06856.trace.gz
Heartbeat CPU 0 instructions: 250000002 cycles: 182257380 heartbeat IPC: 1.21288 cumulative IPC: 1.11565 (Simulation time: 0 hr 8 min 25 sec) 
Finished CPU 0 instructions: 150000000 cycles: 134450299 cumulative IPC: 1.11565 (Simulation time: 0 hr 8 min 25 sec) 

CPU 0 Branch Prediction Accuracy: 99.53% MPKI: 0.155767
Number of Branches: 4971339 Number of Mispredictions: 23365
Number of LOAD Instructions: 83212042
Number of LOAD Instructions (ROI): 83212042
Number of STORE Instructions: 21593798
Number of STORE Instructions (ROI): 21593798
Total Destination Memory Operands: 21727731
Total Destination Memory Operands (ROI): 21727731
Total Source Memory Operands: 83212042
Total Source Memory Operands (ROI): 83212042
Number of DEPENDED LOADS: 5134671
Number of DEPENDED LOADS (ROI): 5134671
Number of SQ_ADDED: 21727702
Number of SQ_ADDED (ROI): 21727702
Number of LQ_ADDED: 85738802
Number of LQ_ADDED (ROI): 85738802
Number of Instructions read from trace: 250000254

ChampSim completed all CPUs

Region of Interest Statistics

CPU 0 cumulative IPC: 1.11565 instructions: 150000000 cycles: 134450299
ITLB TOTAL     ACCESS:   26828174  HIT:   26828174  MISS:          0
ITLB LOAD      ACCESS:   26828174  HIT:   26828174  MISS:          0
ITLB RFO       ACCESS:          0  HIT:          0  MISS:          0
ITLB PREFETCH  ACCESS:          0  HIT:          0  MISS:          0
ITLB WRITEBACK ACCESS:          0  HIT:          0  MISS:          0
ITLB PREFETCH  REQUESTED:          0  ISSUED:          0  USEFUL:          0  USELESS:          0
ITLB TOTAL MSHR MERGED:          0
ITLB LOAD MSHR MERGED:          0
ITLB RFO MSHR MERGED:          0
ITLB PREFETCH MSHR MERGED:          0
ITLB WRITEBACK MSHR MERGED:          0
ITLB TOTAL ACCESSES:   26828174 HITS:   26828174 MISSES:          0
ITLB LOAD ACCESSES:   26828174 HITS:   26828174 MISSES:          0
ITLB RFO ACCESSES:          0 HITS:          0 MISSES:          0
ITLB PREFETCH ACCESSES:          0 HITS:          0 MISSES:          0
ITLB WRITEBACK ACCESSES:          0 HITS:          0 MISSES:          0
ITLB RQ ACCESS:  149999998
ITLB RQ TO_CACHE:   26828175
ITLB RQ MERGED:  123171823
ITLB RQ FORWARD:          0
ITLB WQ ACCESS:          0
ITLB WQ TO_CACHE:          0
ITLB WQ MERGED:          0
ITLB WQ FORWARD:          0
DTLB TOTAL     ACCESS:   40119297  HIT:   40020681  MISS:      98616
DTLB LOAD      ACCESS:   29750043  HIT:   29677809  MISS:      72234
DTLB RFO       ACCESS:   10369254  HIT:   10342872  MISS:      26382
DTLB PREFETCH  ACCESS:          0  HIT:          0  MISS:          0
DTLB WRITEBACK ACCESS:          0  HIT:          0  MISS:          0
DTLB PREFETCH  REQUESTED:          0  ISSUED:          0  USEFUL:          0  USELESS:          0
DTLB TOTAL MSHR MERGED:      60937
DTLB LOAD MSHR MERGED:      30417
DTLB RFO MSHR MERGED:      30520
DTLB PREFETCH MSHR MERGED:          0
DTLB WRITEBACK MSHR MERGED:          0
DTLB TOTAL ACCESSES:   40180234 HITS:   40020681 MISSES:     159553
DTLB LOAD ACCESSES:   29780460 HITS:   29677809 MISSES:     102651
DTLB RFO ACCESSES:   10399774 HITS:   10342872 MISSES:      56902
DTLB PREFETCH ACCESSES:          0 HITS:          0 MISSES:          0
DTLB WRITEBACK ACCESSES:          0 HITS:          0 MISSES:          0
DTLB RQ ACCESS:   61504323
DTLB RQ TO_CACHE:   40180235
DTLB RQ MERGED:   21324088
DTLB RQ FORWARD:          0
DTLB WQ ACCESS:          0
DTLB WQ TO_CACHE:          0
DTLB WQ MERGED:          0
DTLB WQ FORWARD:          0
L1D TOTAL     ACCESS:   65847693  HIT:   63725984  MISS:    2121709
L1D LOAD      ACCESS:   33444525  HIT:   33130169  MISS:     314356
L1D RFO       ACCESS:   11067032  HIT:   10300915  MISS:     766117
L1D PREFETCH  ACCESS:   21336136  HIT:   20294900  MISS:    1041236
L1D WRITEBACK ACCESS:          0  HIT:          0  MISS:          0
L1D PREFETCH  REQUESTED:   33747480  ISSUED:   33555298  USEFUL:     980522  USELESS:      60715
L1D TOTAL MSHR MERGED:    3741010
L1D LOAD MSHR MERGED:     481657
L1D RFO MSHR MERGED:    1588218
L1D PREFETCH MSHR MERGED:    1671135
L1D WRITEBACK MSHR MERGED:          0
L1D TOTAL ACCESSES:   69622023 HITS:   63759304 MISSES:    5862719
L1D LOAD ACCESSES:   33747618 HITS:   33130307 MISSES:     617311
L1D RFO ACCESSES:   12654166 HITS:   10300915 MISSES:    2353251
L1D PREFETCH ACCESSES:   23220239 HITS:   20328082 MISSES:    2892157
L1D WRITEBACK ACCESSES:          0 HITS:          0 MISSES:          0
L1D RQ ACCESS:   48849900
L1D RQ TO_CACHE:   33747480
L1D RQ MERGED:   15102282
L1D RQ FORWARD:          0
L1D WQ ACCESS:   12654445
L1D WQ TO_CACHE:   12654166
L1D WQ MERGED:        279
L1D WQ FORWARD:      33320
L1I TOTAL     ACCESS:   34009940  HIT:   34009798  MISS:        142
L1I LOAD      ACCESS:   34009940  HIT:   34009798  MISS:        142
L1I RFO       ACCESS:          0  HIT:          0  MISS:          0
L1I PREFETCH  ACCESS:          0  HIT:          0  MISS:          0
L1I WRITEBACK ACCESS:          0  HIT:          0  MISS:          0
L1I PREFETCH  REQUESTED:          0  ISSUED:          0  USEFUL:          0  USELESS:          0
L1I TOTAL MSHR MERGED:        551
L1I LOAD MSHR MERGED:        551
L1I RFO MSHR MERGED:          0
L1I PREFETCH MSHR MERGED:          0
L1I WRITEBACK MSHR MERGED:          0
L1I TOTAL ACCESSES:   34010494 HITS:   34009798 MISSES:        696
L1I LOAD ACCESSES:   34010494 HITS:   34009798 MISSES:        696
L1I RFO ACCESSES:          0 HITS:          0 MISSES:          0
L1I PREFETCH ACCESSES:          0 HITS:          0 MISSES:          0
L1I WRITEBACK ACCESSES:          0 HITS:          0 MISSES:          0
L1I RQ ACCESS:  149999992
L1I RQ TO_CACHE:   34010495
L1I RQ MERGED:  115989497
L1I RQ FORWARD:          0
L1I WQ ACCESS:          0
L1I WQ TO_CACHE:          0
L1I WQ MERGED:          0
L1I WQ FORWARD:          0
L2C TOTAL     ACCESS:    2908535  HIT:    1079656  MISS:    1828879
L2C LOAD      ACCESS:     135769  HIT:      35371  MISS:     100398
L2C RFO       ACCESS:     765033  HIT:      56478  MISS:     708555
L2C PREFETCH  ACCESS:    1226678  HIT:     207952  MISS:    1018726
L2C WRITEBACK ACCESS:     781055  HIT:     779855  MISS:       1200
L2C PREFETCH  REQUESTED:       7061  ISSUED:       7061  USEFUL:      49065  USELESS:     970457
L2C TOTAL MSHR MERGED:         32
L2C LOAD MSHR MERGED:          1
L2C RFO MSHR MERGED:          0
L2C PREFETCH MSHR MERGED:         31
L2C WRITEBACK MSHR MERGED:          0
L2C TOTAL ACCESSES:    2909346 HITS:    1079709 MISSES:    1829637
L2C LOAD ACCESSES:     135799 HITS:      35398 MISSES:     100401
L2C RFO ACCESSES:     765033 HITS:      56478 MISSES:     708555
L2C PREFETCH ACCESSES:    1227459 HITS:     207978 MISSES:    1019481
L2C WRITEBACK ACCESSES:     781055 HITS:     779855 MISSES:       1200
L2C RQ ACCESS:     900832
L2C RQ TO_CACHE:     900805
L2C RQ MERGED:          0
L2C RQ FORWARD:          0
L2C WQ ACCESS:     781055
L2C WQ TO_CACHE:     781055
L2C WQ MERGED:          0
L2C WQ FORWARD:         53
LLC TOTAL     ACCESS:    2589906  HIT:    1599145  MISS:     990761
LLC LOAD      ACCESS:     100396  HIT:      35464  MISS:      64932
LLC RFO       ACCESS:     708555  HIT:     427398  MISS:     281157
LLC PREFETCH  ACCESS:    1019393  HIT:     374980  MISS:     644413
LLC WRITEBACK ACCESS:     761562  HIT:     761303  MISS:        259
LLC PREFETCH  REQUESTED:          0  ISSUED:          0  USEFUL:       1489  USELESS:     643993
LLC TOTAL MSHR MERGED:          0
LLC LOAD MSHR MERGED:          0
LLC RFO MSHR MERGED:          0
LLC PREFETCH MSHR MERGED:          0
LLC WRITEBACK MSHR MERGED:          0
LLC TOTAL ACCESSES:    2589922 HITS:    1599158 MISSES:     990764
LLC LOAD ACCESSES:     100400 HITS:      35465 MISSES:      64935
LLC RFO ACCESSES:     708555 HITS:     427398 MISSES:     281157
LLC PREFETCH ACCESSES:    1019405 HITS:     374992 MISSES:     644413
LLC WRITEBACK ACCESSES:     761562 HITS:     761303 MISSES:        259
LLC 0 RQ ACCESS:     808955
LLC 0 RQ TO_CACHE:     808954
LLC 0 RQ MERGED:          0
LLC 0 RQ FORWARD:          0
LLC WQ ACCESS:     761562
LLC WQ TO_CACHE:     761562
LLC WQ MERGED:          0
LLC WQ FORWARD:         13
Major fault: 0 Minor fault: 21423
CPU 0 L1D next line prefetcher final stats
CPU 0 L2C PC-based stride prefetcher final stats

DRAM Statistics
 CHANNEL 0
 RQ ROW_BUFFER_HIT:     562927  ROW_BUFFER_MISS:     427491
 DBUS_CONGESTED:     501237
 WQ ROW_BUFFER_HIT:      34263  ROW_BUFFER_MISS:     250384  FULL:          0

 AVG_CONGESTED_CYCLE: 13
LOADS RETIRED: 51674214
INSTR RETIRED: 150000000
