
*** ChampSim Multicore Out-of-Order Simulator ***

Warmup Instructions: 100000000
Simulation Instructions: 150000000
Number of CPUs: 1
LLC sets: 2048
LLC ways: 16
Clean RRIP Policies: 0 Dirty RRIP Policies: 0 PSEL Width: 10 Track Set: 4294967295 PSEL Mask: 15 Demote Mask: 0DS Algo: 0Window size: 64
Off-chip DRAM Size: 4096 MB Channels: 1 Width: 64-bit Data Rate: 1600 MT/s

CPU 0 runs /mnt/beegfs/pchatz06/traces/557.xz_r.train.input2.region_16.w_0.14035.trace.gz
NOT SORTED
TRACE STRING: /mnt/beegfs/pchatz06/traces/557.xz_r.train.input2.region_16.w_0.14035.trace.gz
SORTED
TRACE STRING: /mnt/beegfs/pchatz06/traces/557.xz_r.train.input2.region_16.w_0.14035.trace.gz
INITIAL
TRACE STRING: /mnt/beegfs/pchatz06/traces/557.xz_r.train.input2.region_16.w_0.14035.trace.gz

champsim_seed used: 253

CPU 0 L1D next line prefetcher
CPU 0 L2C IP-based stride prefetcher
Heartbeat CPU 0 instructions: 10000001 cycles: 5043913 heartbeat IPC: 1.98259 cumulative IPC: 1.98259 (Simulation time: 0 hr 0 min 17 sec) 
Heartbeat CPU 0 instructions: 20000000 cycles: 10076452 heartbeat IPC: 1.98707 cumulative IPC: 1.98483 (Simulation time: 0 hr 0 min 33 sec) 
Heartbeat CPU 0 instructions: 30000002 cycles: 15118811 heartbeat IPC: 1.9832 cumulative IPC: 1.98428 (Simulation time: 0 hr 0 min 49 sec) 
Heartbeat CPU 0 instructions: 40000000 cycles: 20197797 heartbeat IPC: 1.9689 cumulative IPC: 1.98041 (Simulation time: 0 hr 1 min 6 sec) 
Heartbeat CPU 0 instructions: 50000003 cycles: 25229350 heartbeat IPC: 1.98746 cumulative IPC: 1.98182 (Simulation time: 0 hr 1 min 22 sec) 
Heartbeat CPU 0 instructions: 60000000 cycles: 30258411 heartbeat IPC: 1.98844 cumulative IPC: 1.98292 (Simulation time: 0 hr 1 min 38 sec) 
Heartbeat CPU 0 instructions: 70000002 cycles: 35298426 heartbeat IPC: 1.98412 cumulative IPC: 1.98309 (Simulation time: 0 hr 1 min 55 sec) 
Heartbeat CPU 0 instructions: 80000000 cycles: 40334296 heartbeat IPC: 1.98575 cumulative IPC: 1.98342 (Simulation time: 0 hr 2 min 11 sec) 
Heartbeat CPU 0 instructions: 90000001 cycles: 45407365 heartbeat IPC: 1.97119 cumulative IPC: 1.98206 (Simulation time: 0 hr 2 min 28 sec) 
Heartbeat CPU 0 instructions: 100000000 cycles: 50433813 heartbeat IPC: 1.98948 cumulative IPC: 1.9828 (Simulation time: 0 hr 2 min 45 sec) 

Warmup complete CPU 0 instructions: 100000001 cycles: 50433814 (Simulation time: 0 hr 2 min 45 sec) 

Heartbeat CPU 0 instructions: 110000002 cycles: 72206500 heartbeat IPC: 0.459291 cumulative IPC: 0.459291 (Simulation time: 0 hr 3 min 12 sec) 
Heartbeat CPU 0 instructions: 120000000 cycles: 93918625 heartbeat IPC: 0.460572 cumulative IPC: 0.459931 (Simulation time: 0 hr 3 min 39 sec) 
Heartbeat CPU 0 instructions: 130000000 cycles: 115544721 heartbeat IPC: 0.462404 cumulative IPC: 0.460752 (Simulation time: 0 hr 4 min 6 sec) 
Heartbeat CPU 0 instructions: 140000000 cycles: 137397846 heartbeat IPC: 0.4576 cumulative IPC: 0.45996 (Simulation time: 0 hr 4 min 33 sec) 
Heartbeat CPU 0 instructions: 150000003 cycles: 159151805 heartbeat IPC: 0.459687 cumulative IPC: 0.459906 (Simulation time: 0 hr 5 min 1 sec) 
Heartbeat CPU 0 instructions: 160000000 cycles: 180814524 heartbeat IPC: 0.461622 cumulative IPC: 0.460191 (Simulation time: 0 hr 5 min 28 sec) 
Heartbeat CPU 0 instructions: 170000000 cycles: 202503118 heartbeat IPC: 0.461072 cumulative IPC: 0.460316 (Simulation time: 0 hr 5 min 55 sec) 
Heartbeat CPU 0 instructions: 180000000 cycles: 224117057 heartbeat IPC: 0.462664 cumulative IPC: 0.460609 (Simulation time: 0 hr 6 min 21 sec) 
Heartbeat CPU 0 instructions: 190000002 cycles: 246008040 heartbeat IPC: 0.456809 cumulative IPC: 0.460183 (Simulation time: 0 hr 6 min 47 sec) 
Heartbeat CPU 0 instructions: 200000000 cycles: 267684724 heartbeat IPC: 0.461325 cumulative IPC: 0.460297 (Simulation time: 0 hr 7 min 13 sec) 
Heartbeat CPU 0 instructions: 210000000 cycles: 289368776 heartbeat IPC: 0.461168 cumulative IPC: 0.460376 (Simulation time: 0 hr 7 min 39 sec) 
Heartbeat CPU 0 instructions: 220000000 cycles: 311134783 heartbeat IPC: 0.459432 cumulative IPC: 0.460297 (Simulation time: 0 hr 8 min 5 sec) 
Heartbeat CPU 0 instructions: 230000000 cycles: 332827828 heartbeat IPC: 0.460977 cumulative IPC: 0.46035 (Simulation time: 0 hr 8 min 31 sec) 
Heartbeat CPU 0 instructions: 240000000 cycles: 354722258 heartbeat IPC: 0.456737 cumulative IPC: 0.46009 (Simulation time: 0 hr 8 min 57 sec) 
*** Reached end of trace for Core: 0 Repeating trace: /mnt/beegfs/pchatz06/traces/557.xz_r.train.input2.region_16.w_0.14035.trace.gz
Heartbeat CPU 0 instructions: 250000002 cycles: 376403080 heartbeat IPC: 0.461237 cumulative IPC: 0.460166 (Simulation time: 0 hr 9 min 23 sec) 
Finished CPU 0 instructions: 150000001 cycles: 325969266 cumulative IPC: 0.460166 (Simulation time: 0 hr 9 min 23 sec) 

CPU 0 Branch Prediction Accuracy: 96.3715% MPKI: 4.7405
Number of Branches: 19596715 Number of Mispredictions: 711075
Number of LOAD Instructions: 70034839
Number of LOAD Instructions (ROI): 70034839
Number of STORE Instructions: 36386356
Number of STORE Instructions (ROI): 36386356
Total Destination Memory Operands: 39519069
Total Destination Memory Operands (ROI): 39519069
Total Source Memory Operands: 70034839
Total Source Memory Operands (ROI): 70034839
Number of DEPENDED LOADS: 7960880
Number of DEPENDED LOADS (ROI): 7960880
Number of SQ_ADDED: 39519060
Number of SQ_ADDED (ROI): 39519060
Number of LQ_ADDED: 105430557
Number of LQ_ADDED (ROI): 105430557
Number of Instructions read from trace: 250000056

ChampSim completed all CPUs

Region of Interest Statistics

CPU 0 cumulative IPC: 0.460166 instructions: 150000001 cycles: 325969266
ITLB TOTAL     ACCESS:   25429050  HIT:   25429050  MISS:          0
ITLB LOAD      ACCESS:   25429050  HIT:   25429050  MISS:          0
ITLB RFO       ACCESS:          0  HIT:          0  MISS:          0
ITLB PREFETCH  ACCESS:          0  HIT:          0  MISS:          0
ITLB WRITEBACK ACCESS:          0  HIT:          0  MISS:          0
ITLB PREFETCH  REQUESTED:          0  ISSUED:          0  USEFUL:          0  USELESS:          0
ITLB TOTAL MSHR MERGED:          0
ITLB LOAD MSHR MERGED:          0
ITLB RFO MSHR MERGED:          0
ITLB PREFETCH MSHR MERGED:          0
ITLB WRITEBACK MSHR MERGED:          0
ITLB TOTAL ACCESSES:   25429050 HITS:   25429050 MISSES:          0
ITLB LOAD ACCESSES:   25429050 HITS:   25429050 MISSES:          0
ITLB RFO ACCESSES:          0 HITS:          0 MISSES:          0
ITLB PREFETCH ACCESSES:          0 HITS:          0 MISSES:          0
ITLB WRITEBACK ACCESSES:          0 HITS:          0 MISSES:          0
ITLB RQ ACCESS:  149999978
ITLB RQ TO_CACHE:   25429050
ITLB RQ MERGED:  124570928
ITLB RQ FORWARD:          0
ITLB WQ ACCESS:          0
ITLB WQ TO_CACHE:          0
ITLB WQ MERGED:          0
ITLB WQ FORWARD:          0
DTLB TOTAL     ACCESS:   41518984  HIT:   40530934  MISS:     988050
DTLB LOAD      ACCESS:   23273895  HIT:   22289365  MISS:     984530
DTLB RFO       ACCESS:   18245089  HIT:   18241569  MISS:       3520
DTLB PREFETCH  ACCESS:          0  HIT:          0  MISS:          0
DTLB WRITEBACK ACCESS:          0  HIT:          0  MISS:          0
DTLB PREFETCH  REQUESTED:          0  ISSUED:          0  USEFUL:          0  USELESS:          0
DTLB TOTAL MSHR MERGED:      32204
DTLB LOAD MSHR MERGED:       7264
DTLB RFO MSHR MERGED:      24940
DTLB PREFETCH MSHR MERGED:          0
DTLB WRITEBACK MSHR MERGED:          0
DTLB TOTAL ACCESSES:   41551188 HITS:   40530934 MISSES:    1020254
DTLB LOAD ACCESSES:   23281159 HITS:   22289365 MISSES:     991794
DTLB RFO ACCESSES:   18270029 HITS:   18241569 MISSES:      28460
DTLB PREFETCH ACCESSES:          0 HITS:          0 MISSES:          0
DTLB WRITEBACK ACCESSES:          0 HITS:          0 MISSES:          0
DTLB RQ ACCESS:   60894249
DTLB RQ TO_CACHE:   41551188
DTLB RQ MERGED:   19343061
DTLB RQ FORWARD:          0
DTLB WQ ACCESS:          0
DTLB WQ TO_CACHE:          0
DTLB WQ MERGED:          0
DTLB WQ FORWARD:          0
L1D TOTAL     ACCESS:   73202462  HIT:   70437048  MISS:    2765414
L1D LOAD      ACCESS:   25864968  HIT:   24515222  MISS:    1349746
L1D RFO       ACCESS:   23365738  HIT:   23327076  MISS:      38662
L1D PREFETCH  ACCESS:   23971756  HIT:   22594750  MISS:    1377006
L1D WRITEBACK ACCESS:          0  HIT:          0  MISS:          0
L1D PREFETCH  REQUESTED:   25874185  ISSUED:   25811943  USEFUL:     136685  USELESS:    1240324
L1D TOTAL MSHR MERGED:     134989
L1D LOAD MSHR MERGED:      15142
L1D RFO MSHR MERGED:      60481
L1D PREFETCH MSHR MERGED:      59366
L1D WRITEBACK MSHR MERGED:          0
L1D TOTAL ACCESSES:   73445131 HITS:   70544728 MISSES:    2900403
L1D LOAD ACCESSES:   25927646 HITS:   24568683 MISSES:    1358963
L1D RFO ACCESSES:   23424978 HITS:   23327076 MISSES:      97902
L1D PREFETCH ACCESSES:   24092507 HITS:   22648969 MISSES:    1443538
L1D WRITEBACK ACCESSES:          0 HITS:          0 MISSES:          0
L1D RQ ACCESS:   37185720
L1D RQ TO_CACHE:   25874186
L1D RQ MERGED:   11258073
L1D RQ FORWARD:          0
L1D WQ ACCESS:   23708531
L1D WQ TO_CACHE:   23424979
L1D WQ MERGED:     283552
L1D WQ FORWARD:     107680
L1I TOTAL     ACCESS:   33433327  HIT:   33433322  MISS:          5
L1I LOAD      ACCESS:   33433327  HIT:   33433322  MISS:          5
L1I RFO       ACCESS:          0  HIT:          0  MISS:          0
L1I PREFETCH  ACCESS:          0  HIT:          0  MISS:          0
L1I WRITEBACK ACCESS:          0  HIT:          0  MISS:          0
L1I PREFETCH  REQUESTED:          0  ISSUED:          0  USEFUL:          0  USELESS:          0
L1I TOTAL MSHR MERGED:          3
L1I LOAD MSHR MERGED:          3
L1I RFO MSHR MERGED:          0
L1I PREFETCH MSHR MERGED:          0
L1I WRITEBACK MSHR MERGED:          0
L1I TOTAL ACCESSES:   33433330 HITS:   33433322 MISSES:          8
L1I LOAD ACCESSES:   33433330 HITS:   33433322 MISSES:          8
L1I RFO ACCESSES:          0 HITS:          0 MISSES:          0
L1I PREFETCH ACCESSES:          0 HITS:          0 MISSES:          0
L1I WRITEBACK ACCESSES:          0 HITS:          0 MISSES:          0
L1I RQ ACCESS:  149999978
L1I RQ TO_CACHE:   33433330
L1I RQ MERGED:  116566648
L1I RQ FORWARD:          0
L1I WQ ACCESS:          0
L1I WQ TO_CACHE:          0
L1I WQ MERGED:          0
L1I WQ FORWARD:          0
L2C TOTAL     ACCESS:    3691888  HIT:    1558829  MISS:    2133059
L2C LOAD      ACCESS:    1343814  HIT:     302879  MISS:    1040935
L2C RFO       ACCESS:      37421  HIT:       4743  MISS:      32678
L2C PREFETCH  ACCESS:    1390627  HIT:     337996  MISS:    1052631
L2C WRITEBACK ACCESS:     920026  HIT:     913211  MISS:       6815
L2C PREFETCH  REQUESTED:       6605  ISSUED:       6605  USEFUL:      39309  USELESS:    1013327
L2C TOTAL MSHR MERGED:          4
L2C LOAD MSHR MERGED:          0
L2C RFO MSHR MERGED:          0
L2C PREFETCH MSHR MERGED:          4
L2C WRITEBACK MSHR MERGED:          0
L2C TOTAL ACCESSES:    3691958 HITS:    1558894 MISSES:    2133064
L2C LOAD ACCESSES:    1343826 HITS:     302891 MISSES:    1040935
L2C RFO ACCESSES:      37421 HITS:       4743 MISSES:      32678
L2C PREFETCH ACCESSES:    1390685 HITS:     338049 MISSES:    1052636
L2C WRITEBACK ACCESSES:     920026 HITS:     913211 MISSES:       6815
L2C RQ ACCESS:    1381247
L2C RQ TO_CACHE:    1381235
L2C RQ MERGED:          0
L2C RQ FORWARD:          0
L2C WQ ACCESS:     920026
L2C WQ TO_CACHE:     920026
L2C WQ MERGED:          0
L2C WQ FORWARD:         65
LLC TOTAL     ACCESS:    2811119  HIT:    1276606  MISS:    1534513
LLC LOAD      ACCESS:    1040935  HIT:     296289  MISS:     744646
LLC RFO       ACCESS:      32678  HIT:        820  MISS:      31858
LLC PREFETCH  ACCESS:    1052632  HIT:     298121  MISS:     754511
LLC WRITEBACK ACCESS:     684874  HIT:     681376  MISS:       3498
LLC PREFETCH  REQUESTED:          0  ISSUED:          0  USEFUL:      60906  USELESS:     693594
LLC TOTAL MSHR MERGED:          0
LLC LOAD MSHR MERGED:          0
LLC RFO MSHR MERGED:          0
LLC PREFETCH MSHR MERGED:          0
LLC WRITEBACK MSHR MERGED:          0
LLC TOTAL ACCESSES:    2811119 HITS:    1276606 MISSES:    1534513
LLC LOAD ACCESSES:    1040935 HITS:     296289 MISSES:     744646
LLC RFO ACCESSES:      32678 HITS:        820 MISSES:      31858
LLC PREFETCH ACCESSES:    1052632 HITS:     298121 MISSES:     754511
LLC WRITEBACK ACCESSES:     684874 HITS:     681376 MISSES:       3498
LLC 0 RQ ACCESS:    1073613
LLC 0 RQ TO_CACHE:    1073613
LLC 0 RQ MERGED:          0
LLC 0 RQ FORWARD:          0
LLC WQ ACCESS:     684874
LLC WQ TO_CACHE:     684874
LLC WQ MERGED:          0
LLC WQ FORWARD:          0
Major fault: 0 Minor fault: 11619
CPU 0 L1D next line prefetcher final stats
CPU 0 L2C PC-based stride prefetcher final stats

DRAM Statistics
 CHANNEL 0
 RQ ROW_BUFFER_HIT:      34610  ROW_BUFFER_MISS:    1496158
 DBUS_CONGESTED:    1367731
 WQ ROW_BUFFER_HIT:      47727  ROW_BUFFER_MISS:     513548  FULL:          0

 AVG_CONGESTED_CYCLE: 13
LOADS RETIRED: 42018305
INSTR RETIRED: 150000000
