
*** ChampSim Multicore Out-of-Order Simulator ***

Warmup Instructions: 100000000
Simulation Instructions: 150000000
Number of CPUs: 1
LLC sets: 2048
LLC ways: 16
Clean RRIP Policies: 0 Dirty RRIP Policies: 0 PSEL Width: 10 Track Set: 4294967295 PSEL Mask: 15 Demote Mask: 0DS Algo: 0Window size: 64
Off-chip DRAM Size: 4096 MB Channels: 1 Width: 64-bit Data Rate: 1600 MT/s

CPU 0 runs /mnt/beegfs/pchatz06/traces/557.xz_r.train.input2.region_12.w_0.04094.trace.gz
NOT SORTED
TRACE STRING: /mnt/beegfs/pchatz06/traces/557.xz_r.train.input2.region_12.w_0.04094.trace.gz
SORTED
TRACE STRING: /mnt/beegfs/pchatz06/traces/557.xz_r.train.input2.region_12.w_0.04094.trace.gz
INITIAL
TRACE STRING: /mnt/beegfs/pchatz06/traces/557.xz_r.train.input2.region_12.w_0.04094.trace.gz

champsim_seed used: 257

CPU 0 L1D next line prefetcher
CPU 0 L2C IP-based stride prefetcher
Heartbeat CPU 0 instructions: 10000002 cycles: 4247084 heartbeat IPC: 2.35456 cumulative IPC: 2.35456 (Simulation time: 0 hr 0 min 8 sec) 
Heartbeat CPU 0 instructions: 20000000 cycles: 8485435 heartbeat IPC: 2.35941 cumulative IPC: 2.35698 (Simulation time: 0 hr 0 min 16 sec) 
Heartbeat CPU 0 instructions: 30000003 cycles: 12729891 heartbeat IPC: 2.35602 cumulative IPC: 2.35666 (Simulation time: 0 hr 0 min 24 sec) 
Heartbeat CPU 0 instructions: 40000000 cycles: 16969673 heartbeat IPC: 2.35861 cumulative IPC: 2.35715 (Simulation time: 0 hr 0 min 33 sec) 
Heartbeat CPU 0 instructions: 50000000 cycles: 21213961 heartbeat IPC: 2.35611 cumulative IPC: 2.35694 (Simulation time: 0 hr 0 min 41 sec) 
Heartbeat CPU 0 instructions: 60000000 cycles: 25454012 heartbeat IPC: 2.35846 cumulative IPC: 2.35719 (Simulation time: 0 hr 0 min 49 sec) 
Heartbeat CPU 0 instructions: 70000002 cycles: 29696106 heartbeat IPC: 2.35733 cumulative IPC: 2.35721 (Simulation time: 0 hr 0 min 57 sec) 
Heartbeat CPU 0 instructions: 80000000 cycles: 33933470 heartbeat IPC: 2.35996 cumulative IPC: 2.35755 (Simulation time: 0 hr 1 min 6 sec) 
Heartbeat CPU 0 instructions: 90000002 cycles: 38174326 heartbeat IPC: 2.35802 cumulative IPC: 2.35761 (Simulation time: 0 hr 1 min 14 sec) 
Heartbeat CPU 0 instructions: 100000000 cycles: 42415335 heartbeat IPC: 2.35793 cumulative IPC: 2.35764 (Simulation time: 0 hr 1 min 22 sec) 

Warmup complete CPU 0 instructions: 100000002 cycles: 42415336 (Simulation time: 0 hr 1 min 22 sec) 

Heartbeat CPU 0 instructions: 110000003 cycles: 51832953 heartbeat IPC: 1.06184 cumulative IPC: 1.06184 (Simulation time: 0 hr 1 min 36 sec) 
Heartbeat CPU 0 instructions: 120000000 cycles: 61214771 heartbeat IPC: 1.06589 cumulative IPC: 1.06386 (Simulation time: 0 hr 1 min 49 sec) 
Heartbeat CPU 0 instructions: 130000003 cycles: 70594325 heartbeat IPC: 1.06615 cumulative IPC: 1.06462 (Simulation time: 0 hr 2 min 3 sec) 
Heartbeat CPU 0 instructions: 140000000 cycles: 80036019 heartbeat IPC: 1.05913 cumulative IPC: 1.06324 (Simulation time: 0 hr 2 min 16 sec) 
Heartbeat CPU 0 instructions: 150000002 cycles: 89430562 heartbeat IPC: 1.06445 cumulative IPC: 1.06349 (Simulation time: 0 hr 2 min 30 sec) 
Heartbeat CPU 0 instructions: 160000000 cycles: 98842895 heartbeat IPC: 1.06244 cumulative IPC: 1.06331 (Simulation time: 0 hr 2 min 44 sec) 
Heartbeat CPU 0 instructions: 170000002 cycles: 108236897 heartbeat IPC: 1.06451 cumulative IPC: 1.06348 (Simulation time: 0 hr 2 min 57 sec) 
Heartbeat CPU 0 instructions: 180000000 cycles: 117677894 heartbeat IPC: 1.05921 cumulative IPC: 1.06295 (Simulation time: 0 hr 3 min 11 sec) 
Heartbeat CPU 0 instructions: 190000003 cycles: 127066372 heartbeat IPC: 1.06514 cumulative IPC: 1.06319 (Simulation time: 0 hr 3 min 25 sec) 
Heartbeat CPU 0 instructions: 200000000 cycles: 136492672 heartbeat IPC: 1.06086 cumulative IPC: 1.06296 (Simulation time: 0 hr 3 min 38 sec) 
Heartbeat CPU 0 instructions: 210000001 cycles: 145873128 heartbeat IPC: 1.06605 cumulative IPC: 1.06324 (Simulation time: 0 hr 3 min 52 sec) 
Heartbeat CPU 0 instructions: 220000000 cycles: 155252851 heartbeat IPC: 1.06613 cumulative IPC: 1.06348 (Simulation time: 0 hr 4 min 6 sec) 
Heartbeat CPU 0 instructions: 230000003 cycles: 164707625 heartbeat IPC: 1.05767 cumulative IPC: 1.06303 (Simulation time: 0 hr 4 min 19 sec) 
Heartbeat CPU 0 instructions: 240000000 cycles: 174113324 heartbeat IPC: 1.06318 cumulative IPC: 1.06304 (Simulation time: 0 hr 4 min 33 sec) 
*** Reached end of trace for Core: 0 Repeating trace: /mnt/beegfs/pchatz06/traces/557.xz_r.train.input2.region_12.w_0.04094.trace.gz
Heartbeat CPU 0 instructions: 250000000 cycles: 183510773 heartbeat IPC: 1.06412 cumulative IPC: 1.06311 (Simulation time: 0 hr 4 min 46 sec) 
Finished CPU 0 instructions: 150000002 cycles: 141095441 cumulative IPC: 1.06311 (Simulation time: 0 hr 4 min 46 sec) 

CPU 0 Branch Prediction Accuracy: 83.851% MPKI: 20.5852
Number of Branches: 19120521 Number of Mispredictions: 3087781
Number of LOAD Instructions: 36951291
Number of LOAD Instructions (ROI): 36951291
Number of STORE Instructions: 13928499
Number of STORE Instructions (ROI): 13928499
Total Destination Memory Operands: 14484982
Total Destination Memory Operands (ROI): 14484982
Total Source Memory Operands: 36951291
Total Source Memory Operands (ROI): 36951291
Number of DEPENDED LOADS: 3656570
Number of DEPENDED LOADS (ROI): 3656570
Number of SQ_ADDED: 14484982
Number of SQ_ADDED (ROI): 14484982
Number of LQ_ADDED: 37578332
Number of LQ_ADDED (ROI): 37578332
Number of Instructions read from trace: 250000009

ChampSim completed all CPUs

Region of Interest Statistics

CPU 0 cumulative IPC: 1.06311 instructions: 150000002 cycles: 141095441
ITLB TOTAL     ACCESS:   24231635  HIT:   24231635  MISS:          0
ITLB LOAD      ACCESS:   24231635  HIT:   24231635  MISS:          0
ITLB RFO       ACCESS:          0  HIT:          0  MISS:          0
ITLB PREFETCH  ACCESS:          0  HIT:          0  MISS:          0
ITLB WRITEBACK ACCESS:          0  HIT:          0  MISS:          0
ITLB PREFETCH  REQUESTED:          0  ISSUED:          0  USEFUL:          0  USELESS:          0
ITLB TOTAL MSHR MERGED:          0
ITLB LOAD MSHR MERGED:          0
ITLB RFO MSHR MERGED:          0
ITLB PREFETCH MSHR MERGED:          0
ITLB WRITEBACK MSHR MERGED:          0
ITLB TOTAL ACCESSES:   24231635 HITS:   24231635 MISSES:          0
ITLB LOAD ACCESSES:   24231635 HITS:   24231635 MISSES:          0
ITLB RFO ACCESSES:          0 HITS:          0 MISSES:          0
ITLB PREFETCH ACCESSES:          0 HITS:          0 MISSES:          0
ITLB WRITEBACK ACCESSES:          0 HITS:          0 MISSES:          0
ITLB RQ ACCESS:  149999990
ITLB RQ TO_CACHE:   24231635
ITLB RQ MERGED:  125768355
ITLB RQ FORWARD:          0
ITLB WQ ACCESS:          0
ITLB WQ TO_CACHE:          0
ITLB WQ MERGED:          0
ITLB WQ FORWARD:          0
DTLB TOTAL     ACCESS:   19548696  HIT:   19544069  MISS:       4627
DTLB LOAD      ACCESS:   11549867  HIT:   11545577  MISS:       4290
DTLB RFO       ACCESS:    7998829  HIT:    7998492  MISS:        337
DTLB PREFETCH  ACCESS:          0  HIT:          0  MISS:          0
DTLB WRITEBACK ACCESS:          0  HIT:          0  MISS:          0
DTLB PREFETCH  REQUESTED:          0  ISSUED:          0  USEFUL:          0  USELESS:          0
DTLB TOTAL MSHR MERGED:          0
DTLB LOAD MSHR MERGED:          0
DTLB RFO MSHR MERGED:          0
DTLB PREFETCH MSHR MERGED:          0
DTLB WRITEBACK MSHR MERGED:          0
DTLB TOTAL ACCESSES:   19548696 HITS:   19544069 MISSES:       4627
DTLB LOAD ACCESSES:   11549867 HITS:   11545577 MISSES:       4290
DTLB RFO ACCESSES:    7998829 HITS:    7998492 MISSES:        337
DTLB PREFETCH ACCESSES:          0 HITS:          0 MISSES:          0
DTLB WRITEBACK ACCESSES:          0 HITS:          0 MISSES:          0
DTLB RQ ACCESS:   28048407
DTLB RQ TO_CACHE:   19548696
DTLB RQ MERGED:    8499711
DTLB RQ FORWARD:          0
DTLB WQ ACCESS:          0
DTLB WQ TO_CACHE:          0
DTLB WQ MERGED:          0
DTLB WQ FORWARD:          0
L1D TOTAL     ACCESS:   34502454  HIT:   34388283  MISS:     114171
L1D LOAD      ACCESS:   14155920  HIT:   14126235  MISS:      29685
L1D RFO       ACCESS:    8615307  HIT:    8585940  MISS:      29367
L1D PREFETCH  ACCESS:   11731227  HIT:   11676108  MISS:      55119
L1D WRITEBACK ACCESS:          0  HIT:          0  MISS:          0
L1D PREFETCH  REQUESTED:   14158910  ISSUED:   14102687  USEFUL:      44882  USELESS:      10215
L1D TOTAL MSHR MERGED:     152254
L1D LOAD MSHR MERGED:       8309
L1D RFO MSHR MERGED:      72064
L1D PREFETCH MSHR MERGED:      71881
L1D WRITEBACK MSHR MERGED:          0
L1D TOTAL ACCESSES:   34654802 HITS:   34388377 MISSES:     266425
L1D LOAD ACCESSES:   14158910 HITS:   14126235 MISSES:      32675
L1D RFO ACCESSES:    8687371 HITS:    8585940 MISSES:     101431
L1D PREFETCH ACCESSES:   11808521 HITS:   11676202 MISSES:     132319
L1D WRITEBACK ACCESSES:          0 HITS:          0 MISSES:          0
L1D RQ ACCESS:   19356235
L1D RQ TO_CACHE:   14158910
L1D RQ MERGED:    5197325
L1D RQ FORWARD:          0
L1D WQ ACCESS:    8692171
L1D WQ TO_CACHE:    8687371
L1D WQ MERGED:       4800
L1D WQ FORWARD:         94
L1I TOTAL     ACCESS:   30582702  HIT:   30582700  MISS:          2
L1I LOAD      ACCESS:   30582702  HIT:   30582700  MISS:          2
L1I RFO       ACCESS:          0  HIT:          0  MISS:          0
L1I PREFETCH  ACCESS:          0  HIT:          0  MISS:          0
L1I WRITEBACK ACCESS:          0  HIT:          0  MISS:          0
L1I PREFETCH  REQUESTED:          0  ISSUED:          0  USEFUL:          0  USELESS:          0
L1I TOTAL MSHR MERGED:          0
L1I LOAD MSHR MERGED:          0
L1I RFO MSHR MERGED:          0
L1I PREFETCH MSHR MERGED:          0
L1I WRITEBACK MSHR MERGED:          0
L1I TOTAL ACCESSES:   30582702 HITS:   30582700 MISSES:          2
L1I LOAD ACCESSES:   30582702 HITS:   30582700 MISSES:          2
L1I RFO ACCESSES:          0 HITS:          0 MISSES:          0
L1I PREFETCH ACCESSES:          0 HITS:          0 MISSES:          0
L1I WRITEBACK ACCESSES:          0 HITS:          0 MISSES:          0
L1I RQ ACCESS:  149999994
L1I RQ TO_CACHE:   30582702
L1I RQ MERGED:  119417292
L1I RQ FORWARD:          0
L1I WQ ACCESS:          0
L1I WQ TO_CACHE:          0
L1I WQ MERGED:          0
L1I WQ FORWARD:          0
L2C TOTAL     ACCESS:     169438  HIT:     129991  MISS:      39447
L2C LOAD      ACCESS:      24368  HIT:      19712  MISS:       4656
L2C RFO       ACCESS:      29367  HIT:      19101  MISS:      10266
L2C PREFETCH  ACCESS:      60918  HIT:      36418  MISS:      24500
L2C WRITEBACK ACCESS:      54785  HIT:      54760  MISS:         25
L2C PREFETCH  REQUESTED:        480  ISSUED:        480  USEFUL:        406  USELESS:      24197
L2C TOTAL MSHR MERGED:          0
L2C LOAD MSHR MERGED:          0
L2C RFO MSHR MERGED:          0
L2C PREFETCH MSHR MERGED:          0
L2C WRITEBACK MSHR MERGED:          0
L2C TOTAL ACCESSES:     169438 HITS:     129991 MISSES:      39447
L2C LOAD ACCESSES:      24368 HITS:      19712 MISSES:       4656
L2C RFO ACCESSES:      29367 HITS:      19101 MISSES:      10266
L2C PREFETCH ACCESSES:      60918 HITS:      36418 MISSES:      24500
L2C WRITEBACK ACCESSES:      54785 HITS:      54760 MISSES:         25
L2C RQ ACCESS:      53735
L2C RQ TO_CACHE:      53735
L2C RQ MERGED:          0
L2C RQ FORWARD:          0
L2C WQ ACCESS:      54785
L2C WQ TO_CACHE:      54785
L2C WQ MERGED:          0
L2C WQ FORWARD:          0
LLC TOTAL     ACCESS:      59693  HIT:      23397  MISS:      36296
LLC LOAD      ACCESS:       4656  HIT:       1122  MISS:       3534
LLC RFO       ACCESS:      10266  HIT:          2  MISS:      10264
LLC PREFETCH  ACCESS:      24500  HIT:       2012  MISS:      22488
LLC WRITEBACK ACCESS:      20271  HIT:      20261  MISS:         10
LLC PREFETCH  REQUESTED:          0  ISSUED:          0  USEFUL:        763  USELESS:      17835
LLC TOTAL MSHR MERGED:          0
LLC LOAD MSHR MERGED:          0
LLC RFO MSHR MERGED:          0
LLC PREFETCH MSHR MERGED:          0
LLC WRITEBACK MSHR MERGED:          0
LLC TOTAL ACCESSES:      59693 HITS:      23397 MISSES:      36296
LLC LOAD ACCESSES:       4656 HITS:       1122 MISSES:       3534
LLC RFO ACCESSES:      10266 HITS:          2 MISSES:      10264
LLC PREFETCH ACCESSES:      24500 HITS:       2012 MISSES:      22488
LLC WRITEBACK ACCESSES:      20271 HITS:      20261 MISSES:         10
LLC 0 RQ ACCESS:      14922
LLC 0 RQ TO_CACHE:      14922
LLC 0 RQ MERGED:          0
LLC 0 RQ FORWARD:          0
LLC WQ ACCESS:      20271
LLC WQ TO_CACHE:      20271
LLC WQ MERGED:          0
LLC WQ FORWARD:          0
Major fault: 0 Minor fault: 1593
CPU 0 L1D next line prefetcher final stats
CPU 0 L2C PC-based stride prefetcher final stats

DRAM Statistics
 CHANNEL 0
 RQ ROW_BUFFER_HIT:      21700  ROW_BUFFER_MISS:      14582
 DBUS_CONGESTED:      17892
 WQ ROW_BUFFER_HIT:       3372  ROW_BUFFER_MISS:      12158  FULL:          0

 AVG_CONGESTED_CYCLE: 13
LOADS RETIRED: 22169828
INSTR RETIRED: 150000000
