
*** ChampSim Multicore Out-of-Order Simulator ***

Warmup Instructions: 100000000
Simulation Instructions: 150000000
Number of CPUs: 1
LLC sets: 2048
LLC ways: 16
Clean RRIP Policies: 0 Dirty RRIP Policies: 0 PSEL Width: 10 Track Set: 4294967295 PSEL Mask: 15 Demote Mask: 0DS Algo: 0Window size: 64
Off-chip DRAM Size: 4096 MB Channels: 1 Width: 64-bit Data Rate: 1600 MT/s

CPU 0 runs /mnt/beegfs/pchatz06/traces/557.xz_r.refrate.input3.region_12.w_0.03630.trace.gz
NOT SORTED
TRACE STRING: /mnt/beegfs/pchatz06/traces/557.xz_r.refrate.input3.region_12.w_0.03630.trace.gz
SORTED
TRACE STRING: /mnt/beegfs/pchatz06/traces/557.xz_r.refrate.input3.region_12.w_0.03630.trace.gz
INITIAL
TRACE STRING: /mnt/beegfs/pchatz06/traces/557.xz_r.refrate.input3.region_12.w_0.03630.trace.gz

champsim_seed used: 252

CPU 0 L1D next line prefetcher
CPU 0 L2C IP-based stride prefetcher
Heartbeat CPU 0 instructions: 10000003 cycles: 3414870 heartbeat IPC: 2.92837 cumulative IPC: 2.92837 (Simulation time: 0 hr 0 min 10 sec) 
Heartbeat CPU 0 instructions: 20000000 cycles: 6832037 heartbeat IPC: 2.9264 cumulative IPC: 2.92738 (Simulation time: 0 hr 0 min 20 sec) 
Heartbeat CPU 0 instructions: 30000001 cycles: 10249318 heartbeat IPC: 2.9263 cumulative IPC: 2.92702 (Simulation time: 0 hr 0 min 30 sec) 
Heartbeat CPU 0 instructions: 40000000 cycles: 13666519 heartbeat IPC: 2.92637 cumulative IPC: 2.92686 (Simulation time: 0 hr 0 min 40 sec) 
Heartbeat CPU 0 instructions: 50000001 cycles: 17083704 heartbeat IPC: 2.92639 cumulative IPC: 2.92677 (Simulation time: 0 hr 0 min 50 sec) 
Heartbeat CPU 0 instructions: 60000000 cycles: 20501039 heartbeat IPC: 2.92626 cumulative IPC: 2.92668 (Simulation time: 0 hr 1 min 0 sec) 
Heartbeat CPU 0 instructions: 70000002 cycles: 23918200 heartbeat IPC: 2.92641 cumulative IPC: 2.92664 (Simulation time: 0 hr 1 min 10 sec) 
Heartbeat CPU 0 instructions: 80000000 cycles: 27335286 heartbeat IPC: 2.92647 cumulative IPC: 2.92662 (Simulation time: 0 hr 1 min 19 sec) 
Heartbeat CPU 0 instructions: 90000002 cycles: 30752661 heartbeat IPC: 2.92622 cumulative IPC: 2.92658 (Simulation time: 0 hr 1 min 29 sec) 
Heartbeat CPU 0 instructions: 100000000 cycles: 34169901 heartbeat IPC: 2.92634 cumulative IPC: 2.92655 (Simulation time: 0 hr 1 min 39 sec) 

Warmup complete CPU 0 instructions: 100000001 cycles: 34169902 (Simulation time: 0 hr 1 min 39 sec) 

Heartbeat CPU 0 instructions: 110000001 cycles: 38989486 heartbeat IPC: 2.07487 cumulative IPC: 2.07487 (Simulation time: 0 hr 1 min 55 sec) 
Heartbeat CPU 0 instructions: 120000000 cycles: 43809061 heartbeat IPC: 2.07487 cumulative IPC: 2.07487 (Simulation time: 0 hr 2 min 11 sec) 
Heartbeat CPU 0 instructions: 130000000 cycles: 48628338 heartbeat IPC: 2.075 cumulative IPC: 2.07491 (Simulation time: 0 hr 2 min 27 sec) 
Heartbeat CPU 0 instructions: 140000000 cycles: 53447660 heartbeat IPC: 2.07498 cumulative IPC: 2.07493 (Simulation time: 0 hr 2 min 42 sec) 
Heartbeat CPU 0 instructions: 150000000 cycles: 58267326 heartbeat IPC: 2.07483 cumulative IPC: 2.07491 (Simulation time: 0 hr 2 min 58 sec) 
Heartbeat CPU 0 instructions: 160000000 cycles: 63085915 heartbeat IPC: 2.0753 cumulative IPC: 2.07497 (Simulation time: 0 hr 3 min 14 sec) 
Heartbeat CPU 0 instructions: 170000001 cycles: 67903645 heartbeat IPC: 2.07567 cumulative IPC: 2.07507 (Simulation time: 0 hr 3 min 30 sec) 
Heartbeat CPU 0 instructions: 180000000 cycles: 72721366 heartbeat IPC: 2.07567 cumulative IPC: 2.07515 (Simulation time: 0 hr 3 min 46 sec) 
Heartbeat CPU 0 instructions: 190000003 cycles: 77538886 heartbeat IPC: 2.07576 cumulative IPC: 2.07522 (Simulation time: 0 hr 4 min 1 sec) 
Heartbeat CPU 0 instructions: 200000000 cycles: 82356236 heartbeat IPC: 2.07583 cumulative IPC: 2.07528 (Simulation time: 0 hr 4 min 17 sec) 
Heartbeat CPU 0 instructions: 210000000 cycles: 87174332 heartbeat IPC: 2.07551 cumulative IPC: 2.0753 (Simulation time: 0 hr 4 min 33 sec) 
Heartbeat CPU 0 instructions: 220000000 cycles: 91991766 heartbeat IPC: 2.07579 cumulative IPC: 2.07534 (Simulation time: 0 hr 4 min 49 sec) 
Heartbeat CPU 0 instructions: 230000003 cycles: 96809466 heartbeat IPC: 2.07568 cumulative IPC: 2.07537 (Simulation time: 0 hr 5 min 5 sec) 
Heartbeat CPU 0 instructions: 240000000 cycles: 101629767 heartbeat IPC: 2.07456 cumulative IPC: 2.07531 (Simulation time: 0 hr 5 min 20 sec) 
*** Reached end of trace for Core: 0 Repeating trace: /mnt/beegfs/pchatz06/traces/557.xz_r.refrate.input3.region_12.w_0.03630.trace.gz
Heartbeat CPU 0 instructions: 250000002 cycles: 106448827 heartbeat IPC: 2.07509 cumulative IPC: 2.07529 (Simulation time: 0 hr 5 min 36 sec) 
Finished CPU 0 instructions: 150000001 cycles: 72278925 cumulative IPC: 2.07529 (Simulation time: 0 hr 5 min 36 sec) 

CPU 0 Branch Prediction Accuracy: 97.8724% MPKI: 0.221773
Number of Branches: 1563523 Number of Mispredictions: 33266
Number of LOAD Instructions: 18130411
Number of LOAD Instructions (ROI): 18130411
Number of STORE Instructions: 4768243
Number of STORE Instructions (ROI): 4768243
Total Destination Memory Operands: 4823688
Total Destination Memory Operands (ROI): 4823688
Total Source Memory Operands: 18130411
Total Source Memory Operands (ROI): 18130411
Number of DEPENDED LOADS: 683471
Number of DEPENDED LOADS (ROI): 683471
Number of SQ_ADDED: 4823688
Number of SQ_ADDED (ROI): 4823688
Number of LQ_ADDED: 18845763
Number of LQ_ADDED (ROI): 18845763
Number of Instructions read from trace: 250000254

ChampSim completed all CPUs

Region of Interest Statistics

CPU 0 cumulative IPC: 2.07529 instructions: 150000001 cycles: 72278925
ITLB TOTAL     ACCESS:   25535767  HIT:   25535767  MISS:          0
ITLB LOAD      ACCESS:   25535767  HIT:   25535767  MISS:          0
ITLB RFO       ACCESS:          0  HIT:          0  MISS:          0
ITLB PREFETCH  ACCESS:          0  HIT:          0  MISS:          0
ITLB WRITEBACK ACCESS:          0  HIT:          0  MISS:          0
ITLB PREFETCH  REQUESTED:          0  ISSUED:          0  USEFUL:          0  USELESS:          0
ITLB TOTAL MSHR MERGED:          0
ITLB LOAD MSHR MERGED:          0
ITLB RFO MSHR MERGED:          0
ITLB PREFETCH MSHR MERGED:          0
ITLB WRITEBACK MSHR MERGED:          0
ITLB TOTAL ACCESSES:   25535767 HITS:   25535767 MISSES:          0
ITLB LOAD ACCESSES:   25535767 HITS:   25535767 MISSES:          0
ITLB RFO ACCESSES:          0 HITS:          0 MISSES:          0
ITLB PREFETCH ACCESSES:          0 HITS:          0 MISSES:          0
ITLB WRITEBACK ACCESSES:          0 HITS:          0 MISSES:          0
ITLB RQ ACCESS:  150000188
ITLB RQ TO_CACHE:   25535768
ITLB RQ MERGED:  124464420
ITLB RQ FORWARD:          0
ITLB WQ ACCESS:          0
ITLB WQ TO_CACHE:          0
ITLB WQ MERGED:          0
ITLB WQ FORWARD:          0
DTLB TOTAL     ACCESS:    9233934  HIT:    9232894  MISS:       1040
DTLB LOAD      ACCESS:    7003573  HIT:    7002533  MISS:       1040
DTLB RFO       ACCESS:    2230361  HIT:    2230361  MISS:          0
DTLB PREFETCH  ACCESS:          0  HIT:          0  MISS:          0
DTLB WRITEBACK ACCESS:          0  HIT:          0  MISS:          0
DTLB PREFETCH  REQUESTED:          0  ISSUED:          0  USEFUL:          0  USELESS:          0
DTLB TOTAL MSHR MERGED:          0
DTLB LOAD MSHR MERGED:          0
DTLB RFO MSHR MERGED:          0
DTLB PREFETCH MSHR MERGED:          0
DTLB WRITEBACK MSHR MERGED:          0
DTLB TOTAL ACCESSES:    9233934 HITS:    9232894 MISSES:       1040
DTLB LOAD ACCESSES:    7003573 HITS:    7002533 MISSES:       1040
DTLB RFO ACCESSES:    2230361 HITS:    2230361 MISSES:          0
DTLB PREFETCH ACCESSES:          0 HITS:          0 MISSES:          0
DTLB WRITEBACK ACCESSES:          0 HITS:          0 MISSES:          0
DTLB RQ ACCESS:   13286562
DTLB RQ TO_CACHE:    9233934
DTLB RQ MERGED:    4052628
DTLB RQ FORWARD:          0
DTLB WQ ACCESS:          0
DTLB WQ TO_CACHE:          0
DTLB WQ MERGED:          0
DTLB WQ FORWARD:          0
L1D TOTAL     ACCESS:   17736390  HIT:   17669856  MISS:      66534
L1D LOAD      ACCESS:    7895795  HIT:    7869216  MISS:      26579
L1D RFO       ACCESS:    2732157  HIT:    2732157  MISS:          0
L1D PREFETCH  ACCESS:    7108438  HIT:    7068483  MISS:      39955
L1D WRITEBACK ACCESS:          0  HIT:          0  MISS:          0
L1D PREFETCH  REQUESTED:    7895795  ISSUED:    7893325  USEFUL:      39955  USELESS:          0
L1D TOTAL MSHR MERGED:      43801
L1D LOAD MSHR MERGED:      16573
L1D RFO MSHR MERGED:          0
L1D PREFETCH MSHR MERGED:      27228
L1D WRITEBACK MSHR MERGED:          0
L1D TOTAL ACCESSES:   17786167 HITS:   17675832 MISSES:     110335
L1D LOAD ACCESSES:    7895795 HITS:    7869216 MISSES:      26579
L1D RFO ACCESSES:    2732157 HITS:    2732157 MISSES:          0
L1D PREFETCH ACCESSES:    7158215 HITS:    7074459 MISSES:      83756
L1D WRITEBACK ACCESSES:          0 HITS:          0 MISSES:          0
L1D RQ ACCESS:   10392359
L1D RQ TO_CACHE:    7895795
L1D RQ MERGED:    2496564
L1D RQ FORWARD:          0
L1D WQ ACCESS:    2894204
L1D WQ TO_CACHE:    2732158
L1D WQ MERGED:     162046
L1D WQ FORWARD:       5976
L1I TOTAL     ACCESS:   30120562  HIT:   30120562  MISS:          0
L1I LOAD      ACCESS:   30120562  HIT:   30120562  MISS:          0
L1I RFO       ACCESS:          0  HIT:          0  MISS:          0
L1I PREFETCH  ACCESS:          0  HIT:          0  MISS:          0
L1I WRITEBACK ACCESS:          0  HIT:          0  MISS:          0
L1I PREFETCH  REQUESTED:          0  ISSUED:          0  USEFUL:          0  USELESS:          0
L1I TOTAL MSHR MERGED:          0
L1I LOAD MSHR MERGED:          0
L1I RFO MSHR MERGED:          0
L1I PREFETCH MSHR MERGED:          0
L1I WRITEBACK MSHR MERGED:          0
L1I TOTAL ACCESSES:   30120562 HITS:   30120562 MISSES:          0
L1I LOAD ACCESSES:   30120562 HITS:   30120562 MISSES:          0
L1I RFO ACCESSES:          0 HITS:          0 MISSES:          0
L1I PREFETCH ACCESSES:          0 HITS:          0 MISSES:          0
L1I WRITEBACK ACCESSES:          0 HITS:          0 MISSES:          0
L1I RQ ACCESS:  150000184
L1I RQ TO_CACHE:   30120562
L1I RQ MERGED:  119879622
L1I RQ FORWARD:          0
L1I WQ ACCESS:          0
L1I WQ TO_CACHE:          0
L1I WQ MERGED:          0
L1I WQ FORWARD:          0
L2C TOTAL     ACCESS:      69521  HIT:       2987  MISS:      66534
L2C LOAD      ACCESS:      10006  HIT:        780  MISS:       9226
L2C RFO       ACCESS:          0  HIT:          0  MISS:          0
L2C PREFETCH  ACCESS:      59515  HIT:       2207  MISS:      57308
L2C WRITEBACK ACCESS:          0  HIT:          0  MISS:          0
L2C PREFETCH  REQUESTED:       2987  ISSUED:       2987  USEFUL:        780  USELESS:      57080
L2C TOTAL MSHR MERGED:          0
L2C LOAD MSHR MERGED:          0
L2C RFO MSHR MERGED:          0
L2C PREFETCH MSHR MERGED:          0
L2C WRITEBACK MSHR MERGED:          0
L2C TOTAL ACCESSES:      69521 HITS:       2987 MISSES:      66534
L2C LOAD ACCESSES:      10006 HITS:        780 MISSES:       9226
L2C RFO ACCESSES:          0 HITS:          0 MISSES:          0
L2C PREFETCH ACCESSES:      59515 HITS:       2207 MISSES:      57308
L2C WRITEBACK ACCESSES:          0 HITS:          0 MISSES:          0
L2C RQ ACCESS:      10006
L2C RQ TO_CACHE:      10006
L2C RQ MERGED:          0
L2C RQ FORWARD:          0
L2C WQ ACCESS:          0
L2C WQ TO_CACHE:          0
L2C WQ MERGED:          0
L2C WQ FORWARD:          0
LLC TOTAL     ACCESS:      66534  HIT:          0  MISS:      66534
LLC LOAD      ACCESS:       9226  HIT:          0  MISS:       9226
LLC RFO       ACCESS:          0  HIT:          0  MISS:          0
LLC PREFETCH  ACCESS:      57308  HIT:          0  MISS:      57308
LLC WRITEBACK ACCESS:          0  HIT:          0  MISS:          0
LLC PREFETCH  REQUESTED:          0  ISSUED:          0  USEFUL:          0  USELESS:      61339
LLC TOTAL MSHR MERGED:          0
LLC LOAD MSHR MERGED:          0
LLC RFO MSHR MERGED:          0
LLC PREFETCH MSHR MERGED:          0
LLC WRITEBACK MSHR MERGED:          0
LLC TOTAL ACCESSES:      66534 HITS:          0 MISSES:      66534
LLC LOAD ACCESSES:       9226 HITS:          0 MISSES:       9226
LLC RFO ACCESSES:          0 HITS:          0 MISSES:          0
LLC PREFETCH ACCESSES:      57308 HITS:          0 MISSES:      57308
LLC WRITEBACK ACCESSES:          0 HITS:          0 MISSES:          0
LLC 0 RQ ACCESS:       9226
LLC 0 RQ TO_CACHE:       9226
LLC 0 RQ MERGED:          0
LLC 0 RQ FORWARD:          0
LLC WQ ACCESS:          0
LLC WQ TO_CACHE:          0
LLC WQ MERGED:          0
LLC WQ FORWARD:          0
Major fault: 0 Minor fault: 1738
CPU 0 L1D next line prefetcher final stats
CPU 0 L2C PC-based stride prefetcher final stats

DRAM Statistics
 CHANNEL 0
 RQ ROW_BUFFER_HIT:      64414  ROW_BUFFER_MISS:       2120
 DBUS_CONGESTED:      12275
 WQ ROW_BUFFER_HIT:          0  ROW_BUFFER_MISS:          0  FULL:          0

 AVG_CONGESTED_CYCLE: 12
LOADS RETIRED: 10878234
INSTR RETIRED: 150000000
