
*** ChampSim Multicore Out-of-Order Simulator ***

Warmup Instructions: 100000000
Simulation Instructions: 150000000
Number of CPUs: 1
LLC sets: 2048
LLC ways: 16
Clean RRIP Policies: 0 Dirty RRIP Policies: 0 PSEL Width: 10 Track Set: 4294967295 PSEL Mask: 15 Demote Mask: 0DS Algo: 0Window size: 64
Off-chip DRAM Size: 4096 MB Channels: 1 Width: 64-bit Data Rate: 1600 MT/s

CPU 0 runs /mnt/beegfs/pchatz06/traces/557.xz_r.refrate.input2.region_7.w_0.13790.trace.gz
NOT SORTED
TRACE STRING: /mnt/beegfs/pchatz06/traces/557.xz_r.refrate.input2.region_7.w_0.13790.trace.gz
SORTED
TRACE STRING: /mnt/beegfs/pchatz06/traces/557.xz_r.refrate.input2.region_7.w_0.13790.trace.gz
INITIAL
TRACE STRING: /mnt/beegfs/pchatz06/traces/557.xz_r.refrate.input2.region_7.w_0.13790.trace.gz

champsim_seed used: 260

CPU 0 L1D next line prefetcher
CPU 0 L2C IP-based stride prefetcher
Heartbeat CPU 0 instructions: 10000003 cycles: 3857614 heartbeat IPC: 2.59228 cumulative IPC: 2.59228 (Simulation time: 0 hr 0 min 11 sec) 
Heartbeat CPU 0 instructions: 20000000 cycles: 7710837 heartbeat IPC: 2.59523 cumulative IPC: 2.59375 (Simulation time: 0 hr 0 min 22 sec) 
Heartbeat CPU 0 instructions: 30000002 cycles: 11589585 heartbeat IPC: 2.57815 cumulative IPC: 2.58853 (Simulation time: 0 hr 0 min 33 sec) 
Heartbeat CPU 0 instructions: 40000000 cycles: 15454990 heartbeat IPC: 2.58705 cumulative IPC: 2.58816 (Simulation time: 0 hr 0 min 44 sec) 
Heartbeat CPU 0 instructions: 50000002 cycles: 19350464 heartbeat IPC: 2.56708 cumulative IPC: 2.58392 (Simulation time: 0 hr 0 min 55 sec) 
Heartbeat CPU 0 instructions: 60000000 cycles: 23196225 heartbeat IPC: 2.60027 cumulative IPC: 2.58663 (Simulation time: 0 hr 1 min 6 sec) 
Heartbeat CPU 0 instructions: 70000003 cycles: 27049971 heartbeat IPC: 2.59488 cumulative IPC: 2.5878 (Simulation time: 0 hr 1 min 17 sec) 
Heartbeat CPU 0 instructions: 80000000 cycles: 30887227 heartbeat IPC: 2.60603 cumulative IPC: 2.59007 (Simulation time: 0 hr 1 min 28 sec) 
Heartbeat CPU 0 instructions: 90000002 cycles: 34698770 heartbeat IPC: 2.62361 cumulative IPC: 2.59375 (Simulation time: 0 hr 1 min 39 sec) 
Heartbeat CPU 0 instructions: 100000000 cycles: 38538937 heartbeat IPC: 2.60405 cumulative IPC: 2.59478 (Simulation time: 0 hr 1 min 50 sec) 

Warmup complete CPU 0 instructions: 100000002 cycles: 38538938 (Simulation time: 0 hr 1 min 50 sec) 

Heartbeat CPU 0 instructions: 110000000 cycles: 45882555 heartbeat IPC: 1.36173 cumulative IPC: 1.36173 (Simulation time: 0 hr 2 min 8 sec) 
Heartbeat CPU 0 instructions: 120000000 cycles: 53239917 heartbeat IPC: 1.35918 cumulative IPC: 1.36045 (Simulation time: 0 hr 2 min 27 sec) 
Heartbeat CPU 0 instructions: 130000002 cycles: 60583886 heartbeat IPC: 1.36166 cumulative IPC: 1.36086 (Simulation time: 0 hr 2 min 45 sec) 
Heartbeat CPU 0 instructions: 140000000 cycles: 67905643 heartbeat IPC: 1.36579 cumulative IPC: 1.36209 (Simulation time: 0 hr 3 min 3 sec) 
Heartbeat CPU 0 instructions: 150000002 cycles: 75226164 heartbeat IPC: 1.36602 cumulative IPC: 1.36287 (Simulation time: 0 hr 3 min 21 sec) 
Heartbeat CPU 0 instructions: 160000000 cycles: 82515367 heartbeat IPC: 1.37189 cumulative IPC: 1.36437 (Simulation time: 0 hr 3 min 39 sec) 
Heartbeat CPU 0 instructions: 170000000 cycles: 89783655 heartbeat IPC: 1.37584 cumulative IPC: 1.36599 (Simulation time: 0 hr 3 min 57 sec) 
Heartbeat CPU 0 instructions: 180000000 cycles: 97167583 heartbeat IPC: 1.35429 cumulative IPC: 1.36452 (Simulation time: 0 hr 4 min 16 sec) 
Heartbeat CPU 0 instructions: 190000001 cycles: 104456950 heartbeat IPC: 1.37186 cumulative IPC: 1.36533 (Simulation time: 0 hr 4 min 34 sec) 
Heartbeat CPU 0 instructions: 200000000 cycles: 112026221 heartbeat IPC: 1.32113 cumulative IPC: 1.36078 (Simulation time: 0 hr 4 min 52 sec) 
Heartbeat CPU 0 instructions: 210000000 cycles: 119653319 heartbeat IPC: 1.31111 cumulative IPC: 1.35611 (Simulation time: 0 hr 5 min 11 sec) 
Heartbeat CPU 0 instructions: 220000000 cycles: 127305028 heartbeat IPC: 1.3069 cumulative IPC: 1.35187 (Simulation time: 0 hr 5 min 29 sec) 
Heartbeat CPU 0 instructions: 230000000 cycles: 134986419 heartbeat IPC: 1.30185 cumulative IPC: 1.34788 (Simulation time: 0 hr 5 min 48 sec) 
Heartbeat CPU 0 instructions: 240000000 cycles: 142656876 heartbeat IPC: 1.3037 cumulative IPC: 1.34463 (Simulation time: 0 hr 6 min 6 sec) 
*** Reached end of trace for Core: 0 Repeating trace: /mnt/beegfs/pchatz06/traces/557.xz_r.refrate.input2.region_7.w_0.13790.trace.gz
Heartbeat CPU 0 instructions: 250000003 cycles: 150422300 heartbeat IPC: 1.28776 cumulative IPC: 1.34068 (Simulation time: 0 hr 6 min 24 sec) 
Finished CPU 0 instructions: 150000001 cycles: 111883362 cumulative IPC: 1.34068 (Simulation time: 0 hr 6 min 24 sec) 

CPU 0 Branch Prediction Accuracy: 99.0722% MPKI: 1.56745
Number of Branches: 25341995 Number of Mispredictions: 235117
Number of LOAD Instructions: 52084688
Number of LOAD Instructions (ROI): 52084688
Number of STORE Instructions: 9753245
Number of STORE Instructions (ROI): 9753245
Total Destination Memory Operands: 10073326
Total Destination Memory Operands (ROI): 10073326
Total Source Memory Operands: 52084688
Total Source Memory Operands (ROI): 52084688
Number of DEPENDED LOADS: 2598935
Number of DEPENDED LOADS (ROI): 2598935
Number of SQ_ADDED: 10073326
Number of SQ_ADDED (ROI): 10073326
Number of LQ_ADDED: 54040275
Number of LQ_ADDED (ROI): 54040275
Number of Instructions read from trace: 250000024

ChampSim completed all CPUs

Region of Interest Statistics

CPU 0 cumulative IPC: 1.34068 instructions: 150000001 cycles: 111883362
ITLB TOTAL     ACCESS:   29260557  HIT:   29260557  MISS:          0
ITLB LOAD      ACCESS:   29260557  HIT:   29260557  MISS:          0
ITLB RFO       ACCESS:          0  HIT:          0  MISS:          0
ITLB PREFETCH  ACCESS:          0  HIT:          0  MISS:          0
ITLB WRITEBACK ACCESS:          0  HIT:          0  MISS:          0
ITLB PREFETCH  REQUESTED:          0  ISSUED:          0  USEFUL:          0  USELESS:          0
ITLB TOTAL MSHR MERGED:          0
ITLB LOAD MSHR MERGED:          0
ITLB RFO MSHR MERGED:          0
ITLB PREFETCH MSHR MERGED:          0
ITLB WRITEBACK MSHR MERGED:          0
ITLB TOTAL ACCESSES:   29260557 HITS:   29260557 MISSES:          0
ITLB LOAD ACCESSES:   29260557 HITS:   29260557 MISSES:          0
ITLB RFO ACCESSES:          0 HITS:          0 MISSES:          0
ITLB PREFETCH ACCESSES:          0 HITS:          0 MISSES:          0
ITLB WRITEBACK ACCESSES:          0 HITS:          0 MISSES:          0
ITLB RQ ACCESS:  149999768
ITLB RQ TO_CACHE:   29260557
ITLB RQ MERGED:  120739211
ITLB RQ FORWARD:          0
ITLB WQ ACCESS:          0
ITLB WQ TO_CACHE:          0
ITLB WQ MERGED:          0
ITLB WQ FORWARD:          0
DTLB TOTAL     ACCESS:   26443411  HIT:   24627562  MISS:    1815849
DTLB LOAD      ACCESS:   20950937  HIT:   19141564  MISS:    1809373
DTLB RFO       ACCESS:    5492474  HIT:    5485998  MISS:       6476
DTLB PREFETCH  ACCESS:          0  HIT:          0  MISS:          0
DTLB WRITEBACK ACCESS:          0  HIT:          0  MISS:          0
DTLB PREFETCH  REQUESTED:          0  ISSUED:          0  USEFUL:          0  USELESS:          0
DTLB TOTAL MSHR MERGED:     196898
DTLB LOAD MSHR MERGED:     195325
DTLB RFO MSHR MERGED:       1573
DTLB PREFETCH MSHR MERGED:          0
DTLB WRITEBACK MSHR MERGED:          0
DTLB TOTAL ACCESSES:   26640309 HITS:   24627562 MISSES:    2012747
DTLB LOAD ACCESSES:   21146262 HITS:   19141564 MISSES:    2004698
DTLB RFO ACCESSES:    5494047 HITS:    5485998 MISSES:       8049
DTLB PREFETCH ACCESSES:          0 HITS:          0 MISSES:          0
DTLB WRITEBACK ACCESSES:          0 HITS:          0 MISSES:          0
DTLB RQ ACCESS:   34818254
DTLB RQ TO_CACHE:   26640309
DTLB RQ MERGED:    8177945
DTLB RQ FORWARD:          0
DTLB WQ ACCESS:          0
DTLB WQ TO_CACHE:          0
DTLB WQ MERGED:          0
DTLB WQ FORWARD:          0
L1D TOTAL     ACCESS:   40953676  HIT:   32485548  MISS:    8468128
L1D LOAD      ACCESS:   20953123  HIT:   16599914  MISS:    4353209
L1D RFO       ACCESS:    5999611  HIT:    5970691  MISS:      28920
L1D PREFETCH  ACCESS:   14000942  HIT:    9914943  MISS:    4085999
L1D WRITEBACK ACCESS:          0  HIT:          0  MISS:          0
L1D PREFETCH  REQUESTED:   21078307  ISSUED:   20870934  USEFUL:     109800  USELESS:    3976326
L1D TOTAL MSHR MERGED:     237539
L1D LOAD MSHR MERGED:     136943
L1D RFO MSHR MERGED:       8922
L1D PREFETCH MSHR MERGED:      91674
L1D WRITEBACK MSHR MERGED:          0
L1D TOTAL ACCESSES:   41191921 HITS:   32486249 MISSES:    8705672
L1D LOAD ACCESSES:   21078649 HITS:   16600256 MISSES:    4478393
L1D RFO ACCESSES:    6008107 HITS:    5970691 MISSES:      37416
L1D PREFETCH ACCESSES:   14105165 HITS:    9915302 MISSES:    4189863
L1D WRITEBACK ACCESSES:          0 HITS:          0 MISSES:          0
L1D RQ ACCESS:   28773748
L1D RQ TO_CACHE:   21078307
L1D RQ MERGED:    7695099
L1D RQ FORWARD:          0
L1D WQ ACCESS:    6044504
L1D WQ TO_CACHE:    6008107
L1D WQ MERGED:      36397
L1D WQ FORWARD:        701
L1I TOTAL     ACCESS:   36138994  HIT:   36138971  MISS:         23
L1I LOAD      ACCESS:   36138994  HIT:   36138971  MISS:         23
L1I RFO       ACCESS:          0  HIT:          0  MISS:          0
L1I PREFETCH  ACCESS:          0  HIT:          0  MISS:          0
L1I WRITEBACK ACCESS:          0  HIT:          0  MISS:          0
L1I PREFETCH  REQUESTED:          0  ISSUED:          0  USEFUL:          0  USELESS:          0
L1I TOTAL MSHR MERGED:         97
L1I LOAD MSHR MERGED:         97
L1I RFO MSHR MERGED:          0
L1I PREFETCH MSHR MERGED:          0
L1I WRITEBACK MSHR MERGED:          0
L1I TOTAL ACCESSES:   36139091 HITS:   36138971 MISSES:        120
L1I LOAD ACCESSES:   36139091 HITS:   36138971 MISSES:        120
L1I RFO ACCESSES:          0 HITS:          0 MISSES:          0
L1I PREFETCH ACCESSES:          0 HITS:          0 MISSES:          0
L1I WRITEBACK ACCESSES:          0 HITS:          0 MISSES:          0
L1I RQ ACCESS:  149999769
L1I RQ TO_CACHE:   36139091
L1I RQ MERGED:  113860678
L1I RQ FORWARD:          0
L1I WQ ACCESS:          0
L1I WQ TO_CACHE:          0
L1I WQ MERGED:          0
L1I WQ FORWARD:          0
L2C TOTAL     ACCESS:   11860801  HIT:    9696047  MISS:    2164754
L2C LOAD      ACCESS:    4341428  HIT:    3418768  MISS:     922660
L2C RFO       ACCESS:      28494  HIT:      15160  MISS:      13334
L2C PREFETCH  ACCESS:    5381170  HIT:    4152457  MISS:    1228713
L2C WRITEBACK ACCESS:    2109709  HIT:    2109662  MISS:         47
L2C PREFETCH  REQUESTED:    1989359  ISSUED:    1989359  USEFUL:     293569  USELESS:     935222
L2C TOTAL MSHR MERGED:      71685
L2C LOAD MSHR MERGED:      20258
L2C RFO MSHR MERGED:          0
L2C PREFETCH MSHR MERGED:      51427
L2C WRITEBACK MSHR MERGED:          0
L2C TOTAL ACCESSES:   11952789 HITS:    9696092 MISSES:    2256697
L2C LOAD ACCESSES:    4341473 HITS:    3418811 MISSES:     922662
L2C RFO ACCESSES:      28494 HITS:      15160 MISSES:      13334
L2C PREFETCH ACCESSES:    5473113 HITS:    4152459 MISSES:    1320654
L2C WRITEBACK ACCESSES:    2109709 HITS:    2109662 MISSES:         47
L2C RQ ACCESS:    4369967
L2C RQ TO_CACHE:    4369924
L2C RQ MERGED:          0
L2C RQ FORWARD:          0
L2C WQ ACCESS:    2109710
L2C WQ TO_CACHE:    2109710
L2C WQ MERGED:          0
L2C WQ FORWARD:         45
LLC TOTAL     ACCESS:    2955759  HIT:    2896895  MISS:      58864
LLC LOAD      ACCESS:     902130  HIT:     883185  MISS:      18945
LLC RFO       ACCESS:      13333  HIT:       7463  MISS:       5870
LLC PREFETCH  ACCESS:    1266059  HIT:    1232032  MISS:      34027
LLC WRITEBACK ACCESS:     774237  HIT:     774215  MISS:         22
LLC PREFETCH  REQUESTED:          0  ISSUED:          0  USEFUL:       6970  USELESS:      28066
LLC TOTAL MSHR MERGED:         70
LLC LOAD MSHR MERGED:         34
LLC RFO MSHR MERGED:          0
LLC PREFETCH MSHR MERGED:         36
LLC WRITEBACK MSHR MERGED:          0
LLC TOTAL ACCESSES:    2956105 HITS:    2897171 MISSES:      58934
LLC LOAD ACCESSES:     902402 HITS:     883457 MISSES:      18945
LLC RFO ACCESSES:      13334 HITS:       7464 MISSES:       5870
LLC PREFETCH ACCESSES:    1266132 HITS:    1232035 MISSES:      34097
LLC WRITEBACK ACCESSES:     774237 HITS:     774215 MISSES:         22
LLC 0 RQ ACCESS:     915738
LLC 0 RQ TO_CACHE:     915465
LLC 0 RQ MERGED:          0
LLC 0 RQ FORWARD:          0
LLC WQ ACCESS:     774237
LLC WQ TO_CACHE:     774237
LLC WQ MERGED:          0
LLC WQ FORWARD:        276
Major fault: 0 Minor fault: 4397
CPU 0 L1D next line prefetcher final stats
CPU 0 L2C PC-based stride prefetcher final stats

DRAM Statistics
 CHANNEL 0
 RQ ROW_BUFFER_HIT:      11147  ROW_BUFFER_MISS:      45457
 DBUS_CONGESTED:      45952
 WQ ROW_BUFFER_HIT:       3599  ROW_BUFFER_MISS:      30350  FULL:          0

 AVG_CONGESTED_CYCLE: 13
LOADS RETIRED: 31051855
INSTR RETIRED: 150000000
