
*** ChampSim Multicore Out-of-Order Simulator ***

Warmup Instructions: 100000000
Simulation Instructions: 500000000
Number of CPUs: 1
LLC sets: 2048
LLC ways: 16
Clean RRIP Policies: 2213230222132302 Dirty RRIP Policies: 1203130212031302 PSEL Width: 10 Track Set: 4294967295 PSEL Mask: 1 Demote Mask: 1040100310401003DS Algo: 0Window size: 0
Off-chip DRAM Size: 4096 MB Channels: 1 Width: 64-bit Data Rate: 1600 MT/s

CPU 0 runs /mnt/beegfs/iconst01/spec2017/cactuBSSN.trace.gz
NOT SORTED
TRACE STRING: /mnt/beegfs/iconst01/spec2017/cactuBSSN.trace.gz
SORTED
TRACE STRING: /mnt/beegfs/iconst01/spec2017/cactuBSSN.trace.gz
INITIAL
TRACE STRING: /mnt/beegfs/iconst01/spec2017/cactuBSSN.trace.gz

champsim_seed used: 838

CPU 0 L1D next line prefetcher
CPU 0 L2C IP-based stride prefetcher
Initialize DRRIP state
Assign rand_sets[0]: 454  LLC: 2048
rand_sets[0]: 454
Assign rand_sets[1]: 1662  LLC: 2048
rand_sets[1]: 1662
Assign rand_sets[2]: 1921  LLC: 2048
rand_sets[2]: 1921
Assign rand_sets[3]: 1131  LLC: 2048
rand_sets[3]: 1131
Assign rand_sets[4]: 331  LLC: 2048
rand_sets[4]: 331
Assign rand_sets[5]: 1531  LLC: 2048
rand_sets[5]: 1531
Assign rand_sets[6]: 482  LLC: 2048
rand_sets[6]: 482
Assign rand_sets[7]: 1275  LLC: 2048
rand_sets[7]: 1275
Assign rand_sets[8]: 1876  LLC: 2048
rand_sets[8]: 1876
Assign rand_sets[9]: 2038  LLC: 2048
rand_sets[9]: 2038
Assign rand_sets[10]: 701  LLC: 2048
rand_sets[10]: 701
Assign rand_sets[11]: 479  LLC: 2048
rand_sets[11]: 479
Assign rand_sets[12]: 892  LLC: 2048
rand_sets[12]: 892
Assign rand_sets[13]: 1820  LLC: 2048
rand_sets[13]: 1820
Assign rand_sets[14]: 1505  LLC: 2048
rand_sets[14]: 1505
Assign rand_sets[15]: 1159  LLC: 2048
rand_sets[15]: 1159
Assign rand_sets[16]: 513  LLC: 2048
rand_sets[16]: 513
Assign rand_sets[17]: 703  LLC: 2048
rand_sets[17]: 703
Assign rand_sets[18]: 561  LLC: 2048
rand_sets[18]: 561
Assign rand_sets[19]: 990  LLC: 2048
rand_sets[19]: 990
Assign rand_sets[20]: 342  LLC: 2048
rand_sets[20]: 342
Assign rand_sets[21]: 882  LLC: 2048
rand_sets[21]: 882
Assign rand_sets[22]: 15  LLC: 2048
rand_sets[22]: 15
Assign rand_sets[23]: 71  LLC: 2048
rand_sets[23]: 71
Assign rand_sets[24]: 1127  LLC: 2048
rand_sets[24]: 1127
Assign rand_sets[25]: 1382  LLC: 2048
rand_sets[25]: 1382
Assign rand_sets[26]: 647  LLC: 2048
rand_sets[26]: 647
Assign rand_sets[27]: 857  LLC: 2048
rand_sets[27]: 857
Assign rand_sets[28]: 1450  LLC: 2048
rand_sets[28]: 1450
Assign rand_sets[29]: 1160  LLC: 2048
rand_sets[29]: 1160
Assign rand_sets[30]: 1852  LLC: 2048
rand_sets[30]: 1852
Assign rand_sets[31]: 1881  LLC: 2048
rand_sets[31]: 1881
Assign rand_sets[32]: 1770  LLC: 2048
rand_sets[32]: 1770
Assign rand_sets[33]: 1622  LLC: 2048
rand_sets[33]: 1622
Assign rand_sets[34]: 275  LLC: 2048
rand_sets[34]: 275
Assign rand_sets[35]: 635  LLC: 2048
rand_sets[35]: 635
Assign rand_sets[36]: 466  LLC: 2048
rand_sets[36]: 466
Assign rand_sets[37]: 1413  LLC: 2048
rand_sets[37]: 1413
Assign rand_sets[38]: 417  LLC: 2048
rand_sets[38]: 417
Assign rand_sets[39]: 472  LLC: 2048
rand_sets[39]: 472
Assign rand_sets[40]: 1340  LLC: 2048
rand_sets[40]: 1340
Assign rand_sets[41]: 852  LLC: 2048
rand_sets[41]: 852
Assign rand_sets[42]: 1365  LLC: 2048
rand_sets[42]: 1365
Assign rand_sets[43]: 47  LLC: 2048
rand_sets[43]: 47
Assign rand_sets[44]: 823  LLC: 2048
rand_sets[44]: 823
Assign rand_sets[45]: 686  LLC: 2048
rand_sets[45]: 686
Assign rand_sets[46]: 1637  LLC: 2048
rand_sets[46]: 1637
Assign rand_sets[47]: 1115  LLC: 2048
rand_sets[47]: 1115
Assign rand_sets[48]: 986  LLC: 2048
rand_sets[48]: 986
Assign rand_sets[49]: 258  LLC: 2048
rand_sets[49]: 258
Assign rand_sets[50]: 633  LLC: 2048
rand_sets[50]: 633
Assign rand_sets[51]: 920  LLC: 2048
rand_sets[51]: 920
Assign rand_sets[52]: 204  LLC: 2048
rand_sets[52]: 204
Assign rand_sets[53]: 227  LLC: 2048
rand_sets[53]: 227
Assign rand_sets[54]: 1818  LLC: 2048
rand_sets[54]: 1818
Assign rand_sets[55]: 886  LLC: 2048
rand_sets[55]: 886
Assign rand_sets[56]: 1422  LLC: 2048
rand_sets[56]: 1422
Assign rand_sets[57]: 607  LLC: 2048
rand_sets[57]: 607
Assign rand_sets[58]: 217  LLC: 2048
rand_sets[58]: 217
Assign rand_sets[59]: 1945  LLC: 2048
rand_sets[59]: 1945
Assign rand_sets[60]: 143  LLC: 2048
rand_sets[60]: 143
Assign rand_sets[61]: 1311  LLC: 2048
rand_sets[61]: 1311
Assign rand_sets[62]: 319  LLC: 2048
rand_sets[62]: 319
Assign rand_sets[63]: 1846  LLC: 2048
rand_sets[63]: 1846
 CLEAN-RRIP-POLICY-1: 2-2-1-3-2-3-0-2- CLEAN-RRIP-POLICY-2: 2-2-1-3-2-3-0-2-
 DIRTY-RRIP-POLICY-1: 1-2-0-3-1-3-0-2- DIRTY-RRIP-POLICY-2: 1-2-0-3-1-3-0-2-
 PSEL width: 10
Heartbeat CPU 0 instructions: 10000000 cycles: 6588002 heartbeat IPC: 1.51791 cumulative IPC: 1.51791 (Simulation time: 0 hr 0 min 24 sec) 
Heartbeat CPU 0 instructions: 20000000 cycles: 13179597 heartbeat IPC: 1.51708 cumulative IPC: 1.5175 (Simulation time: 0 hr 0 min 48 sec) 
Heartbeat CPU 0 instructions: 30000003 cycles: 19772912 heartbeat IPC: 1.51669 cumulative IPC: 1.51723 (Simulation time: 0 hr 1 min 11 sec) 
Heartbeat CPU 0 instructions: 40000000 cycles: 26364657 heartbeat IPC: 1.51705 cumulative IPC: 1.51718 (Simulation time: 0 hr 1 min 35 sec) 
Heartbeat CPU 0 instructions: 50000001 cycles: 32957333 heartbeat IPC: 1.51683 cumulative IPC: 1.51711 (Simulation time: 0 hr 1 min 59 sec) 
Heartbeat CPU 0 instructions: 60000000 cycles: 39556153 heartbeat IPC: 1.51542 cumulative IPC: 1.51683 (Simulation time: 0 hr 2 min 23 sec) 
Heartbeat CPU 0 instructions: 70000003 cycles: 46154520 heartbeat IPC: 1.51553 cumulative IPC: 1.51664 (Simulation time: 0 hr 2 min 47 sec) 
Heartbeat CPU 0 instructions: 80000000 cycles: 52752575 heartbeat IPC: 1.5156 cumulative IPC: 1.51651 (Simulation time: 0 hr 3 min 11 sec) 
Heartbeat CPU 0 instructions: 90000002 cycles: 59348241 heartbeat IPC: 1.51615 cumulative IPC: 1.51647 (Simulation time: 0 hr 3 min 35 sec) 
Heartbeat CPU 0 instructions: 100000000 cycles: 65943298 heartbeat IPC: 1.51629 cumulative IPC: 1.51645 (Simulation time: 0 hr 3 min 59 sec) 

Warmup complete CPU 0 instructions: 100000002 cycles: 65943299 (Simulation time: 0 hr 3 min 59 sec) 

Heartbeat CPU 0 instructions: 110000000 cycles: 79184024 heartbeat IPC: 0.755246 cumulative IPC: 0.755246 (Simulation time: 0 hr 4 min 28 sec) 
Heartbeat CPU 0 instructions: 120000000 cycles: 92385579 heartbeat IPC: 0.757487 cumulative IPC: 0.756364 (Simulation time: 0 hr 4 min 57 sec) 
Heartbeat CPU 0 instructions: 130000001 cycles: 105651308 heartbeat IPC: 0.753822 cumulative IPC: 0.755515 (Simulation time: 0 hr 5 min 26 sec) 
Heartbeat CPU 0 instructions: 140000000 cycles: 118833366 heartbeat IPC: 0.758607 cumulative IPC: 0.756286 (Simulation time: 0 hr 5 min 55 sec) 
Heartbeat CPU 0 instructions: 150000001 cycles: 132022883 heartbeat IPC: 0.758178 cumulative IPC: 0.756663 (Simulation time: 0 hr 6 min 24 sec) 
Heartbeat CPU 0 instructions: 160000000 cycles: 145263797 heartbeat IPC: 0.755235 cumulative IPC: 0.756425 (Simulation time: 0 hr 6 min 53 sec) 
Heartbeat CPU 0 instructions: 170000000 cycles: 158479331 heartbeat IPC: 0.756685 cumulative IPC: 0.756462 (Simulation time: 0 hr 7 min 22 sec) 
Heartbeat CPU 0 instructions: 180000000 cycles: 171682315 heartbeat IPC: 0.757405 cumulative IPC: 0.75658 (Simulation time: 0 hr 7 min 51 sec) 
Heartbeat CPU 0 instructions: 190000000 cycles: 184845855 heartbeat IPC: 0.759674 cumulative IPC: 0.756922 (Simulation time: 0 hr 8 min 21 sec) 
Heartbeat CPU 0 instructions: 200000000 cycles: 198108069 heartbeat IPC: 0.754022 cumulative IPC: 0.756631 (Simulation time: 0 hr 8 min 50 sec) 
Heartbeat CPU 0 instructions: 210000002 cycles: 211322050 heartbeat IPC: 0.756774 cumulative IPC: 0.756644 (Simulation time: 0 hr 9 min 19 sec) 
Heartbeat CPU 0 instructions: 220000000 cycles: 224495328 heartbeat IPC: 0.759112 cumulative IPC: 0.756849 (Simulation time: 0 hr 9 min 48 sec) 
Heartbeat CPU 0 instructions: 230000003 cycles: 237742630 heartbeat IPC: 0.754871 cumulative IPC: 0.756697 (Simulation time: 0 hr 10 min 17 sec) 
Heartbeat CPU 0 instructions: 240000000 cycles: 250929313 heartbeat IPC: 0.758341 cumulative IPC: 0.756814 (Simulation time: 0 hr 10 min 46 sec) 
Heartbeat CPU 0 instructions: 250000001 cycles: 264155401 heartbeat IPC: 0.756082 cumulative IPC: 0.756765 (Simulation time: 0 hr 11 min 15 sec) 
Heartbeat CPU 0 instructions: 260000000 cycles: 277366659 heartbeat IPC: 0.75693 cumulative IPC: 0.756775 (Simulation time: 0 hr 11 min 44 sec) 
Heartbeat CPU 0 instructions: 270000003 cycles: 290614560 heartbeat IPC: 0.754837 cumulative IPC: 0.756661 (Simulation time: 0 hr 12 min 13 sec) 
Heartbeat CPU 0 instructions: 280000000 cycles: 303813508 heartbeat IPC: 0.757636 cumulative IPC: 0.756715 (Simulation time: 0 hr 12 min 42 sec) 
Heartbeat CPU 0 instructions: 290000000 cycles: 316984935 heartbeat IPC: 0.759219 cumulative IPC: 0.756847 (Simulation time: 0 hr 13 min 11 sec) 
Heartbeat CPU 0 instructions: 300000000 cycles: 330241301 heartbeat IPC: 0.754355 cumulative IPC: 0.756722 (Simulation time: 0 hr 13 min 39 sec) 
Heartbeat CPU 0 instructions: 310000001 cycles: 343420474 heartbeat IPC: 0.758773 cumulative IPC: 0.756819 (Simulation time: 0 hr 14 min 8 sec) 
Heartbeat CPU 0 instructions: 320000000 cycles: 356613045 heartbeat IPC: 0.758002 cumulative IPC: 0.756873 (Simulation time: 0 hr 14 min 37 sec) 
Heartbeat CPU 0 instructions: 330000002 cycles: 369810657 heartbeat IPC: 0.757713 cumulative IPC: 0.756909 (Simulation time: 0 hr 15 min 6 sec) 
Heartbeat CPU 0 instructions: 340000000 cycles: 383049059 heartbeat IPC: 0.755378 cumulative IPC: 0.756845 (Simulation time: 0 hr 15 min 35 sec) 
Heartbeat CPU 0 instructions: 350000000 cycles: 396302547 heartbeat IPC: 0.754518 cumulative IPC: 0.756752 (Simulation time: 0 hr 16 min 3 sec) 
Heartbeat CPU 0 instructions: 360000000 cycles: 409522111 heartbeat IPC: 0.756455 cumulative IPC: 0.756741 (Simulation time: 0 hr 16 min 32 sec) 
Heartbeat CPU 0 instructions: 370000002 cycles: 422792557 heartbeat IPC: 0.753554 cumulative IPC: 0.756622 (Simulation time: 0 hr 17 min 1 sec) 
Heartbeat CPU 0 instructions: 380000000 cycles: 436000359 heartbeat IPC: 0.757128 cumulative IPC: 0.75664 (Simulation time: 0 hr 17 min 29 sec) 
Heartbeat CPU 0 instructions: 390000000 cycles: 449178684 heartbeat IPC: 0.758822 cumulative IPC: 0.756715 (Simulation time: 0 hr 17 min 58 sec) 
Heartbeat CPU 0 instructions: 400000000 cycles: 462376863 heartbeat IPC: 0.75768 cumulative IPC: 0.756747 (Simulation time: 0 hr 18 min 27 sec) 
Heartbeat CPU 0 instructions: 410000001 cycles: 475634737 heartbeat IPC: 0.754269 cumulative IPC: 0.756667 (Simulation time: 0 hr 18 min 55 sec) 
Heartbeat CPU 0 instructions: 420000000 cycles: 488811564 heartbeat IPC: 0.758908 cumulative IPC: 0.756737 (Simulation time: 0 hr 19 min 24 sec) 
Heartbeat CPU 0 instructions: 430000001 cycles: 501997963 heartbeat IPC: 0.758357 cumulative IPC: 0.756786 (Simulation time: 0 hr 19 min 52 sec) 
Heartbeat CPU 0 instructions: 440000000 cycles: 515163379 heartbeat IPC: 0.759566 cumulative IPC: 0.756867 (Simulation time: 0 hr 20 min 21 sec) 
Heartbeat CPU 0 instructions: 450000002 cycles: 528474639 heartbeat IPC: 0.751244 cumulative IPC: 0.756705 (Simulation time: 0 hr 20 min 50 sec) 
Heartbeat CPU 0 instructions: 460000000 cycles: 541690715 heartbeat IPC: 0.756654 cumulative IPC: 0.756704 (Simulation time: 0 hr 21 min 18 sec) 
Heartbeat CPU 0 instructions: 470000003 cycles: 554881492 heartbeat IPC: 0.758106 cumulative IPC: 0.756742 (Simulation time: 0 hr 21 min 47 sec) 
Heartbeat CPU 0 instructions: 480000000 cycles: 568131664 heartbeat IPC: 0.754707 cumulative IPC: 0.756688 (Simulation time: 0 hr 22 min 15 sec) 
Heartbeat CPU 0 instructions: 490000000 cycles: 581346443 heartbeat IPC: 0.756729 cumulative IPC: 0.756689 (Simulation time: 0 hr 22 min 44 sec) 
Heartbeat CPU 0 instructions: 500000000 cycles: 594543367 heartbeat IPC: 0.757752 cumulative IPC: 0.756716 (Simulation time: 0 hr 23 min 13 sec) 
Heartbeat CPU 0 instructions: 510000001 cycles: 607717803 heartbeat IPC: 0.759046 cumulative IPC: 0.756772 (Simulation time: 0 hr 23 min 41 sec) 
Heartbeat CPU 0 instructions: 520000000 cycles: 621004050 heartbeat IPC: 0.752658 cumulative IPC: 0.756674 (Simulation time: 0 hr 24 min 10 sec) 
Heartbeat CPU 0 instructions: 530000000 cycles: 634249037 heartbeat IPC: 0.755003 cumulative IPC: 0.756635 (Simulation time: 0 hr 24 min 38 sec) 
Heartbeat CPU 0 instructions: 540000000 cycles: 647472000 heartbeat IPC: 0.75626 cumulative IPC: 0.756626 (Simulation time: 0 hr 25 min 7 sec) 
Heartbeat CPU 0 instructions: 550000002 cycles: 660734338 heartbeat IPC: 0.754015 cumulative IPC: 0.756568 (Simulation time: 0 hr 25 min 35 sec) 
Heartbeat CPU 0 instructions: 560000000 cycles: 673931097 heartbeat IPC: 0.757762 cumulative IPC: 0.756594 (Simulation time: 0 hr 26 min 4 sec) 
Heartbeat CPU 0 instructions: 570000001 cycles: 687132794 heartbeat IPC: 0.757478 cumulative IPC: 0.756613 (Simulation time: 0 hr 26 min 33 sec) 
Heartbeat CPU 0 instructions: 580000000 cycles: 700340669 heartbeat IPC: 0.757124 cumulative IPC: 0.756624 (Simulation time: 0 hr 27 min 1 sec) 
Heartbeat CPU 0 instructions: 590000003 cycles: 713586732 heartbeat IPC: 0.754942 cumulative IPC: 0.756589 (Simulation time: 0 hr 27 min 29 sec) 
Heartbeat CPU 0 instructions: 600000000 cycles: 726839889 heartbeat IPC: 0.754537 cumulative IPC: 0.756548 (Simulation time: 0 hr 27 min 57 sec) 
Finished CPU 0 instructions: 500000000 cycles: 660896600 cumulative IPC: 0.756548 (Simulation time: 0 hr 27 min 57 sec) 

CPU 0 Branch Prediction Accuracy: 99.968% MPKI: 0.002246
Number of Branches: 3513331 Number of Mispredictions: 1123
Number of LOAD Instructions: 287251172
Number of LOAD Instructions (ROI): 287251172
Number of STORE Instructions: 51060820
Number of STORE Instructions (ROI): 51060820
Total Destination Memory Operands: 51166221
Total Destination Memory Operands (ROI): 51166221
Total Source Memory Operands: 287251172
Total Source Memory Operands (ROI): 287251172
Number of DEPENDED LOADS: 9555486
Number of DEPENDED LOADS (ROI): 9555486
Number of SQ_ADDED: 51166208
Number of SQ_ADDED (ROI): 51166208
Number of LQ_ADDED: 290419940
Number of LQ_ADDED (ROI): 290419940
Number of Instructions read from trace: 600000257

ChampSim completed all CPUs

Region of Interest Statistics

CPU 0 cumulative IPC: 0.756548 instructions: 500000000 cycles: 660896600
ITLB TOTAL     ACCESS:  108950730  HIT:  108950730  MISS:          0
ITLB LOAD      ACCESS:  108950730  HIT:  108950730  MISS:          0
ITLB RFO       ACCESS:          0  HIT:          0  MISS:          0
ITLB PREFETCH  ACCESS:          0  HIT:          0  MISS:          0
ITLB WRITEBACK ACCESS:          0  HIT:          0  MISS:          0
ITLB PREFETCH  REQUESTED:          0  ISSUED:          0  USEFUL:          0  USELESS:          0
ITLB TOTAL MSHR MERGED:          0
ITLB LOAD MSHR MERGED:          0
ITLB RFO MSHR MERGED:          0
ITLB PREFETCH MSHR MERGED:          0
ITLB WRITEBACK MSHR MERGED:          0
ITLB TOTAL ACCESSES:  108950730 HITS:  108950730 MISSES:          0
ITLB LOAD ACCESSES:  108950730 HITS:  108950730 MISSES:          0
ITLB RFO ACCESSES:          0 HITS:          0 MISSES:          0
ITLB PREFETCH ACCESSES:          0 HITS:          0 MISSES:          0
ITLB WRITEBACK ACCESSES:          0 HITS:          0 MISSES:          0
ITLB RQ ACCESS:  500000001
ITLB RQ TO_CACHE:  108950730
ITLB RQ MERGED:  391049271
ITLB RQ FORWARD:          0
ITLB WQ ACCESS:          0
ITLB WQ TO_CACHE:          0
ITLB WQ MERGED:          0
ITLB WQ FORWARD:          0
DTLB TOTAL     ACCESS:  171131117  HIT:  161114803  MISS:   10016314
DTLB LOAD      ACCESS:  143471866  HIT:  135595802  MISS:    7876064
DTLB RFO       ACCESS:   27659251  HIT:   25519001  MISS:    2140250
DTLB PREFETCH  ACCESS:          0  HIT:          0  MISS:          0
DTLB WRITEBACK ACCESS:          0  HIT:          0  MISS:          0
DTLB PREFETCH  REQUESTED:          0  ISSUED:          0  USEFUL:          0  USELESS:          0
DTLB TOTAL MSHR MERGED:     360435
DTLB LOAD MSHR MERGED:     360435
DTLB RFO MSHR MERGED:          0
DTLB PREFETCH MSHR MERGED:          0
DTLB WRITEBACK MSHR MERGED:          0
DTLB TOTAL ACCESSES:  171491552 HITS:  161114803 MISSES:   10376749
DTLB LOAD ACCESSES:  143832301 HITS:  135595802 MISSES:    8236499
DTLB RFO ACCESSES:   27659251 HITS:   25519001 MISSES:    2140250
DTLB PREFETCH ACCESSES:          0 HITS:          0 MISSES:          0
DTLB WRITEBACK ACCESSES:          0 HITS:          0 MISSES:          0
DTLB RQ ACCESS:  274072331
DTLB RQ TO_CACHE:  171491552
DTLB RQ MERGED:  102580779
DTLB RQ FORWARD:          0
DTLB WQ ACCESS:          0
DTLB WQ TO_CACHE:          0
DTLB WQ MERGED:          0
DTLB WQ FORWARD:          0
L1D TOTAL     ACCESS:  350951522  HIT:  283752220  MISS:   67199302
L1D LOAD      ACCESS:  175627265  HIT:  142588075  MISS:   33039190
L1D RFO       ACCESS:   42020137  HIT:   39214597  MISS:    2805540
L1D PREFETCH  ACCESS:  133304120  HIT:  101949548  MISS:   31354572
L1D WRITEBACK ACCESS:          0  HIT:          0  MISS:          0
L1D PREFETCH  REQUESTED:  176231236  ISSUED:  175292946  USEFUL:    2180642  USELESS:   29173932
L1D TOTAL MSHR MERGED:    1482523
L1D LOAD MSHR MERGED:     703914
L1D RFO MSHR MERGED:     348964
L1D PREFETCH MSHR MERGED:     429645
L1D WRITEBACK MSHR MERGED:          0
L1D TOTAL ACCESSES:  352546574 HITS:  283864749 MISSES:   68681825
L1D LOAD ACCESSES:  176237820 HITS:  142594659 MISSES:   33643161
L1D RFO ACCESSES:   42368423 HITS:   39214597 MISSES:    3153826
L1D PREFETCH ACCESSES:  133940331 HITS:  102055493 MISSES:   31884838
L1D WRITEBACK ACCESSES:          0 HITS:          0 MISSES:          0
L1D RQ ACCESS:  231433858
L1D RQ TO_CACHE:  176231236
L1D RQ MERGED:   55196038
L1D RQ FORWARD:          0
L1D WQ ACCESS:   42638475
L1D WQ TO_CACHE:   42368423
L1D WQ MERGED:     270052
L1D WQ FORWARD:     112529
L1I TOTAL     ACCESS:  109344120  HIT:   77828416  MISS:   31515704
L1I LOAD      ACCESS:  109344120  HIT:   77828416  MISS:   31515704
L1I RFO       ACCESS:          0  HIT:          0  MISS:          0
L1I PREFETCH  ACCESS:          0  HIT:          0  MISS:          0
L1I WRITEBACK ACCESS:          0  HIT:          0  MISS:          0
L1I PREFETCH  REQUESTED:          0  ISSUED:          0  USEFUL:          0  USELESS:          0
L1I TOTAL MSHR MERGED:   30750226
L1I LOAD MSHR MERGED:   30750226
L1I RFO MSHR MERGED:          0
L1I PREFETCH MSHR MERGED:          0
L1I WRITEBACK MSHR MERGED:          0
L1I TOTAL ACCESSES:  140094348 HITS:   77828416 MISSES:   62265932
L1I LOAD ACCESSES:  140094348 HITS:   77828416 MISSES:   62265932
L1I RFO ACCESSES:          0 HITS:          0 MISSES:          0
L1I PREFETCH ACCESSES:          0 HITS:          0 MISSES:          0
L1I WRITEBACK ACCESSES:          0 HITS:          0 MISSES:          0
L1I RQ ACCESS:  500000003
L1I RQ TO_CACHE:  140094348
L1I RQ MERGED:  359905655
L1I RQ FORWARD:          0
L1I WQ ACCESS:          0
L1I WQ TO_CACHE:          0
L1I WQ MERGED:          0
L1I WQ FORWARD:          0
L2C TOTAL     ACCESS:  113699685  HIT:  110697188  MISS:    3002497
L2C LOAD      ACCESS:   64453072  HIT:   63892440  MISS:     560632
L2C RFO       ACCESS:    2802966  HIT:    2193431  MISS:     609535
L2C PREFETCH  ACCESS:   43282637  HIT:   41456583  MISS:    1826054
L2C WRITEBACK ACCESS:    3161010  HIT:    3154734  MISS:       6276
L2C PREFETCH  REQUESTED:   15134510  ISSUED:   14620112  USEFUL:    1700873  USELESS:     125187
L2C TOTAL MSHR MERGED:      12768
L2C LOAD MSHR MERGED:          0
L2C RFO MSHR MERGED:          0
L2C PREFETCH MSHR MERGED:      12768
L2C WRITEBACK MSHR MERGED:          0
L2C TOTAL ACCESSES:  113903864 HITS:  110703065 MISSES:    3200799
L2C LOAD ACCESSES:   64454952 HITS:   63894319 MISSES:     560633
L2C RFO ACCESSES:    2804862 HITS:    2195327 MISSES:     609535
L2C PREFETCH ACCESSES:   43483040 HITS:   41458685 MISSES:    2024355
L2C WRITEBACK ACCESSES:    3161010 HITS:    3154734 MISSES:       6276
L2C RQ ACCESS:   67259815
L2C RQ TO_CACHE:   67256040
L2C RQ MERGED:          0
L2C RQ FORWARD:          0
L2C WQ ACCESS:    3161010
L2C WQ TO_CACHE:    3161010
L2C WQ MERGED:          0
L2C WQ FORWARD:       5877
LLC TOTAL     ACCESS:    3713008  HIT:    1849557  MISS:    1863451
LLC LOAD      ACCESS:     560602  HIT:     496169  MISS:      64433
LLC RFO       ACCESS:     527427  HIT:     239324  MISS:     288103
LLC PREFETCH  ACCESS:    2006419  HIT:     644242  MISS:    1362177
LLC WRITEBACK ACCESS:     618560  HIT:     469822  MISS:     148738
LLC PREFETCH  REQUESTED:          0  ISSUED:          0  USEFUL:      43846  USELESS:    1311768
LLC TOTAL MSHR MERGED:       4463
LLC LOAD MSHR MERGED:          0
LLC RFO MSHR MERGED:          0
LLC PREFETCH MSHR MERGED:       4463
LLC WRITEBACK MSHR MERGED:          0
LLC TOTAL ACCESSES:    3799696 HITS:    1931782 MISSES:    1867914
LLC LOAD ACCESSES:     560632 HITS:     496199 MISSES:      64433
LLC RFO ACCESSES:     609535 HITS:     321432 MISSES:     288103
LLC PREFETCH ACCESSES:    2010969 HITS:     644329 MISSES:    1366640
LLC WRITEBACK ACCESSES:     618560 HITS:     469822 MISSES:     148738
LLC 0 RQ ACCESS:    1170168
LLC 0 RQ TO_CACHE:    1088030
LLC 0 RQ MERGED:          0
LLC 0 RQ FORWARD:          0
LLC WQ ACCESS:     618560
LLC WQ TO_CACHE:     618560
LLC WQ MERGED:          0
LLC WQ FORWARD:      82225
Major fault: 0 Minor fault: 12800
CPU 0 L1D next line prefetcher final stats
CPU 0 L2C PC-based stride prefetcher final stats
All Misses: 2262938
All Hits: 2301020
SD Algo Stats - Switches: 0 SRR-Repls: 82039 BRR-Repls: 0

DRAM Statistics
 CHANNEL 0
 RQ ROW_BUFFER_HIT:     844739  ROW_BUFFER_MISS:     869971
 DBUS_CONGESTED:     908978
 WQ ROW_BUFFER_HIT:      30658  ROW_BUFFER_MISS:     261054  FULL:          0

 AVG_CONGESTED_CYCLE: 13
LOADS RETIRED: 239375970
INSTR RETIRED: 500000000
