
*** ChampSim Multicore Out-of-Order Simulator ***

Warmup Instructions: 100000000
Simulation Instructions: 500000000
Number of CPUs: 1
LLC sets: 2048
LLC ways: 16
Clean RRIP Policies: 1012030110120301 Dirty RRIP Policies: 22130100221301 PSEL Width: 10 Track Set: 4294967295 PSEL Mask: 1 Demote Mask: 4013211040132110DS Algo: 0Window size: 0
Off-chip DRAM Size: 4096 MB Channels: 1 Width: 64-bit Data Rate: 1600 MT/s

CPU 0 runs /mnt/beegfs/iconst01/spec2017/Lbm.trace.gz
NOT SORTED
TRACE STRING: /mnt/beegfs/iconst01/spec2017/Lbm.trace.gz
SORTED
TRACE STRING: /mnt/beegfs/iconst01/spec2017/Lbm.trace.gz
INITIAL
TRACE STRING: /mnt/beegfs/iconst01/spec2017/Lbm.trace.gz

champsim_seed used: 283

CPU 0 L1D next line prefetcher
CPU 0 L2C IP-based stride prefetcher
Initialize DRRIP state
Assign rand_sets[0]: 454  LLC: 2048
rand_sets[0]: 454
Assign rand_sets[1]: 1662  LLC: 2048
rand_sets[1]: 1662
Assign rand_sets[2]: 1921  LLC: 2048
rand_sets[2]: 1921
Assign rand_sets[3]: 1131  LLC: 2048
rand_sets[3]: 1131
Assign rand_sets[4]: 331  LLC: 2048
rand_sets[4]: 331
Assign rand_sets[5]: 1531  LLC: 2048
rand_sets[5]: 1531
Assign rand_sets[6]: 482  LLC: 2048
rand_sets[6]: 482
Assign rand_sets[7]: 1275  LLC: 2048
rand_sets[7]: 1275
Assign rand_sets[8]: 1876  LLC: 2048
rand_sets[8]: 1876
Assign rand_sets[9]: 2038  LLC: 2048
rand_sets[9]: 2038
Assign rand_sets[10]: 701  LLC: 2048
rand_sets[10]: 701
Assign rand_sets[11]: 479  LLC: 2048
rand_sets[11]: 479
Assign rand_sets[12]: 892  LLC: 2048
rand_sets[12]: 892
Assign rand_sets[13]: 1820  LLC: 2048
rand_sets[13]: 1820
Assign rand_sets[14]: 1505  LLC: 2048
rand_sets[14]: 1505
Assign rand_sets[15]: 1159  LLC: 2048
rand_sets[15]: 1159
Assign rand_sets[16]: 513  LLC: 2048
rand_sets[16]: 513
Assign rand_sets[17]: 703  LLC: 2048
rand_sets[17]: 703
Assign rand_sets[18]: 561  LLC: 2048
rand_sets[18]: 561
Assign rand_sets[19]: 990  LLC: 2048
rand_sets[19]: 990
Assign rand_sets[20]: 342  LLC: 2048
rand_sets[20]: 342
Assign rand_sets[21]: 882  LLC: 2048
rand_sets[21]: 882
Assign rand_sets[22]: 15  LLC: 2048
rand_sets[22]: 15
Assign rand_sets[23]: 71  LLC: 2048
rand_sets[23]: 71
Assign rand_sets[24]: 1127  LLC: 2048
rand_sets[24]: 1127
Assign rand_sets[25]: 1382  LLC: 2048
rand_sets[25]: 1382
Assign rand_sets[26]: 647  LLC: 2048
rand_sets[26]: 647
Assign rand_sets[27]: 857  LLC: 2048
rand_sets[27]: 857
Assign rand_sets[28]: 1450  LLC: 2048
rand_sets[28]: 1450
Assign rand_sets[29]: 1160  LLC: 2048
rand_sets[29]: 1160
Assign rand_sets[30]: 1852  LLC: 2048
rand_sets[30]: 1852
Assign rand_sets[31]: 1881  LLC: 2048
rand_sets[31]: 1881
Assign rand_sets[32]: 1770  LLC: 2048
rand_sets[32]: 1770
Assign rand_sets[33]: 1622  LLC: 2048
rand_sets[33]: 1622
Assign rand_sets[34]: 275  LLC: 2048
rand_sets[34]: 275
Assign rand_sets[35]: 635  LLC: 2048
rand_sets[35]: 635
Assign rand_sets[36]: 466  LLC: 2048
rand_sets[36]: 466
Assign rand_sets[37]: 1413  LLC: 2048
rand_sets[37]: 1413
Assign rand_sets[38]: 417  LLC: 2048
rand_sets[38]: 417
Assign rand_sets[39]: 472  LLC: 2048
rand_sets[39]: 472
Assign rand_sets[40]: 1340  LLC: 2048
rand_sets[40]: 1340
Assign rand_sets[41]: 852  LLC: 2048
rand_sets[41]: 852
Assign rand_sets[42]: 1365  LLC: 2048
rand_sets[42]: 1365
Assign rand_sets[43]: 47  LLC: 2048
rand_sets[43]: 47
Assign rand_sets[44]: 823  LLC: 2048
rand_sets[44]: 823
Assign rand_sets[45]: 686  LLC: 2048
rand_sets[45]: 686
Assign rand_sets[46]: 1637  LLC: 2048
rand_sets[46]: 1637
Assign rand_sets[47]: 1115  LLC: 2048
rand_sets[47]: 1115
Assign rand_sets[48]: 986  LLC: 2048
rand_sets[48]: 986
Assign rand_sets[49]: 258  LLC: 2048
rand_sets[49]: 258
Assign rand_sets[50]: 633  LLC: 2048
rand_sets[50]: 633
Assign rand_sets[51]: 920  LLC: 2048
rand_sets[51]: 920
Assign rand_sets[52]: 204  LLC: 2048
rand_sets[52]: 204
Assign rand_sets[53]: 227  LLC: 2048
rand_sets[53]: 227
Assign rand_sets[54]: 1818  LLC: 2048
rand_sets[54]: 1818
Assign rand_sets[55]: 886  LLC: 2048
rand_sets[55]: 886
Assign rand_sets[56]: 1422  LLC: 2048
rand_sets[56]: 1422
Assign rand_sets[57]: 607  LLC: 2048
rand_sets[57]: 607
Assign rand_sets[58]: 217  LLC: 2048
rand_sets[58]: 217
Assign rand_sets[59]: 1945  LLC: 2048
rand_sets[59]: 1945
Assign rand_sets[60]: 143  LLC: 2048
rand_sets[60]: 143
Assign rand_sets[61]: 1311  LLC: 2048
rand_sets[61]: 1311
Assign rand_sets[62]: 319  LLC: 2048
rand_sets[62]: 319
Assign rand_sets[63]: 1846  LLC: 2048
rand_sets[63]: 1846
 CLEAN-RRIP-POLICY-1: 1-0-1-2-0-3-0-1- CLEAN-RRIP-POLICY-2: 1-0-1-2-0-3-0-1-
 DIRTY-RRIP-POLICY-1: 0-0-2-2-1-3-0-1- DIRTY-RRIP-POLICY-2: 0-0-2-2-1-3-0-1-
 PSEL width: 10
Heartbeat CPU 0 instructions: 10000000 cycles: 4321565 heartbeat IPC: 2.31398 cumulative IPC: 2.31398 (Simulation time: 0 hr 0 min 17 sec) 
Heartbeat CPU 0 instructions: 20000000 cycles: 8643648 heartbeat IPC: 2.3137 cumulative IPC: 2.31384 (Simulation time: 0 hr 0 min 35 sec) 
Heartbeat CPU 0 instructions: 30000000 cycles: 12965498 heartbeat IPC: 2.31382 cumulative IPC: 2.31383 (Simulation time: 0 hr 0 min 53 sec) 
Heartbeat CPU 0 instructions: 40000000 cycles: 17291412 heartbeat IPC: 2.31165 cumulative IPC: 2.31329 (Simulation time: 0 hr 1 min 11 sec) 
Heartbeat CPU 0 instructions: 50000000 cycles: 21613403 heartbeat IPC: 2.31375 cumulative IPC: 2.31338 (Simulation time: 0 hr 1 min 29 sec) 
Heartbeat CPU 0 instructions: 60000000 cycles: 25935369 heartbeat IPC: 2.31376 cumulative IPC: 2.31344 (Simulation time: 0 hr 1 min 47 sec) 
Heartbeat CPU 0 instructions: 70000000 cycles: 30256946 heartbeat IPC: 2.31397 cumulative IPC: 2.31352 (Simulation time: 0 hr 2 min 5 sec) 
Heartbeat CPU 0 instructions: 80000000 cycles: 34583210 heartbeat IPC: 2.31146 cumulative IPC: 2.31326 (Simulation time: 0 hr 2 min 24 sec) 
Heartbeat CPU 0 instructions: 90000003 cycles: 38905320 heartbeat IPC: 2.31369 cumulative IPC: 2.31331 (Simulation time: 0 hr 2 min 42 sec) 
Heartbeat CPU 0 instructions: 100000000 cycles: 43226905 heartbeat IPC: 2.31397 cumulative IPC: 2.31337 (Simulation time: 0 hr 3 min 0 sec) 

Warmup complete CPU 0 instructions: 100000001 cycles: 43226906 (Simulation time: 0 hr 3 min 0 sec) 

Heartbeat CPU 0 instructions: 110000000 cycles: 57743656 heartbeat IPC: 0.688859 cumulative IPC: 0.688859 (Simulation time: 0 hr 3 min 27 sec) 
Heartbeat CPU 0 instructions: 120000000 cycles: 72560219 heartbeat IPC: 0.67492 cumulative IPC: 0.681819 (Simulation time: 0 hr 3 min 53 sec) 
Heartbeat CPU 0 instructions: 130000000 cycles: 87272785 heartbeat IPC: 0.679691 cumulative IPC: 0.681108 (Simulation time: 0 hr 4 min 20 sec) 
Heartbeat CPU 0 instructions: 140000000 cycles: 102005676 heartbeat IPC: 0.678753 cumulative IPC: 0.680518 (Simulation time: 0 hr 4 min 46 sec) 
Heartbeat CPU 0 instructions: 150000003 cycles: 116289801 heartbeat IPC: 0.700078 cumulative IPC: 0.684342 (Simulation time: 0 hr 5 min 13 sec) 
Heartbeat CPU 0 instructions: 160000000 cycles: 130372382 heartbeat IPC: 0.710097 cumulative IPC: 0.688504 (Simulation time: 0 hr 5 min 39 sec) 
Heartbeat CPU 0 instructions: 170000002 cycles: 145104966 heartbeat IPC: 0.678768 cumulative IPC: 0.687096 (Simulation time: 0 hr 6 min 5 sec) 
Heartbeat CPU 0 instructions: 180000000 cycles: 159544609 heartbeat IPC: 0.692538 cumulative IPC: 0.687771 (Simulation time: 0 hr 6 min 32 sec) 
Heartbeat CPU 0 instructions: 190000003 cycles: 177025539 heartbeat IPC: 0.572052 cumulative IPC: 0.672653 (Simulation time: 0 hr 7 min 1 sec) 
Heartbeat CPU 0 instructions: 200000000 cycles: 198130262 heartbeat IPC: 0.473827 cumulative IPC: 0.645564 (Simulation time: 0 hr 7 min 34 sec) 
Heartbeat CPU 0 instructions: 210000001 cycles: 212511208 heartbeat IPC: 0.695365 cumulative IPC: 0.649794 (Simulation time: 0 hr 8 min 0 sec) 
Heartbeat CPU 0 instructions: 220000000 cycles: 226784567 heartbeat IPC: 0.700606 cumulative IPC: 0.653746 (Simulation time: 0 hr 8 min 27 sec) 
Heartbeat CPU 0 instructions: 230000001 cycles: 241526857 heartbeat IPC: 0.678321 cumulative IPC: 0.655573 (Simulation time: 0 hr 8 min 53 sec) 
Heartbeat CPU 0 instructions: 240000000 cycles: 256186154 heartbeat IPC: 0.682161 cumulative IPC: 0.657403 (Simulation time: 0 hr 9 min 20 sec) 
Heartbeat CPU 0 instructions: 250000000 cycles: 271161443 heartbeat IPC: 0.667767 cumulative IPC: 0.658084 (Simulation time: 0 hr 9 min 47 sec) 
Heartbeat CPU 0 instructions: 260000000 cycles: 286144541 heartbeat IPC: 0.667419 cumulative IPC: 0.658659 (Simulation time: 0 hr 10 min 14 sec) 
Heartbeat CPU 0 instructions: 270000002 cycles: 301500745 heartbeat IPC: 0.651203 cumulative IPC: 0.658216 (Simulation time: 0 hr 10 min 41 sec) 
Heartbeat CPU 0 instructions: 280000000 cycles: 317150050 heartbeat IPC: 0.639006 cumulative IPC: 0.657119 (Simulation time: 0 hr 11 min 9 sec) 
Heartbeat CPU 0 instructions: 290000003 cycles: 333259787 heartbeat IPC: 0.620743 cumulative IPC: 0.655098 (Simulation time: 0 hr 11 min 36 sec) 
Heartbeat CPU 0 instructions: 300000000 cycles: 348524443 heartbeat IPC: 0.655108 cumulative IPC: 0.655099 (Simulation time: 0 hr 12 min 4 sec) 
Heartbeat CPU 0 instructions: 310000000 cycles: 365062697 heartbeat IPC: 0.604659 cumulative IPC: 0.652507 (Simulation time: 0 hr 12 min 31 sec) 
Heartbeat CPU 0 instructions: 320000000 cycles: 381284264 heartbeat IPC: 0.616463 cumulative IPC: 0.650777 (Simulation time: 0 hr 12 min 59 sec) 
Heartbeat CPU 0 instructions: 330000002 cycles: 396764195 heartbeat IPC: 0.645998 cumulative IPC: 0.650568 (Simulation time: 0 hr 13 min 26 sec) 
Heartbeat CPU 0 instructions: 340000000 cycles: 413367009 heartbeat IPC: 0.602307 cumulative IPC: 0.648403 (Simulation time: 0 hr 13 min 53 sec) 
Heartbeat CPU 0 instructions: 350000001 cycles: 428694411 heartbeat IPC: 0.652426 cumulative IPC: 0.648563 (Simulation time: 0 hr 14 min 20 sec) 
Heartbeat CPU 0 instructions: 360000000 cycles: 444628061 heartbeat IPC: 0.627603 cumulative IPC: 0.647731 (Simulation time: 0 hr 14 min 47 sec) 
Heartbeat CPU 0 instructions: 370000000 cycles: 459828841 heartbeat IPC: 0.657861 cumulative IPC: 0.648101 (Simulation time: 0 hr 15 min 14 sec) 
Heartbeat CPU 0 instructions: 380000000 cycles: 475268760 heartbeat IPC: 0.647672 cumulative IPC: 0.648085 (Simulation time: 0 hr 15 min 41 sec) 
Heartbeat CPU 0 instructions: 390000000 cycles: 490215565 heartbeat IPC: 0.669039 cumulative IPC: 0.648786 (Simulation time: 0 hr 16 min 7 sec) 
Heartbeat CPU 0 instructions: 400000000 cycles: 505158581 heartbeat IPC: 0.669209 cumulative IPC: 0.649447 (Simulation time: 0 hr 16 min 33 sec) 
Heartbeat CPU 0 instructions: 410000000 cycles: 519852095 heartbeat IPC: 0.680572 cumulative IPC: 0.650406 (Simulation time: 0 hr 16 min 59 sec) 
Heartbeat CPU 0 instructions: 420000000 cycles: 534541650 heartbeat IPC: 0.680756 cumulative IPC: 0.651314 (Simulation time: 0 hr 17 min 25 sec) 
Heartbeat CPU 0 instructions: 430000002 cycles: 548811521 heartbeat IPC: 0.700777 cumulative IPC: 0.65271 (Simulation time: 0 hr 17 min 51 sec) 
Heartbeat CPU 0 instructions: 440000000 cycles: 563033909 heartbeat IPC: 0.703117 cumulative IPC: 0.654089 (Simulation time: 0 hr 18 min 16 sec) 
Heartbeat CPU 0 instructions: 450000000 cycles: 577632086 heartbeat IPC: 0.685017 cumulative IPC: 0.654934 (Simulation time: 0 hr 18 min 42 sec) 
Heartbeat CPU 0 instructions: 460000000 cycles: 592641497 heartbeat IPC: 0.666249 cumulative IPC: 0.655243 (Simulation time: 0 hr 19 min 8 sec) 
Heartbeat CPU 0 instructions: 470000000 cycles: 607238024 heartbeat IPC: 0.685094 cumulative IPC: 0.656015 (Simulation time: 0 hr 19 min 34 sec) 
Heartbeat CPU 0 instructions: 480000000 cycles: 621409575 heartbeat IPC: 0.705639 cumulative IPC: 0.657232 (Simulation time: 0 hr 19 min 59 sec) 
Heartbeat CPU 0 instructions: 490000001 cycles: 636282680 heartbeat IPC: 0.672355 cumulative IPC: 0.657611 (Simulation time: 0 hr 20 min 25 sec) 
Heartbeat CPU 0 instructions: 500000000 cycles: 650791700 heartbeat IPC: 0.689226 cumulative IPC: 0.658366 (Simulation time: 0 hr 20 min 51 sec) 
Heartbeat CPU 0 instructions: 510000002 cycles: 665255729 heartbeat IPC: 0.69137 cumulative IPC: 0.659133 (Simulation time: 0 hr 21 min 17 sec) 
Heartbeat CPU 0 instructions: 520000000 cycles: 679043572 heartbeat IPC: 0.725276 cumulative IPC: 0.660568 (Simulation time: 0 hr 21 min 42 sec) 
Heartbeat CPU 0 instructions: 530000001 cycles: 693618853 heartbeat IPC: 0.686093 cumulative IPC: 0.66114 (Simulation time: 0 hr 22 min 8 sec) 
Heartbeat CPU 0 instructions: 540000000 cycles: 708132909 heartbeat IPC: 0.688987 cumulative IPC: 0.661748 (Simulation time: 0 hr 22 min 33 sec) 
Heartbeat CPU 0 instructions: 550000003 cycles: 722445763 heartbeat IPC: 0.698673 cumulative IPC: 0.662526 (Simulation time: 0 hr 22 min 59 sec) 
Heartbeat CPU 0 instructions: 560000000 cycles: 737353387 heartbeat IPC: 0.670798 cumulative IPC: 0.662703 (Simulation time: 0 hr 23 min 25 sec) 
Heartbeat CPU 0 instructions: 570000001 cycles: 751824752 heartbeat IPC: 0.69102 cumulative IPC: 0.663282 (Simulation time: 0 hr 23 min 51 sec) 
Heartbeat CPU 0 instructions: 580000000 cycles: 766005313 heartbeat IPC: 0.705191 cumulative IPC: 0.664104 (Simulation time: 0 hr 24 min 16 sec) 
Heartbeat CPU 0 instructions: 590000003 cycles: 779700239 heartbeat IPC: 0.730198 cumulative IPC: 0.665333 (Simulation time: 0 hr 24 min 41 sec) 
Heartbeat CPU 0 instructions: 600000000 cycles: 794079993 heartbeat IPC: 0.695422 cumulative IPC: 0.665909 (Simulation time: 0 hr 25 min 7 sec) 
Finished CPU 0 instructions: 500000000 cycles: 750853095 cumulative IPC: 0.665909 (Simulation time: 0 hr 25 min 7 sec) 

CPU 0 Branch Prediction Accuracy: 99.5915% MPKI: 0.037126
Number of Branches: 4544106 Number of Mispredictions: 18563
Number of LOAD Instructions: 149787067
Number of LOAD Instructions (ROI): 149787067
Number of STORE Instructions: 77239062
Number of STORE Instructions (ROI): 77239062
Total Destination Memory Operands: 77239062
Total Destination Memory Operands (ROI): 77239062
Total Source Memory Operands: 149787067
Total Source Memory Operands (ROI): 149787067
Number of DEPENDED LOADS: 19249838
Number of DEPENDED LOADS (ROI): 19249838
Number of SQ_ADDED: 77239036
Number of SQ_ADDED (ROI): 77239036
Number of LQ_ADDED: 149787020
Number of LQ_ADDED (ROI): 149787020
Number of Instructions read from trace: 600000256

ChampSim completed all CPUs

Region of Interest Statistics

CPU 0 cumulative IPC: 0.665909 instructions: 500000000 cycles: 750853095
ITLB TOTAL     ACCESS:   86437519  HIT:   86437518  MISS:          1
ITLB LOAD      ACCESS:   86437519  HIT:   86437518  MISS:          1
ITLB RFO       ACCESS:          0  HIT:          0  MISS:          0
ITLB PREFETCH  ACCESS:          0  HIT:          0  MISS:          0
ITLB WRITEBACK ACCESS:          0  HIT:          0  MISS:          0
ITLB PREFETCH  REQUESTED:          0  ISSUED:          0  USEFUL:          0  USELESS:          0
ITLB TOTAL MSHR MERGED:          1
ITLB LOAD MSHR MERGED:          1
ITLB RFO MSHR MERGED:          0
ITLB PREFETCH MSHR MERGED:          0
ITLB WRITEBACK MSHR MERGED:          0
ITLB TOTAL ACCESSES:   86437520 HITS:   86437518 MISSES:          2
ITLB LOAD ACCESSES:   86437520 HITS:   86437518 MISSES:          2
ITLB RFO ACCESSES:          0 HITS:          0 MISSES:          0
ITLB PREFETCH ACCESSES:          0 HITS:          0 MISSES:          0
ITLB WRITEBACK ACCESSES:          0 HITS:          0 MISSES:          0
ITLB RQ ACCESS:  500000002
ITLB RQ TO_CACHE:   86437520
ITLB RQ MERGED:  413562482
ITLB RQ FORWARD:          0
ITLB WQ ACCESS:          0
ITLB WQ TO_CACHE:          0
ITLB WQ MERGED:          0
ITLB WQ FORWARD:          0
DTLB TOTAL     ACCESS:   98100558  HIT:   97915297  MISS:     185261
DTLB LOAD      ACCESS:   55041019  HIT:   54994708  MISS:      46311
DTLB RFO       ACCESS:   43059539  HIT:   42920589  MISS:     138950
DTLB PREFETCH  ACCESS:          0  HIT:          0  MISS:          0
DTLB WRITEBACK ACCESS:          0  HIT:          0  MISS:          0
DTLB PREFETCH  REQUESTED:          0  ISSUED:          0  USEFUL:          0  USELESS:          0
DTLB TOTAL MSHR MERGED:      83609
DTLB LOAD MSHR MERGED:      83603
DTLB RFO MSHR MERGED:          6
DTLB PREFETCH MSHR MERGED:          0
DTLB WRITEBACK MSHR MERGED:          0
DTLB TOTAL ACCESSES:   98184167 HITS:   97915297 MISSES:     268870
DTLB LOAD ACCESSES:   55124622 HITS:   54994708 MISSES:     129914
DTLB RFO ACCESSES:   43059545 HITS:   42920589 MISSES:     138956
DTLB PREFETCH ACCESSES:          0 HITS:          0 MISSES:          0
DTLB WRITEBACK ACCESSES:          0 HITS:          0 MISSES:          0
DTLB RQ ACCESS:  173632689
DTLB RQ TO_CACHE:   98184167
DTLB RQ MERGED:   75448522
DTLB RQ FORWARD:          0
DTLB WQ ACCESS:          0
DTLB WQ TO_CACHE:          0
DTLB WQ MERGED:          0
DTLB WQ FORWARD:          0
L1D TOTAL     ACCESS:  164459958  HIT:  144887406  MISS:   19572552
L1D LOAD      ACCESS:   60454014  HIT:   58601505  MISS:    1852509
L1D RFO       ACCESS:   64512640  HIT:   47910505  MISS:   16602135
L1D PREFETCH  ACCESS:   39493304  HIT:   38375396  MISS:    1117908
L1D WRITEBACK ACCESS:          0  HIT:          0  MISS:          0
L1D PREFETCH  REQUESTED:   61585990  ISSUED:   61294713  USEFUL:    1115992  USELESS:       1917
L1D TOTAL MSHR MERGED:    3470031
L1D LOAD MSHR MERGED:    1202883
L1D RFO MSHR MERGED:      10967
L1D PREFETCH MSHR MERGED:    2256181
L1D WRITEBACK MSHR MERGED:          0
L1D TOTAL ACCESSES:  168525482 HITS:  145482899 MISSES:   23042583
L1D LOAD ACCESSES:   61875244 HITS:   58890759 MISSES:    2984485
L1D RFO ACCESSES:   64523574 HITS:   47910505 MISSES:   16613069
L1D PREFETCH ACCESSES:   42126664 HITS:   38681635 MISSES:    3445029
L1D WRITEBACK ACCESSES:          0 HITS:          0 MISSES:          0
L1D RQ ACCESS:  109091374
L1D RQ TO_CACHE:   61585990
L1D RQ MERGED:   47216130
L1D RQ FORWARD:          0
L1D WQ ACCESS:   64541313
L1D WQ TO_CACHE:   64523575
L1D WQ MERGED:      17738
L1D WQ FORWARD:     595493
L1I TOTAL     ACCESS:  107747180  HIT:  107747172  MISS:          8
L1I LOAD      ACCESS:  107747180  HIT:  107747172  MISS:          8
L1I RFO       ACCESS:          0  HIT:          0  MISS:          0
L1I PREFETCH  ACCESS:          0  HIT:          0  MISS:          0
L1I WRITEBACK ACCESS:          0  HIT:          0  MISS:          0
L1I PREFETCH  REQUESTED:          0  ISSUED:          0  USEFUL:          0  USELESS:          0
L1I TOTAL MSHR MERGED:          3
L1I LOAD MSHR MERGED:          3
L1I RFO MSHR MERGED:          0
L1I PREFETCH MSHR MERGED:          0
L1I WRITEBACK MSHR MERGED:          0
L1I TOTAL ACCESSES:  107747183 HITS:  107747172 MISSES:         11
L1I LOAD ACCESSES:  107747183 HITS:  107747172 MISSES:         11
L1I RFO ACCESSES:          0 HITS:          0 MISSES:          0
L1I PREFETCH ACCESSES:          0 HITS:          0 MISSES:          0
L1I WRITEBACK ACCESSES:          0 HITS:          0 MISSES:          0
L1I RQ ACCESS:  500000007
L1I RQ TO_CACHE:  107747183
L1I RQ MERGED:  392252824
L1I RQ FORWARD:          0
L1I WQ ACCESS:          0
L1I WQ TO_CACHE:          0
L1I WQ MERGED:          0
L1I WQ FORWARD:          0
L2C TOTAL     ACCESS:   36779282  HIT:   24821694  MISS:   11957588
L2C LOAD      ACCESS:    1781610  HIT:     245047  MISS:    1536563
L2C RFO       ACCESS:   16602102  HIT:    7610723  MISS:    8991379
L2C PREFETCH  ACCESS:    1793388  HIT:     364968  MISS:    1428420
L2C WRITEBACK ACCESS:   16602182  HIT:   16600956  MISS:       1226
L2C PREFETCH  REQUESTED:     814655  ISSUED:     814655  USEFUL:     242724  USELESS:    1185977
L2C TOTAL MSHR MERGED:       2520
L2C LOAD MSHR MERGED:        607
L2C RFO MSHR MERGED:          0
L2C PREFETCH MSHR MERGED:       1913
L2C WRITEBACK MSHR MERGED:          0
L2C TOTAL ACCESSES:   36989349 HITS:   24821695 MISSES:   12167654
L2C LOAD ACCESSES:    1781610 HITS:     245047 MISSES:    1536563
L2C RFO ACCESSES:   16602102 HITS:    7610724 MISSES:    8991378
L2C PREFETCH ACCESSES:    2003455 HITS:     364968 MISSES:    1638487
L2C WRITEBACK ACCESSES:   16602182 HITS:   16600956 MISSES:       1226
L2C RQ ACCESS:   18383712
L2C RQ TO_CACHE:   18383711
L2C RQ MERGED:          0
L2C RQ FORWARD:          0
L2C WQ ACCESS:   16602182
L2C WQ TO_CACHE:   16602182
L2C WQ MERGED:          0
L2C WQ FORWARD:          1
LLC TOTAL     ACCESS:   21152603  HIT:     588751  MISS:   20563852
LLC LOAD      ACCESS:    1535956  HIT:      75053  MISS:    1460903
LLC RFO       ACCESS:    8991358  HIT:     129678  MISS:    8861680
LLC PREFETCH  ACCESS:    1633089  HIT:     129149  MISS:    1503940
LLC WRITEBACK ACCESS:    8992200  HIT:     254871  MISS:    8737329
LLC PREFETCH  REQUESTED:          0  ISSUED:          0  USEFUL:      74942  USELESS:    1429788
LLC TOTAL MSHR MERGED:       3042
LLC LOAD MSHR MERGED:        278
LLC RFO MSHR MERGED:          0
LLC PREFETCH MSHR MERGED:       2764
LLC WRITEBACK MSHR MERGED:          0
LLC TOTAL ACCESSES:   21155665 HITS:     588772 MISSES:   20566893
LLC LOAD ACCESSES:    1535956 HITS:      75053 MISSES:    1460903
LLC RFO ACCESSES:    8991378 HITS:     129699 MISSES:    8861679
LLC PREFETCH ACCESSES:    1636131 HITS:     129149 MISSES:    1506982
LLC WRITEBACK ACCESSES:    8992200 HITS:     254871 MISSES:    8737329
LLC 0 RQ ACCESS:   10527334
LLC 0 RQ TO_CACHE:   10527313
LLC 0 RQ MERGED:          0
LLC 0 RQ FORWARD:          0
LLC WQ ACCESS:    8992200
LLC WQ TO_CACHE:    8992200
LLC WQ MERGED:          0
LLC WQ FORWARD:         21
Major fault: 0 Minor fault: 102360
CPU 0 L1D next line prefetcher final stats
CPU 0 L2C PC-based stride prefetcher final stats
All Misses: 24457767
All Hits: 670347
SD Algo Stats - Switches: 0 SRR-Repls: 1639440 BRR-Repls: 0

DRAM Statistics
 CHANNEL 0
 RQ ROW_BUFFER_HIT:    3736142  ROW_BUFFER_MISS:    8090215
 DBUS_CONGESTED:   14284078
 WQ ROW_BUFFER_HIT:    1268213  ROW_BUFFER_MISS:    7596640  FULL:          0

 AVG_CONGESTED_CYCLE: 13
LOADS RETIRED: 124982196
INSTR RETIRED: 500000000
