
*** ChampSim Multicore Out-of-Order Simulator ***

Warmup Instructions: 100000000
Simulation Instructions: 500000000
Number of CPUs: 1
LLC sets: 2048
LLC ways: 16
Clean RRIP Policies: 1012030110120301 Dirty RRIP Policies: 22130100221301 PSEL Width: 10 Track Set: 4294967295 PSEL Mask: 1 Demote Mask: 4013211040132110DS Algo: 0Window size: 0
Off-chip DRAM Size: 4096 MB Channels: 1 Width: 64-bit Data Rate: 1600 MT/s

CPU 0 runs /mnt/beegfs/iconst01/spec2017/Xalancbmk.trace.gz
NOT SORTED
TRACE STRING: /mnt/beegfs/iconst01/spec2017/Xalancbmk.trace.gz
SORTED
TRACE STRING: /mnt/beegfs/iconst01/spec2017/Xalancbmk.trace.gz
INITIAL
TRACE STRING: /mnt/beegfs/iconst01/spec2017/Xalancbmk.trace.gz

champsim_seed used: 913

CPU 0 L1D next line prefetcher
CPU 0 L2C IP-based stride prefetcher
Initialize DRRIP state
Assign rand_sets[0]: 454  LLC: 2048
rand_sets[0]: 454
Assign rand_sets[1]: 1662  LLC: 2048
rand_sets[1]: 1662
Assign rand_sets[2]: 1921  LLC: 2048
rand_sets[2]: 1921
Assign rand_sets[3]: 1131  LLC: 2048
rand_sets[3]: 1131
Assign rand_sets[4]: 331  LLC: 2048
rand_sets[4]: 331
Assign rand_sets[5]: 1531  LLC: 2048
rand_sets[5]: 1531
Assign rand_sets[6]: 482  LLC: 2048
rand_sets[6]: 482
Assign rand_sets[7]: 1275  LLC: 2048
rand_sets[7]: 1275
Assign rand_sets[8]: 1876  LLC: 2048
rand_sets[8]: 1876
Assign rand_sets[9]: 2038  LLC: 2048
rand_sets[9]: 2038
Assign rand_sets[10]: 701  LLC: 2048
rand_sets[10]: 701
Assign rand_sets[11]: 479  LLC: 2048
rand_sets[11]: 479
Assign rand_sets[12]: 892  LLC: 2048
rand_sets[12]: 892
Assign rand_sets[13]: 1820  LLC: 2048
rand_sets[13]: 1820
Assign rand_sets[14]: 1505  LLC: 2048
rand_sets[14]: 1505
Assign rand_sets[15]: 1159  LLC: 2048
rand_sets[15]: 1159
Assign rand_sets[16]: 513  LLC: 2048
rand_sets[16]: 513
Assign rand_sets[17]: 703  LLC: 2048
rand_sets[17]: 703
Assign rand_sets[18]: 561  LLC: 2048
rand_sets[18]: 561
Assign rand_sets[19]: 990  LLC: 2048
rand_sets[19]: 990
Assign rand_sets[20]: 342  LLC: 2048
rand_sets[20]: 342
Assign rand_sets[21]: 882  LLC: 2048
rand_sets[21]: 882
Assign rand_sets[22]: 15  LLC: 2048
rand_sets[22]: 15
Assign rand_sets[23]: 71  LLC: 2048
rand_sets[23]: 71
Assign rand_sets[24]: 1127  LLC: 2048
rand_sets[24]: 1127
Assign rand_sets[25]: 1382  LLC: 2048
rand_sets[25]: 1382
Assign rand_sets[26]: 647  LLC: 2048
rand_sets[26]: 647
Assign rand_sets[27]: 857  LLC: 2048
rand_sets[27]: 857
Assign rand_sets[28]: 1450  LLC: 2048
rand_sets[28]: 1450
Assign rand_sets[29]: 1160  LLC: 2048
rand_sets[29]: 1160
Assign rand_sets[30]: 1852  LLC: 2048
rand_sets[30]: 1852
Assign rand_sets[31]: 1881  LLC: 2048
rand_sets[31]: 1881
Assign rand_sets[32]: 1770  LLC: 2048
rand_sets[32]: 1770
Assign rand_sets[33]: 1622  LLC: 2048
rand_sets[33]: 1622
Assign rand_sets[34]: 275  LLC: 2048
rand_sets[34]: 275
Assign rand_sets[35]: 635  LLC: 2048
rand_sets[35]: 635
Assign rand_sets[36]: 466  LLC: 2048
rand_sets[36]: 466
Assign rand_sets[37]: 1413  LLC: 2048
rand_sets[37]: 1413
Assign rand_sets[38]: 417  LLC: 2048
rand_sets[38]: 417
Assign rand_sets[39]: 472  LLC: 2048
rand_sets[39]: 472
Assign rand_sets[40]: 1340  LLC: 2048
rand_sets[40]: 1340
Assign rand_sets[41]: 852  LLC: 2048
rand_sets[41]: 852
Assign rand_sets[42]: 1365  LLC: 2048
rand_sets[42]: 1365
Assign rand_sets[43]: 47  LLC: 2048
rand_sets[43]: 47
Assign rand_sets[44]: 823  LLC: 2048
rand_sets[44]: 823
Assign rand_sets[45]: 686  LLC: 2048
rand_sets[45]: 686
Assign rand_sets[46]: 1637  LLC: 2048
rand_sets[46]: 1637
Assign rand_sets[47]: 1115  LLC: 2048
rand_sets[47]: 1115
Assign rand_sets[48]: 986  LLC: 2048
rand_sets[48]: 986
Assign rand_sets[49]: 258  LLC: 2048
rand_sets[49]: 258
Assign rand_sets[50]: 633  LLC: 2048
rand_sets[50]: 633
Assign rand_sets[51]: 920  LLC: 2048
rand_sets[51]: 920
Assign rand_sets[52]: 204  LLC: 2048
rand_sets[52]: 204
Assign rand_sets[53]: 227  LLC: 2048
rand_sets[53]: 227
Assign rand_sets[54]: 1818  LLC: 2048
rand_sets[54]: 1818
Assign rand_sets[55]: 886  LLC: 2048
rand_sets[55]: 886
Assign rand_sets[56]: 1422  LLC: 2048
rand_sets[56]: 1422
Assign rand_sets[57]: 607  LLC: 2048
rand_sets[57]: 607
Assign rand_sets[58]: 217  LLC: 2048
rand_sets[58]: 217
Assign rand_sets[59]: 1945  LLC: 2048
rand_sets[59]: 1945
Assign rand_sets[60]: 143  LLC: 2048
rand_sets[60]: 143
Assign rand_sets[61]: 1311  LLC: 2048
rand_sets[61]: 1311
Assign rand_sets[62]: 319  LLC: 2048
rand_sets[62]: 319
Assign rand_sets[63]: 1846  LLC: 2048
rand_sets[63]: 1846
 CLEAN-RRIP-POLICY-1: 1-0-1-2-0-3-0-1- CLEAN-RRIP-POLICY-2: 1-0-1-2-0-3-0-1-
 DIRTY-RRIP-POLICY-1: 0-0-2-2-1-3-0-1- DIRTY-RRIP-POLICY-2: 0-0-2-2-1-3-0-1-
 PSEL width: 10
Heartbeat CPU 0 instructions: 10000003 cycles: 4605934 heartbeat IPC: 2.17111 cumulative IPC: 2.17111 (Simulation time: 0 hr 0 min 15 sec) 
Heartbeat CPU 0 instructions: 20000000 cycles: 9016410 heartbeat IPC: 2.26733 cumulative IPC: 2.21818 (Simulation time: 0 hr 0 min 29 sec) 
Heartbeat CPU 0 instructions: 30000000 cycles: 13456528 heartbeat IPC: 2.25219 cumulative IPC: 2.2294 (Simulation time: 0 hr 0 min 43 sec) 
Heartbeat CPU 0 instructions: 40000000 cycles: 18098498 heartbeat IPC: 2.15426 cumulative IPC: 2.21013 (Simulation time: 0 hr 0 min 59 sec) 
Heartbeat CPU 0 instructions: 50000002 cycles: 22532617 heartbeat IPC: 2.25524 cumulative IPC: 2.21901 (Simulation time: 0 hr 1 min 13 sec) 
Heartbeat CPU 0 instructions: 60000000 cycles: 27199449 heartbeat IPC: 2.14278 cumulative IPC: 2.20593 (Simulation time: 0 hr 1 min 29 sec) 
Heartbeat CPU 0 instructions: 70000003 cycles: 31621511 heartbeat IPC: 2.26139 cumulative IPC: 2.21368 (Simulation time: 0 hr 1 min 43 sec) 
Heartbeat CPU 0 instructions: 80000000 cycles: 36072085 heartbeat IPC: 2.2469 cumulative IPC: 2.21778 (Simulation time: 0 hr 1 min 57 sec) 
Heartbeat CPU 0 instructions: 90000002 cycles: 40555938 heartbeat IPC: 2.23023 cumulative IPC: 2.21916 (Simulation time: 0 hr 2 min 12 sec) 
Heartbeat CPU 0 instructions: 100000000 cycles: 45045379 heartbeat IPC: 2.22745 cumulative IPC: 2.21998 (Simulation time: 0 hr 2 min 26 sec) 

Warmup complete CPU 0 instructions: 100000003 cycles: 45045380 (Simulation time: 0 hr 2 min 26 sec) 

Heartbeat CPU 0 instructions: 110000000 cycles: 73101513 heartbeat IPC: 0.356428 cumulative IPC: 0.356428 (Simulation time: 0 hr 2 min 58 sec) 
Heartbeat CPU 0 instructions: 120000000 cycles: 104043352 heartbeat IPC: 0.323187 cumulative IPC: 0.338995 (Simulation time: 0 hr 3 min 33 sec) 
Heartbeat CPU 0 instructions: 130000000 cycles: 128806959 heartbeat IPC: 0.403818 cumulative IPC: 0.358159 (Simulation time: 0 hr 4 min 2 sec) 
Heartbeat CPU 0 instructions: 140000000 cycles: 152596494 heartbeat IPC: 0.420353 cumulative IPC: 0.371916 (Simulation time: 0 hr 4 min 31 sec) 
Heartbeat CPU 0 instructions: 150000000 cycles: 177683683 heartbeat IPC: 0.39861 cumulative IPC: 0.376965 (Simulation time: 0 hr 5 min 1 sec) 
Heartbeat CPU 0 instructions: 160000000 cycles: 203659342 heartbeat IPC: 0.384976 cumulative IPC: 0.378277 (Simulation time: 0 hr 5 min 32 sec) 
Heartbeat CPU 0 instructions: 170000002 cycles: 225689204 heartbeat IPC: 0.453929 cumulative IPC: 0.387503 (Simulation time: 0 hr 6 min 0 sec) 
Heartbeat CPU 0 instructions: 180000000 cycles: 249546024 heartbeat IPC: 0.419167 cumulative IPC: 0.391197 (Simulation time: 0 hr 6 min 29 sec) 
Heartbeat CPU 0 instructions: 190000000 cycles: 270255735 heartbeat IPC: 0.482865 cumulative IPC: 0.399626 (Simulation time: 0 hr 6 min 56 sec) 
Heartbeat CPU 0 instructions: 200000000 cycles: 291645010 heartbeat IPC: 0.467524 cumulative IPC: 0.405516 (Simulation time: 0 hr 7 min 23 sec) 
Heartbeat CPU 0 instructions: 210000001 cycles: 319188778 heartbeat IPC: 0.363059 cumulative IPC: 0.40125 (Simulation time: 0 hr 7 min 55 sec) 
Heartbeat CPU 0 instructions: 220000000 cycles: 346671256 heartbeat IPC: 0.363868 cumulative IPC: 0.397844 (Simulation time: 0 hr 8 min 27 sec) 
Heartbeat CPU 0 instructions: 230000000 cycles: 369786025 heartbeat IPC: 0.432624 cumulative IPC: 0.400319 (Simulation time: 0 hr 8 min 56 sec) 
Heartbeat CPU 0 instructions: 240000000 cycles: 395936916 heartbeat IPC: 0.382396 cumulative IPC: 0.398984 (Simulation time: 0 hr 9 min 26 sec) 
Heartbeat CPU 0 instructions: 250000001 cycles: 422384969 heartbeat IPC: 0.3781 cumulative IPC: 0.39752 (Simulation time: 0 hr 9 min 58 sec) 
Heartbeat CPU 0 instructions: 260000000 cycles: 444127310 heartbeat IPC: 0.459932 cumulative IPC: 0.40092 (Simulation time: 0 hr 10 min 25 sec) 
Heartbeat CPU 0 instructions: 270000000 cycles: 466909280 heartbeat IPC: 0.438944 cumulative IPC: 0.402974 (Simulation time: 0 hr 10 min 54 sec) 
Heartbeat CPU 0 instructions: 280000000 cycles: 496345182 heartbeat IPC: 0.339721 cumulative IPC: 0.398848 (Simulation time: 0 hr 11 min 27 sec) 
Heartbeat CPU 0 instructions: 290000000 cycles: 518746210 heartbeat IPC: 0.446408 cumulative IPC: 0.401097 (Simulation time: 0 hr 11 min 55 sec) 
Heartbeat CPU 0 instructions: 300000000 cycles: 539552231 heartbeat IPC: 0.48063 cumulative IPC: 0.404443 (Simulation time: 0 hr 12 min 22 sec) 
Heartbeat CPU 0 instructions: 310000000 cycles: 559911276 heartbeat IPC: 0.491182 cumulative IPC: 0.407873 (Simulation time: 0 hr 12 min 48 sec) 
Heartbeat CPU 0 instructions: 320000000 cycles: 591433548 heartbeat IPC: 0.317236 cumulative IPC: 0.402644 (Simulation time: 0 hr 13 min 22 sec) 
Heartbeat CPU 0 instructions: 330000001 cycles: 611537718 heartbeat IPC: 0.497409 cumulative IPC: 0.406007 (Simulation time: 0 hr 13 min 48 sec) 
Heartbeat CPU 0 instructions: 340000000 cycles: 631786654 heartbeat IPC: 0.493853 cumulative IPC: 0.409039 (Simulation time: 0 hr 14 min 14 sec) 
Heartbeat CPU 0 instructions: 350000000 cycles: 657835949 heartbeat IPC: 0.383888 cumulative IPC: 0.40797 (Simulation time: 0 hr 14 min 44 sec) 
Heartbeat CPU 0 instructions: 360000000 cycles: 680586994 heartbeat IPC: 0.43954 cumulative IPC: 0.4091 (Simulation time: 0 hr 15 min 12 sec) 
Heartbeat CPU 0 instructions: 370000001 cycles: 706514896 heartbeat IPC: 0.385685 cumulative IPC: 0.408182 (Simulation time: 0 hr 15 min 42 sec) 
Heartbeat CPU 0 instructions: 380000000 cycles: 730164269 heartbeat IPC: 0.422844 cumulative IPC: 0.408688 (Simulation time: 0 hr 16 min 11 sec) 
Heartbeat CPU 0 instructions: 390000000 cycles: 749236441 heartbeat IPC: 0.524324 cumulative IPC: 0.41182 (Simulation time: 0 hr 16 min 36 sec) 
Heartbeat CPU 0 instructions: 400000000 cycles: 770151709 heartbeat IPC: 0.47812 cumulative IPC: 0.413732 (Simulation time: 0 hr 17 min 2 sec) 
Heartbeat CPU 0 instructions: 410000001 cycles: 797293774 heartbeat IPC: 0.368432 cumulative IPC: 0.412098 (Simulation time: 0 hr 17 min 33 sec) 
Heartbeat CPU 0 instructions: 420000000 cycles: 823173682 heartbeat IPC: 0.3864 cumulative IPC: 0.411243 (Simulation time: 0 hr 18 min 3 sec) 
Heartbeat CPU 0 instructions: 430000002 cycles: 845497719 heartbeat IPC: 0.447948 cumulative IPC: 0.412267 (Simulation time: 0 hr 18 min 30 sec) 
Heartbeat CPU 0 instructions: 440000000 cycles: 866196767 heartbeat IPC: 0.483114 cumulative IPC: 0.414053 (Simulation time: 0 hr 18 min 56 sec) 
Heartbeat CPU 0 instructions: 450000002 cycles: 894496727 heartbeat IPC: 0.353357 cumulative IPC: 0.412031 (Simulation time: 0 hr 19 min 28 sec) 
Heartbeat CPU 0 instructions: 460000000 cycles: 922332497 heartbeat IPC: 0.35925 cumulative IPC: 0.410356 (Simulation time: 0 hr 19 min 59 sec) 
Heartbeat CPU 0 instructions: 470000002 cycles: 949437149 heartbeat IPC: 0.36894 cumulative IPC: 0.409115 (Simulation time: 0 hr 20 min 29 sec) 
Heartbeat CPU 0 instructions: 480000000 cycles: 974917165 heartbeat IPC: 0.392464 cumulative IPC: 0.408658 (Simulation time: 0 hr 20 min 59 sec) 
Heartbeat CPU 0 instructions: 490000000 cycles: 996644691 heartbeat IPC: 0.460246 cumulative IPC: 0.409836 (Simulation time: 0 hr 21 min 26 sec) 
Heartbeat CPU 0 instructions: 500000000 cycles: 1022204555 heartbeat IPC: 0.391238 cumulative IPC: 0.40935 (Simulation time: 0 hr 21 min 55 sec) 
Heartbeat CPU 0 instructions: 510000000 cycles: 1048260816 heartbeat IPC: 0.383785 cumulative IPC: 0.408686 (Simulation time: 0 hr 22 min 25 sec) 
Heartbeat CPU 0 instructions: 520000000 cycles: 1069833324 heartbeat IPC: 0.463553 cumulative IPC: 0.409841 (Simulation time: 0 hr 22 min 52 sec) 
Heartbeat CPU 0 instructions: 530000003 cycles: 1096476755 heartbeat IPC: 0.375327 cumulative IPC: 0.408966 (Simulation time: 0 hr 23 min 22 sec) 
Heartbeat CPU 0 instructions: 540000000 cycles: 1120284738 heartbeat IPC: 0.420027 cumulative IPC: 0.409211 (Simulation time: 0 hr 23 min 51 sec) 
Heartbeat CPU 0 instructions: 550000000 cycles: 1146841181 heartbeat IPC: 0.376556 cumulative IPC: 0.408424 (Simulation time: 0 hr 24 min 21 sec) 
Heartbeat CPU 0 instructions: 560000000 cycles: 1171224841 heartbeat IPC: 0.410111 cumulative IPC: 0.408461 (Simulation time: 0 hr 24 min 49 sec) 
Heartbeat CPU 0 instructions: 570000002 cycles: 1195644734 heartbeat IPC: 0.409502 cumulative IPC: 0.408483 (Simulation time: 0 hr 25 min 18 sec) 
Heartbeat CPU 0 instructions: 580000000 cycles: 1217436131 heartbeat IPC: 0.458897 cumulative IPC: 0.40942 (Simulation time: 0 hr 25 min 45 sec) 
Heartbeat CPU 0 instructions: 590000001 cycles: 1242315042 heartbeat IPC: 0.401947 cumulative IPC: 0.409265 (Simulation time: 0 hr 26 min 14 sec) 
Heartbeat CPU 0 instructions: 600000000 cycles: 1262166304 heartbeat IPC: 0.503746 cumulative IPC: 0.410806 (Simulation time: 0 hr 26 min 40 sec) 
Finished CPU 0 instructions: 500000000 cycles: 1217120945 cumulative IPC: 0.410806 (Simulation time: 0 hr 26 min 40 sec) 

CPU 0 Branch Prediction Accuracy: 99.5434% MPKI: 1.33026
Number of Branches: 145676990 Number of Mispredictions: 665128
Number of LOAD Instructions: 188863207
Number of LOAD Instructions (ROI): 188863207
Number of STORE Instructions: 7332002
Number of STORE Instructions (ROI): 7332002
Total Destination Memory Operands: 10029285
Total Destination Memory Operands (ROI): 10029285
Total Source Memory Operands: 188863207
Total Source Memory Operands (ROI): 188863207
Number of DEPENDED LOADS: 294057
Number of DEPENDED LOADS (ROI): 294057
Number of SQ_ADDED: 10029285
Number of SQ_ADDED (ROI): 10029285
Number of LQ_ADDED: 200997982
Number of LQ_ADDED (ROI): 200997982
Number of Instructions read from trace: 600000010

ChampSim completed all CPUs

Region of Interest Statistics

CPU 0 cumulative IPC: 0.410806 instructions: 500000000 cycles: 1217120945
ITLB TOTAL     ACCESS:  145814149  HIT:  145774615  MISS:      39534
ITLB LOAD      ACCESS:  145814149  HIT:  145774615  MISS:      39534
ITLB RFO       ACCESS:          0  HIT:          0  MISS:          0
ITLB PREFETCH  ACCESS:          0  HIT:          0  MISS:          0
ITLB WRITEBACK ACCESS:          0  HIT:          0  MISS:          0
ITLB PREFETCH  REQUESTED:          0  ISSUED:          0  USEFUL:          0  USELESS:          0
ITLB TOTAL MSHR MERGED:      57377
ITLB LOAD MSHR MERGED:      57377
ITLB RFO MSHR MERGED:          0
ITLB PREFETCH MSHR MERGED:          0
ITLB WRITEBACK MSHR MERGED:          0
ITLB TOTAL ACCESSES:  145871526 HITS:  145774615 MISSES:      96911
ITLB LOAD ACCESSES:  145871526 HITS:  145774615 MISSES:      96911
ITLB RFO ACCESSES:          0 HITS:          0 MISSES:          0
ITLB PREFETCH ACCESSES:          0 HITS:          0 MISSES:          0
ITLB WRITEBACK ACCESSES:          0 HITS:          0 MISSES:          0
ITLB RQ ACCESS:  499999754
ITLB RQ TO_CACHE:  145871526
ITLB RQ MERGED:  354128228
ITLB RQ FORWARD:          0
ITLB WQ ACCESS:          0
ITLB WQ TO_CACHE:          0
ITLB WQ MERGED:          0
ITLB WQ FORWARD:          0
DTLB TOTAL     ACCESS:  135300611  HIT:  134132250  MISS:    1168361
DTLB LOAD      ACCESS:  127259185  HIT:  126099923  MISS:    1159262
DTLB RFO       ACCESS:    8041426  HIT:    8032327  MISS:       9099
DTLB PREFETCH  ACCESS:          0  HIT:          0  MISS:          0
DTLB WRITEBACK ACCESS:          0  HIT:          0  MISS:          0
DTLB PREFETCH  REQUESTED:          0  ISSUED:          0  USEFUL:          0  USELESS:          0
DTLB TOTAL MSHR MERGED:     570385
DTLB LOAD MSHR MERGED:     566038
DTLB RFO MSHR MERGED:       4347
DTLB PREFETCH MSHR MERGED:          0
DTLB WRITEBACK MSHR MERGED:          0
DTLB TOTAL ACCESSES:  135870996 HITS:  134132250 MISSES:    1738746
DTLB LOAD ACCESSES:  127825223 HITS:  126099923 MISSES:    1725300
DTLB RFO ACCESSES:    8045773 HITS:    8032327 MISSES:      13446
DTLB PREFETCH ACCESSES:          0 HITS:          0 MISSES:          0
DTLB WRITEBACK ACCESSES:          0 HITS:          0 MISSES:          0
DTLB RQ ACCESS:  165760294
DTLB RQ TO_CACHE:  135870996
DTLB RQ MERGED:   29889298
DTLB RQ FORWARD:          0
DTLB WQ ACCESS:          0
DTLB WQ TO_CACHE:          0
DTLB WQ MERGED:          0
DTLB WQ FORWARD:          0
L1D TOTAL     ACCESS:  157678195  HIT:  140362497  MISS:   17315698
L1D LOAD      ACCESS:   90086820  HIT:   79129985  MISS:   10956835
L1D RFO       ACCESS:    8496610  HIT:    8409409  MISS:      87201
L1D PREFETCH  ACCESS:   59094765  HIT:   52823103  MISS:    6271662
L1D WRITEBACK ACCESS:          0  HIT:          0  MISS:          0
L1D PREFETCH  REQUESTED:   93744294  ISSUED:   92876081  USEFUL:    2190200  USELESS:    4081536
L1D TOTAL MSHR MERGED:   14390674
L1D LOAD MSHR MERGED:    6894595
L1D RFO MSHR MERGED:     127991
L1D PREFETCH MSHR MERGED:    7368088
L1D WRITEBACK MSHR MERGED:          0
L1D TOTAL ACCESSES:  172069048 HITS:  140362675 MISSES:   31706373
L1D LOAD ACCESSES:   93744298 HITS:   79129989 MISSES:   14614309
L1D RFO ACCESSES:    8622696 HITS:    8409409 MISSES:     213287
L1D PREFETCH ACCESSES:   69702054 HITS:   52823277 MISSES:   16878777
L1D WRITEBACK ACCESSES:          0 HITS:          0 MISSES:          0
L1D RQ ACCESS:  157121088
L1D RQ TO_CACHE:   93744294
L1D RQ MERGED:   63376790
L1D RQ FORWARD:          0
L1D WQ ACCESS:    8639208
L1D WQ TO_CACHE:    8622696
L1D WQ MERGED:      16512
L1D WQ FORWARD:        178
L1I TOTAL     ACCESS:  178770441  HIT:  178106988  MISS:     663453
L1I LOAD      ACCESS:  178770441  HIT:  178106988  MISS:     663453
L1I RFO       ACCESS:          0  HIT:          0  MISS:          0
L1I PREFETCH  ACCESS:          0  HIT:          0  MISS:          0
L1I WRITEBACK ACCESS:          0  HIT:          0  MISS:          0
L1I PREFETCH  REQUESTED:          0  ISSUED:          0  USEFUL:          0  USELESS:          0
L1I TOTAL MSHR MERGED:     607814
L1I LOAD MSHR MERGED:     607814
L1I RFO MSHR MERGED:          0
L1I PREFETCH MSHR MERGED:          0
L1I WRITEBACK MSHR MERGED:          0
L1I TOTAL ACCESSES:  179378255 HITS:  178106988 MISSES:    1271267
L1I LOAD ACCESSES:  179378255 HITS:  178106988 MISSES:    1271267
L1I RFO ACCESSES:          0 HITS:          0 MISSES:          0
L1I PREFETCH ACCESSES:          0 HITS:          0 MISSES:          0
L1I WRITEBACK ACCESSES:          0 HITS:          0 MISSES:          0
L1I RQ ACCESS:  499999757
L1I RQ TO_CACHE:  179378255
L1I RQ MERGED:  320621502
L1I RQ FORWARD:          0
L1I WQ ACCESS:          0
L1I WQ TO_CACHE:          0
L1I WQ MERGED:          0
L1I WQ FORWARD:          0
L2C TOTAL     ACCESS:   19272243  HIT:    2053984  MISS:   17218259
L2C LOAD      ACCESS:    8383065  HIT:     949916  MISS:    7433149
L2C RFO       ACCESS:      85271  HIT:      53718  MISS:      31553
L2C PREFETCH  ACCESS:   10518927  HIT:     768181  MISS:    9750746
L2C WRITEBACK ACCESS:     284980  HIT:     282169  MISS:       2811
L2C PREFETCH  REQUESTED:    1010713  ISSUED:    1010713  USEFUL:     273784  USELESS:    9476044
L2C TOTAL MSHR MERGED:        828
L2C LOAD MSHR MERGED:        178
L2C RFO MSHR MERGED:          1
L2C PREFETCH MSHR MERGED:        649
L2C WRITEBACK MSHR MERGED:          0
L2C TOTAL ACCESSES:   19273575 HITS:    2054174 MISSES:   17219401
L2C LOAD ACCESSES:    8383167 HITS:     950018 MISSES:    7433149
L2C RFO ACCESSES:      85296 HITS:      53743 MISSES:      31553
L2C PREFETCH ACCESSES:   10520132 HITS:     768244 MISSES:    9751888
L2C WRITEBACK ACCESSES:     284980 HITS:     282169 MISSES:       2811
L2C RQ ACCESS:    8468463
L2C RQ TO_CACHE:    8468336
L2C RQ MERGED:          0
L2C RQ FORWARD:          0
L2C WQ ACCESS:     284980
L2C WQ TO_CACHE:     284980
L2C WQ MERGED:          0
L2C WQ FORWARD:        190
LLC TOTAL     ACCESS:   17321813  HIT:    3594573  MISS:   13727240
LLC LOAD      ACCESS:    7432971  HIT:    2196390  MISS:    5236581
LLC RFO       ACCESS:      31552  HIT:       9993  MISS:      21559
LLC PREFETCH  ACCESS:    9751233  HIT:    1304473  MISS:    8446760
LLC WRITEBACK ACCESS:     106057  HIT:      83717  MISS:      22340
LLC PREFETCH  REQUESTED:          0  ISSUED:          0  USEFUL:      46820  USELESS:    8397946
LLC TOTAL MSHR MERGED:          5
LLC LOAD MSHR MERGED:          0
LLC RFO MSHR MERGED:          0
LLC PREFETCH MSHR MERGED:          5
LLC WRITEBACK MSHR MERGED:          0
LLC TOTAL ACCESSES:   17321819 HITS:    3594573 MISSES:   13727246
LLC LOAD ACCESSES:    7432971 HITS:    2196390 MISSES:    5236581
LLC RFO ACCESSES:      31552 HITS:       9993 MISSES:      21559
LLC PREFETCH ACCESSES:    9751239 HITS:    1304473 MISSES:    8446766
LLC WRITEBACK ACCESSES:     106057 HITS:      83717 MISSES:      22340
LLC 0 RQ ACCESS:    7464523
LLC 0 RQ TO_CACHE:    7464523
LLC 0 RQ MERGED:          0
LLC 0 RQ FORWARD:          0
LLC WQ ACCESS:     106057
LLC WQ TO_CACHE:     106057
LLC WQ MERGED:          0
LLC WQ FORWARD:          0
Major fault: 0 Minor fault: 6432
CPU 0 L1D next line prefetcher final stats
CPU 0 L2C PC-based stride prefetcher final stats
All Misses: 16100481
All Hits: 4440382
SD Algo Stats - Switches: 0 SRR-Repls: 5700593 BRR-Repls: 0

DRAM Statistics
 CHANNEL 0
 RQ ROW_BUFFER_HIT:   10582093  ROW_BUFFER_MISS:    3115894
 DBUS_CONGESTED:    7063000
 WQ ROW_BUFFER_HIT:       2143  ROW_BUFFER_MISS:      67894  FULL:          0

 AVG_CONGESTED_CYCLE: 13
LOADS RETIRED: 157382665
INSTR RETIRED: 500000000
