
*** ChampSim Multicore Out-of-Order Simulator ***

Warmup Instructions: 100000000
Simulation Instructions: 500000000
Number of CPUs: 1
LLC sets: 2048
LLC ways: 16
Clean RRIP Policies: 2123132221231322 Dirty RRIP Policies: 2123131221231312 PSEL Width: 10 Track Set: 4294967295 PSEL Mask: 1 Demote Mask: 3440214434402144DS Algo: 0Window size: 0
Off-chip DRAM Size: 4096 MB Channels: 1 Width: 64-bit Data Rate: 1600 MT/s

CPU 0 runs /mnt/beegfs/iconst01/spec2017/Gcc.trace.gz
NOT SORTED
TRACE STRING: /mnt/beegfs/iconst01/spec2017/Gcc.trace.gz
SORTED
TRACE STRING: /mnt/beegfs/iconst01/spec2017/Gcc.trace.gz
INITIAL
TRACE STRING: /mnt/beegfs/iconst01/spec2017/Gcc.trace.gz

champsim_seed used: 269

CPU 0 L1D next line prefetcher
CPU 0 L2C IP-based stride prefetcher
Initialize DRRIP state
Assign rand_sets[0]: 454  LLC: 2048
rand_sets[0]: 454
Assign rand_sets[1]: 1662  LLC: 2048
rand_sets[1]: 1662
Assign rand_sets[2]: 1921  LLC: 2048
rand_sets[2]: 1921
Assign rand_sets[3]: 1131  LLC: 2048
rand_sets[3]: 1131
Assign rand_sets[4]: 331  LLC: 2048
rand_sets[4]: 331
Assign rand_sets[5]: 1531  LLC: 2048
rand_sets[5]: 1531
Assign rand_sets[6]: 482  LLC: 2048
rand_sets[6]: 482
Assign rand_sets[7]: 1275  LLC: 2048
rand_sets[7]: 1275
Assign rand_sets[8]: 1876  LLC: 2048
rand_sets[8]: 1876
Assign rand_sets[9]: 2038  LLC: 2048
rand_sets[9]: 2038
Assign rand_sets[10]: 701  LLC: 2048
rand_sets[10]: 701
Assign rand_sets[11]: 479  LLC: 2048
rand_sets[11]: 479
Assign rand_sets[12]: 892  LLC: 2048
rand_sets[12]: 892
Assign rand_sets[13]: 1820  LLC: 2048
rand_sets[13]: 1820
Assign rand_sets[14]: 1505  LLC: 2048
rand_sets[14]: 1505
Assign rand_sets[15]: 1159  LLC: 2048
rand_sets[15]: 1159
Assign rand_sets[16]: 513  LLC: 2048
rand_sets[16]: 513
Assign rand_sets[17]: 703  LLC: 2048
rand_sets[17]: 703
Assign rand_sets[18]: 561  LLC: 2048
rand_sets[18]: 561
Assign rand_sets[19]: 990  LLC: 2048
rand_sets[19]: 990
Assign rand_sets[20]: 342  LLC: 2048
rand_sets[20]: 342
Assign rand_sets[21]: 882  LLC: 2048
rand_sets[21]: 882
Assign rand_sets[22]: 15  LLC: 2048
rand_sets[22]: 15
Assign rand_sets[23]: 71  LLC: 2048
rand_sets[23]: 71
Assign rand_sets[24]: 1127  LLC: 2048
rand_sets[24]: 1127
Assign rand_sets[25]: 1382  LLC: 2048
rand_sets[25]: 1382
Assign rand_sets[26]: 647  LLC: 2048
rand_sets[26]: 647
Assign rand_sets[27]: 857  LLC: 2048
rand_sets[27]: 857
Assign rand_sets[28]: 1450  LLC: 2048
rand_sets[28]: 1450
Assign rand_sets[29]: 1160  LLC: 2048
rand_sets[29]: 1160
Assign rand_sets[30]: 1852  LLC: 2048
rand_sets[30]: 1852
Assign rand_sets[31]: 1881  LLC: 2048
rand_sets[31]: 1881
Assign rand_sets[32]: 1770  LLC: 2048
rand_sets[32]: 1770
Assign rand_sets[33]: 1622  LLC: 2048
rand_sets[33]: 1622
Assign rand_sets[34]: 275  LLC: 2048
rand_sets[34]: 275
Assign rand_sets[35]: 635  LLC: 2048
rand_sets[35]: 635
Assign rand_sets[36]: 466  LLC: 2048
rand_sets[36]: 466
Assign rand_sets[37]: 1413  LLC: 2048
rand_sets[37]: 1413
Assign rand_sets[38]: 417  LLC: 2048
rand_sets[38]: 417
Assign rand_sets[39]: 472  LLC: 2048
rand_sets[39]: 472
Assign rand_sets[40]: 1340  LLC: 2048
rand_sets[40]: 1340
Assign rand_sets[41]: 852  LLC: 2048
rand_sets[41]: 852
Assign rand_sets[42]: 1365  LLC: 2048
rand_sets[42]: 1365
Assign rand_sets[43]: 47  LLC: 2048
rand_sets[43]: 47
Assign rand_sets[44]: 823  LLC: 2048
rand_sets[44]: 823
Assign rand_sets[45]: 686  LLC: 2048
rand_sets[45]: 686
Assign rand_sets[46]: 1637  LLC: 2048
rand_sets[46]: 1637
Assign rand_sets[47]: 1115  LLC: 2048
rand_sets[47]: 1115
Assign rand_sets[48]: 986  LLC: 2048
rand_sets[48]: 986
Assign rand_sets[49]: 258  LLC: 2048
rand_sets[49]: 258
Assign rand_sets[50]: 633  LLC: 2048
rand_sets[50]: 633
Assign rand_sets[51]: 920  LLC: 2048
rand_sets[51]: 920
Assign rand_sets[52]: 204  LLC: 2048
rand_sets[52]: 204
Assign rand_sets[53]: 227  LLC: 2048
rand_sets[53]: 227
Assign rand_sets[54]: 1818  LLC: 2048
rand_sets[54]: 1818
Assign rand_sets[55]: 886  LLC: 2048
rand_sets[55]: 886
Assign rand_sets[56]: 1422  LLC: 2048
rand_sets[56]: 1422
Assign rand_sets[57]: 607  LLC: 2048
rand_sets[57]: 607
Assign rand_sets[58]: 217  LLC: 2048
rand_sets[58]: 217
Assign rand_sets[59]: 1945  LLC: 2048
rand_sets[59]: 1945
Assign rand_sets[60]: 143  LLC: 2048
rand_sets[60]: 143
Assign rand_sets[61]: 1311  LLC: 2048
rand_sets[61]: 1311
Assign rand_sets[62]: 319  LLC: 2048
rand_sets[62]: 319
Assign rand_sets[63]: 1846  LLC: 2048
rand_sets[63]: 1846
 CLEAN-RRIP-POLICY-1: 2-1-2-3-1-3-2-2- CLEAN-RRIP-POLICY-2: 2-1-2-3-1-3-2-2-
 DIRTY-RRIP-POLICY-1: 2-1-2-3-1-3-1-2- DIRTY-RRIP-POLICY-2: 2-1-2-3-1-3-1-2-
 PSEL width: 10
Heartbeat CPU 0 instructions: 10000001 cycles: 7315988 heartbeat IPC: 1.36687 cumulative IPC: 1.36687 (Simulation time: 0 hr 0 min 15 sec) 
Heartbeat CPU 0 instructions: 20000000 cycles: 14307938 heartbeat IPC: 1.43022 cumulative IPC: 1.39783 (Simulation time: 0 hr 0 min 30 sec) 
Heartbeat CPU 0 instructions: 30000001 cycles: 21021039 heartbeat IPC: 1.48962 cumulative IPC: 1.42714 (Simulation time: 0 hr 0 min 47 sec) 
Heartbeat CPU 0 instructions: 40000000 cycles: 27482254 heartbeat IPC: 1.5477 cumulative IPC: 1.45548 (Simulation time: 0 hr 1 min 3 sec) 
Heartbeat CPU 0 instructions: 50000001 cycles: 33583827 heartbeat IPC: 1.63892 cumulative IPC: 1.48881 (Simulation time: 0 hr 1 min 19 sec) 
Heartbeat CPU 0 instructions: 60000000 cycles: 40065016 heartbeat IPC: 1.54293 cumulative IPC: 1.49757 (Simulation time: 0 hr 1 min 36 sec) 
Heartbeat CPU 0 instructions: 70000000 cycles: 47102469 heartbeat IPC: 1.42097 cumulative IPC: 1.48612 (Simulation time: 0 hr 1 min 51 sec) 
Heartbeat CPU 0 instructions: 80000000 cycles: 54192388 heartbeat IPC: 1.41045 cumulative IPC: 1.47622 (Simulation time: 0 hr 2 min 6 sec) 
Heartbeat CPU 0 instructions: 90000003 cycles: 61196887 heartbeat IPC: 1.42765 cumulative IPC: 1.47066 (Simulation time: 0 hr 2 min 21 sec) 
Heartbeat CPU 0 instructions: 100000000 cycles: 68364409 heartbeat IPC: 1.39518 cumulative IPC: 1.46275 (Simulation time: 0 hr 2 min 36 sec) 

Warmup complete CPU 0 instructions: 100000004 cycles: 68364410 (Simulation time: 0 hr 2 min 36 sec) 

Heartbeat CPU 0 instructions: 110000003 cycles: 96180263 heartbeat IPC: 0.359507 cumulative IPC: 0.359507 (Simulation time: 0 hr 3 min 6 sec) 
Heartbeat CPU 0 instructions: 120000000 cycles: 123763459 heartbeat IPC: 0.362539 cumulative IPC: 0.361017 (Simulation time: 0 hr 3 min 36 sec) 
Heartbeat CPU 0 instructions: 130000000 cycles: 148817427 heartbeat IPC: 0.399138 cumulative IPC: 0.372888 (Simulation time: 0 hr 4 min 6 sec) 
Heartbeat CPU 0 instructions: 140000000 cycles: 178403001 heartbeat IPC: 0.338003 cumulative IPC: 0.363509 (Simulation time: 0 hr 4 min 35 sec) 
Heartbeat CPU 0 instructions: 150000000 cycles: 208518091 heartbeat IPC: 0.332059 cumulative IPC: 0.356751 (Simulation time: 0 hr 5 min 4 sec) 
Heartbeat CPU 0 instructions: 160000000 cycles: 235972310 heartbeat IPC: 0.364243 cumulative IPC: 0.357978 (Simulation time: 0 hr 5 min 33 sec) 
Heartbeat CPU 0 instructions: 170000001 cycles: 264117749 heartbeat IPC: 0.355297 cumulative IPC: 0.357593 (Simulation time: 0 hr 6 min 4 sec) 
Heartbeat CPU 0 instructions: 180000000 cycles: 292699849 heartbeat IPC: 0.349869 cumulative IPC: 0.356609 (Simulation time: 0 hr 6 min 34 sec) 
Heartbeat CPU 0 instructions: 190000002 cycles: 320825284 heartbeat IPC: 0.35555 cumulative IPC: 0.356491 (Simulation time: 0 hr 7 min 3 sec) 
Heartbeat CPU 0 instructions: 200000000 cycles: 349379680 heartbeat IPC: 0.350209 cumulative IPC: 0.355853 (Simulation time: 0 hr 7 min 34 sec) 
Heartbeat CPU 0 instructions: 210000002 cycles: 377313725 heartbeat IPC: 0.357986 cumulative IPC: 0.356045 (Simulation time: 0 hr 8 min 3 sec) 
Heartbeat CPU 0 instructions: 220000000 cycles: 406589506 heartbeat IPC: 0.341579 cumulative IPC: 0.354793 (Simulation time: 0 hr 8 min 32 sec) 
Heartbeat CPU 0 instructions: 230000000 cycles: 434440503 heartbeat IPC: 0.359054 cumulative IPC: 0.355117 (Simulation time: 0 hr 9 min 1 sec) 
Heartbeat CPU 0 instructions: 240000000 cycles: 460958105 heartbeat IPC: 0.377108 cumulative IPC: 0.356603 (Simulation time: 0 hr 9 min 29 sec) 
Heartbeat CPU 0 instructions: 250000000 cycles: 491281971 heartbeat IPC: 0.329773 cumulative IPC: 0.354679 (Simulation time: 0 hr 10 min 0 sec) 
Heartbeat CPU 0 instructions: 260000000 cycles: 518531833 heartbeat IPC: 0.366974 cumulative IPC: 0.355423 (Simulation time: 0 hr 10 min 29 sec) 
Heartbeat CPU 0 instructions: 270000003 cycles: 547052437 heartbeat IPC: 0.350624 cumulative IPC: 0.355137 (Simulation time: 0 hr 11 min 0 sec) 
Heartbeat CPU 0 instructions: 280000000 cycles: 575436319 heartbeat IPC: 0.352313 cumulative IPC: 0.354979 (Simulation time: 0 hr 11 min 30 sec) 
Heartbeat CPU 0 instructions: 290000000 cycles: 604350612 heartbeat IPC: 0.34585 cumulative IPC: 0.354487 (Simulation time: 0 hr 12 min 1 sec) 
Heartbeat CPU 0 instructions: 300000000 cycles: 634377820 heartbeat IPC: 0.333031 cumulative IPC: 0.353349 (Simulation time: 0 hr 12 min 30 sec) 
Heartbeat CPU 0 instructions: 310000001 cycles: 664073232 heartbeat IPC: 0.336752 cumulative IPC: 0.352521 (Simulation time: 0 hr 13 min 0 sec) 
Heartbeat CPU 0 instructions: 320000000 cycles: 692538588 heartbeat IPC: 0.351304 cumulative IPC: 0.352466 (Simulation time: 0 hr 13 min 29 sec) 
Heartbeat CPU 0 instructions: 330000000 cycles: 721242330 heartbeat IPC: 0.348387 cumulative IPC: 0.352286 (Simulation time: 0 hr 13 min 58 sec) 
Heartbeat CPU 0 instructions: 340000000 cycles: 750912456 heartbeat IPC: 0.337039 cumulative IPC: 0.351624 (Simulation time: 0 hr 14 min 28 sec) 
Heartbeat CPU 0 instructions: 350000003 cycles: 777995211 heartbeat IPC: 0.369239 cumulative IPC: 0.352296 (Simulation time: 0 hr 14 min 57 sec) 
Heartbeat CPU 0 instructions: 360000000 cycles: 806592791 heartbeat IPC: 0.34968 cumulative IPC: 0.352195 (Simulation time: 0 hr 15 min 25 sec) 
Heartbeat CPU 0 instructions: 370000000 cycles: 835330700 heartbeat IPC: 0.347972 cumulative IPC: 0.352036 (Simulation time: 0 hr 15 min 54 sec) 
Heartbeat CPU 0 instructions: 380000000 cycles: 864452759 heartbeat IPC: 0.343382 cumulative IPC: 0.35172 (Simulation time: 0 hr 16 min 22 sec) 
Heartbeat CPU 0 instructions: 390000001 cycles: 892640193 heartbeat IPC: 0.354768 cumulative IPC: 0.351824 (Simulation time: 0 hr 16 min 50 sec) 
Heartbeat CPU 0 instructions: 400000000 cycles: 921824643 heartbeat IPC: 0.342648 cumulative IPC: 0.35151 (Simulation time: 0 hr 17 min 19 sec) 
Heartbeat CPU 0 instructions: 410000001 cycles: 949706945 heartbeat IPC: 0.35865 cumulative IPC: 0.351736 (Simulation time: 0 hr 17 min 47 sec) 
Heartbeat CPU 0 instructions: 420000000 cycles: 977561921 heartbeat IPC: 0.359002 cumulative IPC: 0.351959 (Simulation time: 0 hr 18 min 15 sec) 
Heartbeat CPU 0 instructions: 430000002 cycles: 1005811124 heartbeat IPC: 0.353992 cumulative IPC: 0.35202 (Simulation time: 0 hr 18 min 44 sec) 
Heartbeat CPU 0 instructions: 440000000 cycles: 1035724616 heartbeat IPC: 0.334297 cumulative IPC: 0.351472 (Simulation time: 0 hr 19 min 12 sec) 
Heartbeat CPU 0 instructions: 450000002 cycles: 1065520692 heartbeat IPC: 0.335615 cumulative IPC: 0.350998 (Simulation time: 0 hr 19 min 41 sec) 
Heartbeat CPU 0 instructions: 460000000 cycles: 1093719511 heartbeat IPC: 0.354625 cumulative IPC: 0.351098 (Simulation time: 0 hr 20 min 9 sec) 
Heartbeat CPU 0 instructions: 470000000 cycles: 1121846500 heartbeat IPC: 0.35553 cumulative IPC: 0.351216 (Simulation time: 0 hr 20 min 36 sec) 
Heartbeat CPU 0 instructions: 480000000 cycles: 1150178885 heartbeat IPC: 0.352953 cumulative IPC: 0.351262 (Simulation time: 0 hr 21 min 4 sec) 
Heartbeat CPU 0 instructions: 490000000 cycles: 1178239852 heartbeat IPC: 0.356367 cumulative IPC: 0.351391 (Simulation time: 0 hr 21 min 31 sec) 
Heartbeat CPU 0 instructions: 500000000 cycles: 1206890247 heartbeat IPC: 0.349035 cumulative IPC: 0.351332 (Simulation time: 0 hr 21 min 59 sec) 
Heartbeat CPU 0 instructions: 510000000 cycles: 1242082321 heartbeat IPC: 0.284155 cumulative IPC: 0.349317 (Simulation time: 0 hr 22 min 30 sec) 
Heartbeat CPU 0 instructions: 520000000 cycles: 1269777224 heartbeat IPC: 0.361077 cumulative IPC: 0.349588 (Simulation time: 0 hr 22 min 58 sec) 
Heartbeat CPU 0 instructions: 530000001 cycles: 1299339299 heartbeat IPC: 0.338271 cumulative IPC: 0.349317 (Simulation time: 0 hr 23 min 27 sec) 
Heartbeat CPU 0 instructions: 540000000 cycles: 1327909349 heartbeat IPC: 0.350017 cumulative IPC: 0.349333 (Simulation time: 0 hr 23 min 55 sec) 
Heartbeat CPU 0 instructions: 550000001 cycles: 1357456956 heartbeat IPC: 0.338437 cumulative IPC: 0.349083 (Simulation time: 0 hr 24 min 25 sec) 
Heartbeat CPU 0 instructions: 560000000 cycles: 1383122001 heartbeat IPC: 0.389635 cumulative IPC: 0.349874 (Simulation time: 0 hr 24 min 53 sec) 
Heartbeat CPU 0 instructions: 570000000 cycles: 1412906617 heartbeat IPC: 0.335744 cumulative IPC: 0.349561 (Simulation time: 0 hr 25 min 22 sec) 
Heartbeat CPU 0 instructions: 580000000 cycles: 1441408100 heartbeat IPC: 0.350859 cumulative IPC: 0.349588 (Simulation time: 0 hr 25 min 50 sec) 
Heartbeat CPU 0 instructions: 590000001 cycles: 1466977444 heartbeat IPC: 0.391093 cumulative IPC: 0.350347 (Simulation time: 0 hr 26 min 17 sec) 
Heartbeat CPU 0 instructions: 600000000 cycles: 1494705731 heartbeat IPC: 0.360643 cumulative IPC: 0.350547 (Simulation time: 0 hr 26 min 45 sec) 
Finished CPU 0 instructions: 500000000 cycles: 1426341343 cumulative IPC: 0.350547 (Simulation time: 0 hr 26 min 45 sec) 

CPU 0 Branch Prediction Accuracy: 86.4311% MPKI: 26.2662
Number of Branches: 96788573 Number of Mispredictions: 13133102
Number of LOAD Instructions: 164682285
Number of LOAD Instructions (ROI): 164682285
Number of STORE Instructions: 78194750
Number of STORE Instructions (ROI): 78194750
Total Destination Memory Operands: 83268534
Total Destination Memory Operands (ROI): 83268534
Total Source Memory Operands: 164712438
Total Source Memory Operands (ROI): 164712438
Number of DEPENDED LOADS: 7081864
Number of DEPENDED LOADS (ROI): 7081864
Number of SQ_ADDED: 83268522
Number of SQ_ADDED (ROI): 83268522
Number of LQ_ADDED: 236963412
Number of LQ_ADDED (ROI): 236963412
Number of Instructions read from trace: 600000066

ChampSim completed all CPUs

Region of Interest Statistics

CPU 0 cumulative IPC: 0.350547 instructions: 500000000 cycles: 1426341343
ITLB TOTAL     ACCESS:  100491056  HIT:  100286610  MISS:     204446
ITLB LOAD      ACCESS:  100491056  HIT:  100286610  MISS:     204446
ITLB RFO       ACCESS:          0  HIT:          0  MISS:          0
ITLB PREFETCH  ACCESS:          0  HIT:          0  MISS:          0
ITLB WRITEBACK ACCESS:          0  HIT:          0  MISS:          0
ITLB PREFETCH  REQUESTED:          0  ISSUED:          0  USEFUL:          0  USELESS:          0
ITLB TOTAL MSHR MERGED:     172423
ITLB LOAD MSHR MERGED:     172423
ITLB RFO MSHR MERGED:          0
ITLB PREFETCH MSHR MERGED:          0
ITLB WRITEBACK MSHR MERGED:          0
ITLB TOTAL ACCESSES:  100663479 HITS:  100286610 MISSES:     376869
ITLB LOAD ACCESSES:  100663479 HITS:  100286610 MISSES:     376869
ITLB RFO ACCESSES:          0 HITS:          0 MISSES:          0
ITLB PREFETCH ACCESSES:          0 HITS:          0 MISSES:          0
ITLB WRITEBACK ACCESSES:          0 HITS:          0 MISSES:          0
ITLB RQ ACCESS:  500000057
ITLB RQ TO_CACHE:  100663479
ITLB RQ MERGED:  399336578
ITLB RQ FORWARD:          0
ITLB WQ ACCESS:          0
ITLB WQ TO_CACHE:          0
ITLB WQ MERGED:          0
ITLB WQ FORWARD:          0
DTLB TOTAL     ACCESS:  165317372  HIT:  164683021  MISS:     634351
DTLB LOAD      ACCESS:  106275056  HIT:  105705060  MISS:     569996
DTLB RFO       ACCESS:   59042316  HIT:   58977961  MISS:      64355
DTLB PREFETCH  ACCESS:          0  HIT:          0  MISS:          0
DTLB WRITEBACK ACCESS:          0  HIT:          0  MISS:          0
DTLB PREFETCH  REQUESTED:          0  ISSUED:          0  USEFUL:          0  USELESS:          0
DTLB TOTAL MSHR MERGED:      99783
DTLB LOAD MSHR MERGED:      59378
DTLB RFO MSHR MERGED:      40405
DTLB PREFETCH MSHR MERGED:          0
DTLB WRITEBACK MSHR MERGED:          0
DTLB TOTAL ACCESSES:  165417155 HITS:  164683021 MISSES:     734134
DTLB LOAD ACCESSES:  106334434 HITS:  105705060 MISSES:     629374
DTLB RFO ACCESSES:   59082721 HITS:   58977961 MISSES:     104760
DTLB PREFETCH ACCESSES:          0 HITS:          0 MISSES:          0
DTLB WRITEBACK ACCESSES:          0 HITS:          0 MISSES:          0
DTLB RQ ACCESS:  200289169
DTLB RQ TO_CACHE:  165417155
DTLB RQ MERGED:   34872014
DTLB RQ FORWARD:          0
DTLB WQ ACCESS:          0
DTLB WQ TO_CACHE:          0
DTLB WQ MERGED:          0
DTLB WQ FORWARD:          0
L1D TOTAL     ACCESS:  281676359  HIT:  273767237  MISS:    7909122
L1D LOAD      ACCESS:  110386129  HIT:  107100901  MISS:    3285228
L1D RFO       ACCESS:   67061929  HIT:   66168755  MISS:     893174
L1D PREFETCH  ACCESS:  104228301  HIT:  100497581  MISS:    3730720
L1D WRITEBACK ACCESS:          0  HIT:          0  MISS:          0
L1D PREFETCH  REQUESTED:  110801376  ISSUED:  109102178  USEFUL:    1651769  USELESS:    2078915
L1D TOTAL MSHR MERGED:    2998239
L1D LOAD MSHR MERGED:     520262
L1D RFO MSHR MERGED:    1925262
L1D PREFETCH MSHR MERGED:     552715
L1D WRITEBACK MSHR MERGED:          0
L1D TOTAL ACCESSES:  284702494 HITS:  273795133 MISSES:   10907361
L1D LOAD ACCESSES:  110803340 HITS:  107102865 MISSES:    3700475
L1D RFO ACCESSES:   68972791 HITS:   66168755 MISSES:    2804036
L1D PREFETCH ACCESSES:  104926363 HITS:  100523513 MISSES:    4402850
L1D WRITEBACK ACCESSES:          0 HITS:          0 MISSES:          0
L1D RQ ACCESS:  130736566
L1D RQ TO_CACHE:  110801379
L1D RQ MERGED:   19933223
L1D RQ FORWARD:          0
L1D WQ ACCESS:   69552603
L1D WQ TO_CACHE:   68972792
L1D WQ MERGED:     579811
L1D WQ FORWARD:      27896
L1I TOTAL     ACCESS:  126537135  HIT:  122298584  MISS:    4238551
L1I LOAD      ACCESS:  126537135  HIT:  122298584  MISS:    4238551
L1I RFO       ACCESS:          0  HIT:          0  MISS:          0
L1I PREFETCH  ACCESS:          0  HIT:          0  MISS:          0
L1I WRITEBACK ACCESS:          0  HIT:          0  MISS:          0
L1I PREFETCH  REQUESTED:          0  ISSUED:          0  USEFUL:          0  USELESS:          0
L1I TOTAL MSHR MERGED:    1834989
L1I LOAD MSHR MERGED:    1834989
L1I RFO MSHR MERGED:          0
L1I PREFETCH MSHR MERGED:          0
L1I WRITEBACK MSHR MERGED:          0
L1I TOTAL ACCESSES:  128372127 HITS:  122298584 MISSES:    6073543
L1I LOAD ACCESSES:  128372127 HITS:  122298584 MISSES:    6073543
L1I RFO ACCESSES:          0 HITS:          0 MISSES:          0
L1I PREFETCH ACCESSES:          0 HITS:          0 MISSES:          0
L1I WRITEBACK ACCESSES:          0 HITS:          0 MISSES:          0
L1I RQ ACCESS:  500000057
L1I RQ TO_CACHE:  128372127
L1I RQ MERGED:  371627930
L1I RQ FORWARD:          0
L1I WQ ACCESS:          0
L1I WQ TO_CACHE:          0
L1I WQ MERGED:          0
L1I WQ FORWARD:          0
L2C TOTAL     ACCESS:   14901195  HIT:   11154803  MISS:    3746392
L2C LOAD      ACCESS:    7418558  HIT:    5097721  MISS:    2320837
L2C RFO       ACCESS:     878678  HIT:     409894  MISS:     468784
L2C PREFETCH  ACCESS:    4564785  HIT:    3625274  MISS:     939511
L2C WRITEBACK ACCESS:    2039174  HIT:    2021914  MISS:      17260
L2C PREFETCH  REQUESTED:     841853  ISSUED:     841853  USEFUL:     202354  USELESS:     736862
L2C TOTAL MSHR MERGED:      10200
L2C LOAD MSHR MERGED:       1677
L2C RFO MSHR MERGED:          1
L2C PREFETCH MSHR MERGED:       8522
L2C WRITEBACK MSHR MERGED:          0
L2C TOTAL ACCESSES:   14912384 HITS:   11155249 MISSES:    3757135
L2C LOAD ACCESSES:    7418764 HITS:    5097927 MISSES:    2320837
L2C RFO ACCESSES:     878774 HITS:     409990 MISSES:     468784
L2C PREFETCH ACCESSES:    4575672 HITS:    3625418 MISSES:     950254
L2C WRITEBACK ACCESSES:    2039174 HITS:    2021914 MISSES:      17260
L2C RQ ACCESS:    8297541
L2C RQ TO_CACHE:    8297239
L2C RQ MERGED:          0
L2C RQ FORWARD:          0
L2C WQ ACCESS:    2039174
L2C WQ TO_CACHE:    2039174
L2C WQ MERGED:          0
L2C WQ FORWARD:        446
LLC TOTAL     ACCESS:    4609784  HIT:    3447054  MISS:    1162730
LLC LOAD      ACCESS:    2319145  HIT:    1985509  MISS:     333636
LLC RFO       ACCESS:     468773  HIT:     295368  MISS:     173405
LLC PREFETCH  ACCESS:     941590  HIT:     503994  MISS:     437596
LLC WRITEBACK ACCESS:     880276  HIT:     662183  MISS:     218093
LLC PREFETCH  REQUESTED:          0  ISSUED:          0  USEFUL:      13271  USELESS:     424443
LLC TOTAL MSHR MERGED:        127
LLC LOAD MSHR MERGED:         39
LLC RFO MSHR MERGED:          0
LLC PREFETCH MSHR MERGED:         88
LLC WRITEBACK MSHR MERGED:          0
LLC TOTAL ACCESSES:    4609947 HITS:    3447090 MISSES:    1162857
LLC LOAD ACCESSES:    2319160 HITS:    1985524 MISSES:     333636
LLC RFO ACCESSES:     468783 HITS:     295378 MISSES:     173405
LLC PREFETCH ACCESSES:     941728 HITS:     504005 MISSES:     437723
LLC WRITEBACK ACCESSES:     880276 HITS:     662183 MISSES:     218093
LLC 0 RQ ACCESS:    2787943
LLC 0 RQ TO_CACHE:    2787918
LLC 0 RQ MERGED:          0
LLC 0 RQ FORWARD:          0
LLC WQ ACCESS:     880276
LLC WQ TO_CACHE:     880276
LLC WQ MERGED:          0
LLC WQ FORWARD:         36
Major fault: 0 Minor fault: 12862
CPU 0 L1D next line prefetcher final stats
CPU 0 L2C PC-based stride prefetcher final stats
All Misses: 1328636
All Hits: 4098154
SD Algo Stats - Switches: 0 SRR-Repls: 374181 BRR-Repls: 0

DRAM Statistics
 CHANNEL 0
 RQ ROW_BUFFER_HIT:     195315  ROW_BUFFER_MISS:     744923
 DBUS_CONGESTED:     626753
 WQ ROW_BUFFER_HIT:      45707  ROW_BUFFER_MISS:     356156  FULL:          0

 AVG_CONGESTED_CYCLE: 13
LOADS RETIRED: 136549171
INSTR RETIRED: 500000000
