
*** ChampSim Multicore Out-of-Order Simulator ***

Warmup Instructions: 100000000
Simulation Instructions: 500000000
Number of CPUs: 1
LLC sets: 2048
LLC ways: 16
Clean RRIP Policies: 323230003232300 Dirty RRIP Policies: 2323032023230320 PSEL Width: 10 Track Set: 4294967295 PSEL Mask: 1 Demote Mask: 1300414313004143DS Algo: 0Window size: 0
Off-chip DRAM Size: 4096 MB Channels: 1 Width: 64-bit Data Rate: 1600 MT/s

CPU 0 runs /mnt/beegfs/iconst01/spec2017/Gcc.trace.gz
NOT SORTED
TRACE STRING: /mnt/beegfs/iconst01/spec2017/Gcc.trace.gz
SORTED
TRACE STRING: /mnt/beegfs/iconst01/spec2017/Gcc.trace.gz
INITIAL
TRACE STRING: /mnt/beegfs/iconst01/spec2017/Gcc.trace.gz

champsim_seed used: 269

CPU 0 L1D next line prefetcher
CPU 0 L2C IP-based stride prefetcher
Initialize DRRIP state
Assign rand_sets[0]: 454  LLC: 2048
rand_sets[0]: 454
Assign rand_sets[1]: 1662  LLC: 2048
rand_sets[1]: 1662
Assign rand_sets[2]: 1921  LLC: 2048
rand_sets[2]: 1921
Assign rand_sets[3]: 1131  LLC: 2048
rand_sets[3]: 1131
Assign rand_sets[4]: 331  LLC: 2048
rand_sets[4]: 331
Assign rand_sets[5]: 1531  LLC: 2048
rand_sets[5]: 1531
Assign rand_sets[6]: 482  LLC: 2048
rand_sets[6]: 482
Assign rand_sets[7]: 1275  LLC: 2048
rand_sets[7]: 1275
Assign rand_sets[8]: 1876  LLC: 2048
rand_sets[8]: 1876
Assign rand_sets[9]: 2038  LLC: 2048
rand_sets[9]: 2038
Assign rand_sets[10]: 701  LLC: 2048
rand_sets[10]: 701
Assign rand_sets[11]: 479  LLC: 2048
rand_sets[11]: 479
Assign rand_sets[12]: 892  LLC: 2048
rand_sets[12]: 892
Assign rand_sets[13]: 1820  LLC: 2048
rand_sets[13]: 1820
Assign rand_sets[14]: 1505  LLC: 2048
rand_sets[14]: 1505
Assign rand_sets[15]: 1159  LLC: 2048
rand_sets[15]: 1159
Assign rand_sets[16]: 513  LLC: 2048
rand_sets[16]: 513
Assign rand_sets[17]: 703  LLC: 2048
rand_sets[17]: 703
Assign rand_sets[18]: 561  LLC: 2048
rand_sets[18]: 561
Assign rand_sets[19]: 990  LLC: 2048
rand_sets[19]: 990
Assign rand_sets[20]: 342  LLC: 2048
rand_sets[20]: 342
Assign rand_sets[21]: 882  LLC: 2048
rand_sets[21]: 882
Assign rand_sets[22]: 15  LLC: 2048
rand_sets[22]: 15
Assign rand_sets[23]: 71  LLC: 2048
rand_sets[23]: 71
Assign rand_sets[24]: 1127  LLC: 2048
rand_sets[24]: 1127
Assign rand_sets[25]: 1382  LLC: 2048
rand_sets[25]: 1382
Assign rand_sets[26]: 647  LLC: 2048
rand_sets[26]: 647
Assign rand_sets[27]: 857  LLC: 2048
rand_sets[27]: 857
Assign rand_sets[28]: 1450  LLC: 2048
rand_sets[28]: 1450
Assign rand_sets[29]: 1160  LLC: 2048
rand_sets[29]: 1160
Assign rand_sets[30]: 1852  LLC: 2048
rand_sets[30]: 1852
Assign rand_sets[31]: 1881  LLC: 2048
rand_sets[31]: 1881
Assign rand_sets[32]: 1770  LLC: 2048
rand_sets[32]: 1770
Assign rand_sets[33]: 1622  LLC: 2048
rand_sets[33]: 1622
Assign rand_sets[34]: 275  LLC: 2048
rand_sets[34]: 275
Assign rand_sets[35]: 635  LLC: 2048
rand_sets[35]: 635
Assign rand_sets[36]: 466  LLC: 2048
rand_sets[36]: 466
Assign rand_sets[37]: 1413  LLC: 2048
rand_sets[37]: 1413
Assign rand_sets[38]: 417  LLC: 2048
rand_sets[38]: 417
Assign rand_sets[39]: 472  LLC: 2048
rand_sets[39]: 472
Assign rand_sets[40]: 1340  LLC: 2048
rand_sets[40]: 1340
Assign rand_sets[41]: 852  LLC: 2048
rand_sets[41]: 852
Assign rand_sets[42]: 1365  LLC: 2048
rand_sets[42]: 1365
Assign rand_sets[43]: 47  LLC: 2048
rand_sets[43]: 47
Assign rand_sets[44]: 823  LLC: 2048
rand_sets[44]: 823
Assign rand_sets[45]: 686  LLC: 2048
rand_sets[45]: 686
Assign rand_sets[46]: 1637  LLC: 2048
rand_sets[46]: 1637
Assign rand_sets[47]: 1115  LLC: 2048
rand_sets[47]: 1115
Assign rand_sets[48]: 986  LLC: 2048
rand_sets[48]: 986
Assign rand_sets[49]: 258  LLC: 2048
rand_sets[49]: 258
Assign rand_sets[50]: 633  LLC: 2048
rand_sets[50]: 633
Assign rand_sets[51]: 920  LLC: 2048
rand_sets[51]: 920
Assign rand_sets[52]: 204  LLC: 2048
rand_sets[52]: 204
Assign rand_sets[53]: 227  LLC: 2048
rand_sets[53]: 227
Assign rand_sets[54]: 1818  LLC: 2048
rand_sets[54]: 1818
Assign rand_sets[55]: 886  LLC: 2048
rand_sets[55]: 886
Assign rand_sets[56]: 1422  LLC: 2048
rand_sets[56]: 1422
Assign rand_sets[57]: 607  LLC: 2048
rand_sets[57]: 607
Assign rand_sets[58]: 217  LLC: 2048
rand_sets[58]: 217
Assign rand_sets[59]: 1945  LLC: 2048
rand_sets[59]: 1945
Assign rand_sets[60]: 143  LLC: 2048
rand_sets[60]: 143
Assign rand_sets[61]: 1311  LLC: 2048
rand_sets[61]: 1311
Assign rand_sets[62]: 319  LLC: 2048
rand_sets[62]: 319
Assign rand_sets[63]: 1846  LLC: 2048
rand_sets[63]: 1846
 CLEAN-RRIP-POLICY-1: 0-3-2-3-2-3-0-0- CLEAN-RRIP-POLICY-2: 0-3-2-3-2-3-0-0-
 DIRTY-RRIP-POLICY-1: 2-3-2-3-0-3-2-0- DIRTY-RRIP-POLICY-2: 2-3-2-3-0-3-2-0-
 PSEL width: 10
Heartbeat CPU 0 instructions: 10000001 cycles: 7316033 heartbeat IPC: 1.36686 cumulative IPC: 1.36686 (Simulation time: 0 hr 0 min 15 sec) 
Heartbeat CPU 0 instructions: 20000000 cycles: 14307522 heartbeat IPC: 1.43031 cumulative IPC: 1.39787 (Simulation time: 0 hr 0 min 29 sec) 
Heartbeat CPU 0 instructions: 30000001 cycles: 21020467 heartbeat IPC: 1.48966 cumulative IPC: 1.42718 (Simulation time: 0 hr 0 min 46 sec) 
Heartbeat CPU 0 instructions: 40000000 cycles: 27481497 heartbeat IPC: 1.54774 cumulative IPC: 1.45552 (Simulation time: 0 hr 1 min 2 sec) 
Heartbeat CPU 0 instructions: 50000001 cycles: 33583080 heartbeat IPC: 1.63892 cumulative IPC: 1.48884 (Simulation time: 0 hr 1 min 17 sec) 
Heartbeat CPU 0 instructions: 60000000 cycles: 40064235 heartbeat IPC: 1.54293 cumulative IPC: 1.4976 (Simulation time: 0 hr 1 min 33 sec) 
Heartbeat CPU 0 instructions: 70000000 cycles: 47101101 heartbeat IPC: 1.42109 cumulative IPC: 1.48616 (Simulation time: 0 hr 1 min 48 sec) 
Heartbeat CPU 0 instructions: 80000000 cycles: 54190479 heartbeat IPC: 1.41056 cumulative IPC: 1.47627 (Simulation time: 0 hr 2 min 3 sec) 
Heartbeat CPU 0 instructions: 90000003 cycles: 61194652 heartbeat IPC: 1.42772 cumulative IPC: 1.47072 (Simulation time: 0 hr 2 min 18 sec) 
Heartbeat CPU 0 instructions: 100000000 cycles: 68361695 heartbeat IPC: 1.39528 cumulative IPC: 1.46281 (Simulation time: 0 hr 2 min 32 sec) 

Warmup complete CPU 0 instructions: 100000004 cycles: 68361696 (Simulation time: 0 hr 2 min 32 sec) 

Heartbeat CPU 0 instructions: 110000003 cycles: 96035641 heartbeat IPC: 0.361351 cumulative IPC: 0.361351 (Simulation time: 0 hr 3 min 1 sec) 
Heartbeat CPU 0 instructions: 120000000 cycles: 123630731 heartbeat IPC: 0.362383 cumulative IPC: 0.361866 (Simulation time: 0 hr 3 min 30 sec) 
Heartbeat CPU 0 instructions: 130000000 cycles: 148686252 heartbeat IPC: 0.399114 cumulative IPC: 0.373485 (Simulation time: 0 hr 3 min 59 sec) 
Heartbeat CPU 0 instructions: 140000000 cycles: 178108279 heartbeat IPC: 0.339881 cumulative IPC: 0.364476 (Simulation time: 0 hr 4 min 28 sec) 
Heartbeat CPU 0 instructions: 150000000 cycles: 207978912 heartbeat IPC: 0.334777 cumulative IPC: 0.358122 (Simulation time: 0 hr 4 min 57 sec) 
Heartbeat CPU 0 instructions: 160000000 cycles: 235397699 heartbeat IPC: 0.364713 cumulative IPC: 0.359204 (Simulation time: 0 hr 5 min 25 sec) 
Heartbeat CPU 0 instructions: 170000001 cycles: 263476528 heartbeat IPC: 0.35614 cumulative IPC: 0.358763 (Simulation time: 0 hr 5 min 55 sec) 
Heartbeat CPU 0 instructions: 180000000 cycles: 291947733 heartbeat IPC: 0.351232 cumulative IPC: 0.357804 (Simulation time: 0 hr 6 min 25 sec) 
Heartbeat CPU 0 instructions: 190000002 cycles: 319956813 heartbeat IPC: 0.357027 cumulative IPC: 0.357718 (Simulation time: 0 hr 6 min 54 sec) 
Heartbeat CPU 0 instructions: 200000000 cycles: 348312331 heartbeat IPC: 0.352665 cumulative IPC: 0.357206 (Simulation time: 0 hr 7 min 24 sec) 
Heartbeat CPU 0 instructions: 210000002 cycles: 376153918 heartbeat IPC: 0.359175 cumulative IPC: 0.357384 (Simulation time: 0 hr 7 min 53 sec) 
Heartbeat CPU 0 instructions: 220000000 cycles: 405217051 heartbeat IPC: 0.344078 cumulative IPC: 0.356236 (Simulation time: 0 hr 8 min 21 sec) 
Heartbeat CPU 0 instructions: 230000000 cycles: 432816827 heartbeat IPC: 0.362322 cumulative IPC: 0.356697 (Simulation time: 0 hr 8 min 49 sec) 
Heartbeat CPU 0 instructions: 240000000 cycles: 458973704 heartbeat IPC: 0.382309 cumulative IPC: 0.358412 (Simulation time: 0 hr 9 min 16 sec) 
Heartbeat CPU 0 instructions: 250000000 cycles: 489266503 heartbeat IPC: 0.330111 cumulative IPC: 0.356375 (Simulation time: 0 hr 9 min 47 sec) 
Heartbeat CPU 0 instructions: 260000000 cycles: 516464637 heartbeat IPC: 0.367672 cumulative IPC: 0.357061 (Simulation time: 0 hr 10 min 15 sec) 
Heartbeat CPU 0 instructions: 270000003 cycles: 544908530 heartbeat IPC: 0.351569 cumulative IPC: 0.356733 (Simulation time: 0 hr 10 min 45 sec) 
Heartbeat CPU 0 instructions: 280000000 cycles: 573147697 heartbeat IPC: 0.354118 cumulative IPC: 0.356587 (Simulation time: 0 hr 11 min 15 sec) 
Heartbeat CPU 0 instructions: 290000000 cycles: 602034593 heartbeat IPC: 0.346178 cumulative IPC: 0.356023 (Simulation time: 0 hr 11 min 46 sec) 
Heartbeat CPU 0 instructions: 300000000 cycles: 631869568 heartbeat IPC: 0.335177 cumulative IPC: 0.35492 (Simulation time: 0 hr 12 min 14 sec) 
Heartbeat CPU 0 instructions: 310000001 cycles: 661266486 heartbeat IPC: 0.340172 cumulative IPC: 0.354188 (Simulation time: 0 hr 12 min 43 sec) 
Heartbeat CPU 0 instructions: 320000000 cycles: 689441182 heartbeat IPC: 0.354928 cumulative IPC: 0.354222 (Simulation time: 0 hr 13 min 12 sec) 
Heartbeat CPU 0 instructions: 330000000 cycles: 718059720 heartbeat IPC: 0.349424 cumulative IPC: 0.354011 (Simulation time: 0 hr 13 min 40 sec) 
Heartbeat CPU 0 instructions: 340000000 cycles: 747372466 heartbeat IPC: 0.341149 cumulative IPC: 0.353455 (Simulation time: 0 hr 14 min 9 sec) 
Heartbeat CPU 0 instructions: 350000003 cycles: 774362160 heartbeat IPC: 0.370512 cumulative IPC: 0.354107 (Simulation time: 0 hr 14 min 38 sec) 
Heartbeat CPU 0 instructions: 360000000 cycles: 802530028 heartbeat IPC: 0.355014 cumulative IPC: 0.354142 (Simulation time: 0 hr 15 min 5 sec) 
Heartbeat CPU 0 instructions: 370000000 cycles: 830809278 heartbeat IPC: 0.353616 cumulative IPC: 0.354123 (Simulation time: 0 hr 15 min 33 sec) 
Heartbeat CPU 0 instructions: 380000000 cycles: 859405468 heartbeat IPC: 0.349697 cumulative IPC: 0.353963 (Simulation time: 0 hr 16 min 1 sec) 
Heartbeat CPU 0 instructions: 390000001 cycles: 887086870 heartbeat IPC: 0.361253 cumulative IPC: 0.354209 (Simulation time: 0 hr 16 min 28 sec) 
Heartbeat CPU 0 instructions: 400000000 cycles: 915777276 heartbeat IPC: 0.348549 cumulative IPC: 0.354018 (Simulation time: 0 hr 16 min 56 sec) 
Heartbeat CPU 0 instructions: 410000001 cycles: 943159627 heartbeat IPC: 0.365199 cumulative IPC: 0.354368 (Simulation time: 0 hr 17 min 24 sec) 
Heartbeat CPU 0 instructions: 420000000 cycles: 970550752 heartbeat IPC: 0.365082 cumulative IPC: 0.354693 (Simulation time: 0 hr 17 min 51 sec) 
Heartbeat CPU 0 instructions: 430000002 cycles: 998305714 heartbeat IPC: 0.360296 cumulative IPC: 0.35486 (Simulation time: 0 hr 18 min 19 sec) 
Heartbeat CPU 0 instructions: 440000000 cycles: 1027828393 heartbeat IPC: 0.338723 cumulative IPC: 0.354364 (Simulation time: 0 hr 18 min 47 sec) 
Heartbeat CPU 0 instructions: 450000002 cycles: 1057106608 heartbeat IPC: 0.341551 cumulative IPC: 0.353984 (Simulation time: 0 hr 19 min 15 sec) 
Heartbeat CPU 0 instructions: 460000000 cycles: 1084863900 heartbeat IPC: 0.360266 cumulative IPC: 0.354156 (Simulation time: 0 hr 19 min 42 sec) 
Heartbeat CPU 0 instructions: 470000000 cycles: 1112567857 heartbeat IPC: 0.360959 cumulative IPC: 0.354336 (Simulation time: 0 hr 20 min 9 sec) 
Heartbeat CPU 0 instructions: 480000000 cycles: 1140513080 heartbeat IPC: 0.357843 cumulative IPC: 0.354428 (Simulation time: 0 hr 20 min 36 sec) 
Heartbeat CPU 0 instructions: 490000000 cycles: 1168171485 heartbeat IPC: 0.361554 cumulative IPC: 0.354607 (Simulation time: 0 hr 21 min 3 sec) 
Heartbeat CPU 0 instructions: 500000000 cycles: 1196483183 heartbeat IPC: 0.353211 cumulative IPC: 0.354572 (Simulation time: 0 hr 21 min 31 sec) 
Heartbeat CPU 0 instructions: 510000000 cycles: 1231795096 heartbeat IPC: 0.283191 cumulative IPC: 0.352405 (Simulation time: 0 hr 22 min 1 sec) 
Heartbeat CPU 0 instructions: 520000000 cycles: 1259742092 heartbeat IPC: 0.35782 cumulative IPC: 0.352532 (Simulation time: 0 hr 22 min 29 sec) 
Heartbeat CPU 0 instructions: 530000001 cycles: 1289273941 heartbeat IPC: 0.338618 cumulative IPC: 0.352196 (Simulation time: 0 hr 22 min 58 sec) 
Heartbeat CPU 0 instructions: 540000000 cycles: 1317497354 heartbeat IPC: 0.354316 cumulative IPC: 0.352244 (Simulation time: 0 hr 23 min 26 sec) 
Heartbeat CPU 0 instructions: 550000001 cycles: 1346948725 heartbeat IPC: 0.339543 cumulative IPC: 0.351951 (Simulation time: 0 hr 23 min 55 sec) 
Heartbeat CPU 0 instructions: 560000000 cycles: 1372513792 heartbeat IPC: 0.391159 cumulative IPC: 0.35272 (Simulation time: 0 hr 24 min 23 sec) 
Heartbeat CPU 0 instructions: 570000000 cycles: 1402132250 heartbeat IPC: 0.337627 cumulative IPC: 0.352384 (Simulation time: 0 hr 24 min 51 sec) 
Heartbeat CPU 0 instructions: 580000000 cycles: 1430304247 heartbeat IPC: 0.354962 cumulative IPC: 0.352438 (Simulation time: 0 hr 25 min 20 sec) 
Heartbeat CPU 0 instructions: 590000001 cycles: 1455445048 heartbeat IPC: 0.39776 cumulative IPC: 0.353259 (Simulation time: 0 hr 25 min 46 sec) 
Heartbeat CPU 0 instructions: 600000000 cycles: 1482070484 heartbeat IPC: 0.375581 cumulative IPC: 0.35368 (Simulation time: 0 hr 26 min 14 sec) 
Finished CPU 0 instructions: 500000000 cycles: 1413708810 cumulative IPC: 0.35368 (Simulation time: 0 hr 26 min 14 sec) 

CPU 0 Branch Prediction Accuracy: 86.4311% MPKI: 26.2662
Number of Branches: 96788573 Number of Mispredictions: 13133102
Number of LOAD Instructions: 164682285
Number of LOAD Instructions (ROI): 164682285
Number of STORE Instructions: 78194750
Number of STORE Instructions (ROI): 78194750
Total Destination Memory Operands: 83268534
Total Destination Memory Operands (ROI): 83268534
Total Source Memory Operands: 164712438
Total Source Memory Operands (ROI): 164712438
Number of DEPENDED LOADS: 7076411
Number of DEPENDED LOADS (ROI): 7076411
Number of SQ_ADDED: 83268522
Number of SQ_ADDED (ROI): 83268522
Number of LQ_ADDED: 236961393
Number of LQ_ADDED (ROI): 236961393
Number of Instructions read from trace: 600000066

ChampSim completed all CPUs

Region of Interest Statistics

CPU 0 cumulative IPC: 0.35368 instructions: 500000000 cycles: 1413708810
ITLB TOTAL     ACCESS:  100497035  HIT:  100292589  MISS:     204446
ITLB LOAD      ACCESS:  100497035  HIT:  100292589  MISS:     204446
ITLB RFO       ACCESS:          0  HIT:          0  MISS:          0
ITLB PREFETCH  ACCESS:          0  HIT:          0  MISS:          0
ITLB WRITEBACK ACCESS:          0  HIT:          0  MISS:          0
ITLB PREFETCH  REQUESTED:          0  ISSUED:          0  USEFUL:          0  USELESS:          0
ITLB TOTAL MSHR MERGED:     172423
ITLB LOAD MSHR MERGED:     172423
ITLB RFO MSHR MERGED:          0
ITLB PREFETCH MSHR MERGED:          0
ITLB WRITEBACK MSHR MERGED:          0
ITLB TOTAL ACCESSES:  100669458 HITS:  100292589 MISSES:     376869
ITLB LOAD ACCESSES:  100669458 HITS:  100292589 MISSES:     376869
ITLB RFO ACCESSES:          0 HITS:          0 MISSES:          0
ITLB PREFETCH ACCESSES:          0 HITS:          0 MISSES:          0
ITLB WRITEBACK ACCESSES:          0 HITS:          0 MISSES:          0
ITLB RQ ACCESS:  500000057
ITLB RQ TO_CACHE:  100669458
ITLB RQ MERGED:  399330599
ITLB RQ FORWARD:          0
ITLB WQ ACCESS:          0
ITLB WQ TO_CACHE:          0
ITLB WQ MERGED:          0
ITLB WQ FORWARD:          0
DTLB TOTAL     ACCESS:  165320175  HIT:  164685822  MISS:     634353
DTLB LOAD      ACCESS:  106278307  HIT:  105708285  MISS:     570022
DTLB RFO       ACCESS:   59041868  HIT:   58977537  MISS:      64331
DTLB PREFETCH  ACCESS:          0  HIT:          0  MISS:          0
DTLB WRITEBACK ACCESS:          0  HIT:          0  MISS:          0
DTLB PREFETCH  REQUESTED:          0  ISSUED:          0  USEFUL:          0  USELESS:          0
DTLB TOTAL MSHR MERGED:      99834
DTLB LOAD MSHR MERGED:      59446
DTLB RFO MSHR MERGED:      40388
DTLB PREFETCH MSHR MERGED:          0
DTLB WRITEBACK MSHR MERGED:          0
DTLB TOTAL ACCESSES:  165420009 HITS:  164685822 MISSES:     734187
DTLB LOAD ACCESSES:  106337753 HITS:  105708285 MISSES:     629468
DTLB RFO ACCESSES:   59082256 HITS:   58977537 MISSES:     104719
DTLB PREFETCH ACCESSES:          0 HITS:          0 MISSES:          0
DTLB WRITEBACK ACCESSES:          0 HITS:          0 MISSES:          0
DTLB RQ ACCESS:  200294596
DTLB RQ TO_CACHE:  165420009
DTLB RQ MERGED:   34874587
DTLB RQ FORWARD:          0
DTLB WQ ACCESS:          0
DTLB WQ TO_CACHE:          0
DTLB WQ MERGED:          0
DTLB WQ FORWARD:          0
L1D TOTAL     ACCESS:  281676299  HIT:  273767207  MISS:    7909092
L1D LOAD      ACCESS:  110388674  HIT:  107101820  MISS:    3286854
L1D RFO       ACCESS:   67069261  HIT:   66176133  MISS:     893128
L1D PREFETCH  ACCESS:  104218364  HIT:  100489254  MISS:    3729110
L1D WRITEBACK ACCESS:          0  HIT:          0  MISS:          0
L1D PREFETCH  REQUESTED:  110803944  ISSUED:  109104749  USEFUL:    1650205  USELESS:    2078869
L1D TOTAL MSHR MERGED:    3003141
L1D LOAD MSHR MERGED:     521759
L1D RFO MSHR MERGED:    1918635
L1D PREFETCH MSHR MERGED:     562747
L1D WRITEBACK MSHR MERGED:          0
L1D TOTAL ACCESSES:  284707237 HITS:  273795004 MISSES:   10912233
L1D LOAD ACCESSES:  110805729 HITS:  107103605 MISSES:    3702124
L1D RFO ACCESSES:   68973540 HITS:   66176133 MISSES:    2797407
L1D PREFETCH ACCESSES:  104927968 HITS:  100515266 MISSES:    4412702
L1D WRITEBACK ACCESSES:          0 HITS:          0 MISSES:          0
L1D RQ ACCESS:  130741993
L1D RQ TO_CACHE:  110803947
L1D RQ MERGED:   19936261
L1D RQ FORWARD:          0
L1D WQ ACCESS:   69552603
L1D WQ TO_CACHE:   68973541
L1D WQ MERGED:     579062
L1D WQ FORWARD:      27797
L1I TOTAL     ACCESS:  126543700  HIT:  122305148  MISS:    4238552
L1I LOAD      ACCESS:  126543700  HIT:  122305148  MISS:    4238552
L1I RFO       ACCESS:          0  HIT:          0  MISS:          0
L1I PREFETCH  ACCESS:          0  HIT:          0  MISS:          0
L1I WRITEBACK ACCESS:          0  HIT:          0  MISS:          0
L1I PREFETCH  REQUESTED:          0  ISSUED:          0  USEFUL:          0  USELESS:          0
L1I TOTAL MSHR MERGED:    1834381
L1I LOAD MSHR MERGED:    1834381
L1I RFO MSHR MERGED:          0
L1I PREFETCH MSHR MERGED:          0
L1I WRITEBACK MSHR MERGED:          0
L1I TOTAL ACCESSES:  128378084 HITS:  122305148 MISSES:    6072936
L1I LOAD ACCESSES:  128378084 HITS:  122305148 MISSES:    6072936
L1I RFO ACCESSES:          0 HITS:          0 MISSES:          0
L1I PREFETCH ACCESSES:          0 HITS:          0 MISSES:          0
L1I WRITEBACK ACCESSES:          0 HITS:          0 MISSES:          0
L1I RQ ACCESS:  500000057
L1I RQ TO_CACHE:  128378084
L1I RQ MERGED:  371621973
L1I RQ FORWARD:          0
L1I WQ ACCESS:          0
L1I WQ TO_CACHE:          0
L1I WQ MERGED:          0
L1I WQ FORWARD:          0
L2C TOTAL     ACCESS:   14900867  HIT:   11154446  MISS:    3746421
L2C LOAD      ACCESS:    7418712  HIT:    5097671  MISS:    2321041
L2C RFO       ACCESS:     878676  HIT:     409886  MISS:     468790
L2C PREFETCH  ACCESS:    4564301  HIT:    3624967  MISS:     939334
L2C WRITEBACK ACCESS:    2039178  HIT:    2021922  MISS:      17256
L2C PREFETCH  REQUESTED:     842130  ISSUED:     842130  USEFUL:     202297  USELESS:     736742
L2C TOTAL MSHR MERGED:      10679
L2C LOAD MSHR MERGED:       1828
L2C RFO MSHR MERGED:          0
L2C PREFETCH MSHR MERGED:       8851
L2C WRITEBACK MSHR MERGED:          0
L2C TOTAL ACCESSES:   14912536 HITS:   11154888 MISSES:    3757648
L2C LOAD ACCESSES:    7418917 HITS:    5097876 MISSES:    2321041
L2C RFO ACCESSES:     878772 HITS:     409982 MISSES:     468790
L2C PREFETCH ACCESSES:    4575669 HITS:    3625108 MISSES:     950561
L2C WRITEBACK ACCESSES:    2039178 HITS:    2021922 MISSES:      17256
L2C RQ ACCESS:    8297692
L2C RQ TO_CACHE:    8297391
L2C RQ MERGED:          0
L2C RQ FORWARD:          0
L2C WQ ACCESS:    2039178
L2C WQ TO_CACHE:    2039178
L2C WQ MERGED:          0
L2C WQ FORWARD:        442
LLC TOTAL     ACCESS:    4609824  HIT:    3566997  MISS:    1042827
LLC LOAD      ACCESS:    2319201  HIT:    2074598  MISS:     244603
LLC RFO       ACCESS:     468780  HIT:     311066  MISS:     157714
LLC PREFETCH  ACCESS:     941559  HIT:     485929  MISS:     455630
LLC WRITEBACK ACCESS:     880284  HIT:     695404  MISS:     184880
LLC PREFETCH  REQUESTED:          0  ISSUED:          0  USEFUL:      17797  USELESS:     438517
LLC TOTAL MSHR MERGED:        131
LLC LOAD MSHR MERGED:         47
LLC RFO MSHR MERGED:          0
LLC PREFETCH MSHR MERGED:         84
LLC WRITEBACK MSHR MERGED:          0
LLC TOTAL ACCESSES:    4609987 HITS:    3567029 MISSES:    1042958
LLC LOAD ACCESSES:    2319213 HITS:    2074610 MISSES:     244603
LLC RFO ACCESSES:     468790 HITS:     311076 MISSES:     157714
LLC PREFETCH ACCESSES:     941700 HITS:     485939 MISSES:     455761
LLC WRITEBACK ACCESSES:     880284 HITS:     695404 MISSES:     184880
LLC 0 RQ ACCESS:    2788003
LLC 0 RQ TO_CACHE:    2787981
LLC 0 RQ MERGED:          0
LLC 0 RQ FORWARD:          0
LLC WQ ACCESS:     880284
LLC WQ TO_CACHE:     880284
LLC WQ MERGED:          0
LLC WQ FORWARD:         32
Major fault: 0 Minor fault: 12862
CPU 0 L1D next line prefetcher final stats
CPU 0 L2C PC-based stride prefetcher final stats
All Misses: 1232672
All Hits: 4194164
SD Algo Stats - Switches: 0 SRR-Repls: 280907 BRR-Repls: 0

DRAM Statistics
 CHANNEL 0
 RQ ROW_BUFFER_HIT:     181513  ROW_BUFFER_MISS:     671216
 DBUS_CONGESTED:     586072
 WQ ROW_BUFFER_HIT:      46282  ROW_BUFFER_MISS:     338402  FULL:          0

 AVG_CONGESTED_CYCLE: 13
LOADS RETIRED: 136549171
INSTR RETIRED: 500000000
