
*** ChampSim Multicore Out-of-Order Simulator ***

Warmup Instructions: 100000000
Simulation Instructions: 500000000
Number of CPUs: 1
LLC sets: 2048
LLC ways: 16
Clean RRIP Policies: 2213230222132302 Dirty RRIP Policies: 1203130212031302 PSEL Width: 10 Track Set: 4294967295 PSEL Mask: 1 Demote Mask: 1240100012401000DS Algo: 0Window size: 0
Off-chip DRAM Size: 4096 MB Channels: 1 Width: 64-bit Data Rate: 1600 MT/s

CPU 0 runs /mnt/beegfs/iconst01/spec2017/Omnetpp.trace.gz
NOT SORTED
TRACE STRING: /mnt/beegfs/iconst01/spec2017/Omnetpp.trace.gz
SORTED
TRACE STRING: /mnt/beegfs/iconst01/spec2017/Omnetpp.trace.gz
INITIAL
TRACE STRING: /mnt/beegfs/iconst01/spec2017/Omnetpp.trace.gz

champsim_seed used: 739

CPU 0 L1D next line prefetcher
CPU 0 L2C IP-based stride prefetcher
Initialize DRRIP state
Assign rand_sets[0]: 454  LLC: 2048
rand_sets[0]: 454
Assign rand_sets[1]: 1662  LLC: 2048
rand_sets[1]: 1662
Assign rand_sets[2]: 1921  LLC: 2048
rand_sets[2]: 1921
Assign rand_sets[3]: 1131  LLC: 2048
rand_sets[3]: 1131
Assign rand_sets[4]: 331  LLC: 2048
rand_sets[4]: 331
Assign rand_sets[5]: 1531  LLC: 2048
rand_sets[5]: 1531
Assign rand_sets[6]: 482  LLC: 2048
rand_sets[6]: 482
Assign rand_sets[7]: 1275  LLC: 2048
rand_sets[7]: 1275
Assign rand_sets[8]: 1876  LLC: 2048
rand_sets[8]: 1876
Assign rand_sets[9]: 2038  LLC: 2048
rand_sets[9]: 2038
Assign rand_sets[10]: 701  LLC: 2048
rand_sets[10]: 701
Assign rand_sets[11]: 479  LLC: 2048
rand_sets[11]: 479
Assign rand_sets[12]: 892  LLC: 2048
rand_sets[12]: 892
Assign rand_sets[13]: 1820  LLC: 2048
rand_sets[13]: 1820
Assign rand_sets[14]: 1505  LLC: 2048
rand_sets[14]: 1505
Assign rand_sets[15]: 1159  LLC: 2048
rand_sets[15]: 1159
Assign rand_sets[16]: 513  LLC: 2048
rand_sets[16]: 513
Assign rand_sets[17]: 703  LLC: 2048
rand_sets[17]: 703
Assign rand_sets[18]: 561  LLC: 2048
rand_sets[18]: 561
Assign rand_sets[19]: 990  LLC: 2048
rand_sets[19]: 990
Assign rand_sets[20]: 342  LLC: 2048
rand_sets[20]: 342
Assign rand_sets[21]: 882  LLC: 2048
rand_sets[21]: 882
Assign rand_sets[22]: 15  LLC: 2048
rand_sets[22]: 15
Assign rand_sets[23]: 71  LLC: 2048
rand_sets[23]: 71
Assign rand_sets[24]: 1127  LLC: 2048
rand_sets[24]: 1127
Assign rand_sets[25]: 1382  LLC: 2048
rand_sets[25]: 1382
Assign rand_sets[26]: 647  LLC: 2048
rand_sets[26]: 647
Assign rand_sets[27]: 857  LLC: 2048
rand_sets[27]: 857
Assign rand_sets[28]: 1450  LLC: 2048
rand_sets[28]: 1450
Assign rand_sets[29]: 1160  LLC: 2048
rand_sets[29]: 1160
Assign rand_sets[30]: 1852  LLC: 2048
rand_sets[30]: 1852
Assign rand_sets[31]: 1881  LLC: 2048
rand_sets[31]: 1881
Assign rand_sets[32]: 1770  LLC: 2048
rand_sets[32]: 1770
Assign rand_sets[33]: 1622  LLC: 2048
rand_sets[33]: 1622
Assign rand_sets[34]: 275  LLC: 2048
rand_sets[34]: 275
Assign rand_sets[35]: 635  LLC: 2048
rand_sets[35]: 635
Assign rand_sets[36]: 466  LLC: 2048
rand_sets[36]: 466
Assign rand_sets[37]: 1413  LLC: 2048
rand_sets[37]: 1413
Assign rand_sets[38]: 417  LLC: 2048
rand_sets[38]: 417
Assign rand_sets[39]: 472  LLC: 2048
rand_sets[39]: 472
Assign rand_sets[40]: 1340  LLC: 2048
rand_sets[40]: 1340
Assign rand_sets[41]: 852  LLC: 2048
rand_sets[41]: 852
Assign rand_sets[42]: 1365  LLC: 2048
rand_sets[42]: 1365
Assign rand_sets[43]: 47  LLC: 2048
rand_sets[43]: 47
Assign rand_sets[44]: 823  LLC: 2048
rand_sets[44]: 823
Assign rand_sets[45]: 686  LLC: 2048
rand_sets[45]: 686
Assign rand_sets[46]: 1637  LLC: 2048
rand_sets[46]: 1637
Assign rand_sets[47]: 1115  LLC: 2048
rand_sets[47]: 1115
Assign rand_sets[48]: 986  LLC: 2048
rand_sets[48]: 986
Assign rand_sets[49]: 258  LLC: 2048
rand_sets[49]: 258
Assign rand_sets[50]: 633  LLC: 2048
rand_sets[50]: 633
Assign rand_sets[51]: 920  LLC: 2048
rand_sets[51]: 920
Assign rand_sets[52]: 204  LLC: 2048
rand_sets[52]: 204
Assign rand_sets[53]: 227  LLC: 2048
rand_sets[53]: 227
Assign rand_sets[54]: 1818  LLC: 2048
rand_sets[54]: 1818
Assign rand_sets[55]: 886  LLC: 2048
rand_sets[55]: 886
Assign rand_sets[56]: 1422  LLC: 2048
rand_sets[56]: 1422
Assign rand_sets[57]: 607  LLC: 2048
rand_sets[57]: 607
Assign rand_sets[58]: 217  LLC: 2048
rand_sets[58]: 217
Assign rand_sets[59]: 1945  LLC: 2048
rand_sets[59]: 1945
Assign rand_sets[60]: 143  LLC: 2048
rand_sets[60]: 143
Assign rand_sets[61]: 1311  LLC: 2048
rand_sets[61]: 1311
Assign rand_sets[62]: 319  LLC: 2048
rand_sets[62]: 319
Assign rand_sets[63]: 1846  LLC: 2048
rand_sets[63]: 1846
 CLEAN-RRIP-POLICY-1: 2-2-1-3-2-3-0-2- CLEAN-RRIP-POLICY-2: 2-2-1-3-2-3-0-2-
 DIRTY-RRIP-POLICY-1: 1-2-0-3-1-3-0-2- DIRTY-RRIP-POLICY-2: 1-2-0-3-1-3-0-2-
 PSEL width: 10
Heartbeat CPU 0 instructions: 10000000 cycles: 7319969 heartbeat IPC: 1.36613 cumulative IPC: 1.36613 (Simulation time: 0 hr 0 min 19 sec) 
Heartbeat CPU 0 instructions: 20000000 cycles: 14623692 heartbeat IPC: 1.36916 cumulative IPC: 1.36764 (Simulation time: 0 hr 0 min 39 sec) 
Heartbeat CPU 0 instructions: 30000003 cycles: 21924979 heartbeat IPC: 1.36962 cumulative IPC: 1.3683 (Simulation time: 0 hr 0 min 59 sec) 
Heartbeat CPU 0 instructions: 40000000 cycles: 29213233 heartbeat IPC: 1.37207 cumulative IPC: 1.36924 (Simulation time: 0 hr 1 min 19 sec) 
Heartbeat CPU 0 instructions: 50000000 cycles: 36489464 heartbeat IPC: 1.37434 cumulative IPC: 1.37026 (Simulation time: 0 hr 1 min 39 sec) 
Heartbeat CPU 0 instructions: 60000000 cycles: 43769400 heartbeat IPC: 1.37364 cumulative IPC: 1.37082 (Simulation time: 0 hr 1 min 59 sec) 
Heartbeat CPU 0 instructions: 70000001 cycles: 51054575 heartbeat IPC: 1.37265 cumulative IPC: 1.37108 (Simulation time: 0 hr 2 min 19 sec) 
Heartbeat CPU 0 instructions: 80000000 cycles: 58329505 heartbeat IPC: 1.37458 cumulative IPC: 1.37152 (Simulation time: 0 hr 2 min 39 sec) 
Heartbeat CPU 0 instructions: 90000000 cycles: 65635831 heartbeat IPC: 1.36868 cumulative IPC: 1.3712 (Simulation time: 0 hr 2 min 59 sec) 
Heartbeat CPU 0 instructions: 100000000 cycles: 72927724 heartbeat IPC: 1.37139 cumulative IPC: 1.37122 (Simulation time: 0 hr 3 min 18 sec) 

Warmup complete CPU 0 instructions: 100000002 cycles: 72927725 (Simulation time: 0 hr 3 min 18 sec) 

Heartbeat CPU 0 instructions: 110000002 cycles: 113495927 heartbeat IPC: 0.246499 cumulative IPC: 0.246498 (Simulation time: 0 hr 3 min 58 sec) 
Heartbeat CPU 0 instructions: 120000000 cycles: 153748280 heartbeat IPC: 0.248433 cumulative IPC: 0.247462 (Simulation time: 0 hr 4 min 38 sec) 
Heartbeat CPU 0 instructions: 130000002 cycles: 194233250 heartbeat IPC: 0.247005 cumulative IPC: 0.247309 (Simulation time: 0 hr 5 min 18 sec) 
Heartbeat CPU 0 instructions: 140000000 cycles: 234834884 heartbeat IPC: 0.246295 cumulative IPC: 0.247055 (Simulation time: 0 hr 5 min 58 sec) 
Heartbeat CPU 0 instructions: 150000002 cycles: 275003694 heartbeat IPC: 0.248949 cumulative IPC: 0.247432 (Simulation time: 0 hr 6 min 38 sec) 
Heartbeat CPU 0 instructions: 160000000 cycles: 315182437 heartbeat IPC: 0.248888 cumulative IPC: 0.247673 (Simulation time: 0 hr 7 min 18 sec) 
Heartbeat CPU 0 instructions: 170000001 cycles: 354612427 heartbeat IPC: 0.253614 cumulative IPC: 0.248505 (Simulation time: 0 hr 7 min 57 sec) 
Heartbeat CPU 0 instructions: 180000000 cycles: 394765460 heartbeat IPC: 0.249047 cumulative IPC: 0.248572 (Simulation time: 0 hr 8 min 37 sec) 
Heartbeat CPU 0 instructions: 190000002 cycles: 434905237 heartbeat IPC: 0.249129 cumulative IPC: 0.248634 (Simulation time: 0 hr 9 min 17 sec) 
Heartbeat CPU 0 instructions: 200000000 cycles: 476313749 heartbeat IPC: 0.241496 cumulative IPC: 0.247901 (Simulation time: 0 hr 9 min 57 sec) 
Heartbeat CPU 0 instructions: 210000003 cycles: 516518319 heartbeat IPC: 0.248728 cumulative IPC: 0.247976 (Simulation time: 0 hr 10 min 37 sec) 
Heartbeat CPU 0 instructions: 220000000 cycles: 556942860 heartbeat IPC: 0.247374 cumulative IPC: 0.247926 (Simulation time: 0 hr 11 min 16 sec) 
Heartbeat CPU 0 instructions: 230000000 cycles: 597317862 heartbeat IPC: 0.247678 cumulative IPC: 0.247907 (Simulation time: 0 hr 11 min 56 sec) 
Heartbeat CPU 0 instructions: 240000000 cycles: 637417933 heartbeat IPC: 0.249376 cumulative IPC: 0.248011 (Simulation time: 0 hr 12 min 36 sec) 
Heartbeat CPU 0 instructions: 250000000 cycles: 677559182 heartbeat IPC: 0.24912 cumulative IPC: 0.248085 (Simulation time: 0 hr 13 min 16 sec) 
Heartbeat CPU 0 instructions: 260000000 cycles: 717831927 heartbeat IPC: 0.248307 cumulative IPC: 0.248099 (Simulation time: 0 hr 13 min 56 sec) 
Heartbeat CPU 0 instructions: 270000000 cycles: 758176441 heartbeat IPC: 0.247865 cumulative IPC: 0.248085 (Simulation time: 0 hr 14 min 36 sec) 
Heartbeat CPU 0 instructions: 280000000 cycles: 798895494 heartbeat IPC: 0.245585 cumulative IPC: 0.247945 (Simulation time: 0 hr 15 min 16 sec) 
Heartbeat CPU 0 instructions: 290000001 cycles: 838815171 heartbeat IPC: 0.250503 cumulative IPC: 0.248078 (Simulation time: 0 hr 15 min 56 sec) 
Heartbeat CPU 0 instructions: 300000000 cycles: 879377266 heartbeat IPC: 0.246536 cumulative IPC: 0.248001 (Simulation time: 0 hr 16 min 36 sec) 
Heartbeat CPU 0 instructions: 310000000 cycles: 919892917 heartbeat IPC: 0.246818 cumulative IPC: 0.247944 (Simulation time: 0 hr 17 min 16 sec) 
Heartbeat CPU 0 instructions: 320000000 cycles: 960136059 heartbeat IPC: 0.24849 cumulative IPC: 0.247969 (Simulation time: 0 hr 17 min 56 sec) 
Heartbeat CPU 0 instructions: 330000000 cycles: 1000387026 heartbeat IPC: 0.248441 cumulative IPC: 0.247989 (Simulation time: 0 hr 18 min 36 sec) 
Heartbeat CPU 0 instructions: 340000000 cycles: 1041226842 heartbeat IPC: 0.244859 cumulative IPC: 0.247857 (Simulation time: 0 hr 19 min 16 sec) 
Heartbeat CPU 0 instructions: 350000001 cycles: 1081527001 heartbeat IPC: 0.248138 cumulative IPC: 0.247869 (Simulation time: 0 hr 19 min 55 sec) 
Heartbeat CPU 0 instructions: 360000000 cycles: 1122111945 heartbeat IPC: 0.246397 cumulative IPC: 0.247812 (Simulation time: 0 hr 20 min 35 sec) 
Heartbeat CPU 0 instructions: 370000000 cycles: 1161772700 heartbeat IPC: 0.252138 cumulative IPC: 0.247969 (Simulation time: 0 hr 21 min 14 sec) 
Heartbeat CPU 0 instructions: 380000000 cycles: 1202377231 heartbeat IPC: 0.246278 cumulative IPC: 0.247908 (Simulation time: 0 hr 21 min 54 sec) 
Heartbeat CPU 0 instructions: 390000001 cycles: 1242469930 heartbeat IPC: 0.249422 cumulative IPC: 0.24796 (Simulation time: 0 hr 22 min 33 sec) 
Heartbeat CPU 0 instructions: 400000000 cycles: 1282690514 heartbeat IPC: 0.248629 cumulative IPC: 0.247983 (Simulation time: 0 hr 23 min 13 sec) 
Heartbeat CPU 0 instructions: 410000000 cycles: 1322729863 heartbeat IPC: 0.249754 cumulative IPC: 0.248039 (Simulation time: 0 hr 23 min 53 sec) 
Heartbeat CPU 0 instructions: 420000000 cycles: 1362828929 heartbeat IPC: 0.249382 cumulative IPC: 0.248081 (Simulation time: 0 hr 24 min 33 sec) 
Heartbeat CPU 0 instructions: 430000000 cycles: 1402962627 heartbeat IPC: 0.249167 cumulative IPC: 0.248114 (Simulation time: 0 hr 25 min 12 sec) 
Heartbeat CPU 0 instructions: 440000000 cycles: 1443142581 heartbeat IPC: 0.24888 cumulative IPC: 0.248136 (Simulation time: 0 hr 25 min 52 sec) 
Heartbeat CPU 0 instructions: 450000002 cycles: 1483192182 heartbeat IPC: 0.24969 cumulative IPC: 0.24818 (Simulation time: 0 hr 26 min 32 sec) 
Heartbeat CPU 0 instructions: 460000000 cycles: 1522698660 heartbeat IPC: 0.253123 cumulative IPC: 0.248315 (Simulation time: 0 hr 27 min 12 sec) 
Heartbeat CPU 0 instructions: 470000000 cycles: 1563047348 heartbeat IPC: 0.24784 cumulative IPC: 0.248302 (Simulation time: 0 hr 27 min 52 sec) 
Heartbeat CPU 0 instructions: 480000000 cycles: 1603045743 heartbeat IPC: 0.25001 cumulative IPC: 0.248347 (Simulation time: 0 hr 28 min 32 sec) 
Heartbeat CPU 0 instructions: 490000001 cycles: 1643217911 heartbeat IPC: 0.248929 cumulative IPC: 0.248362 (Simulation time: 0 hr 29 min 12 sec) 
Heartbeat CPU 0 instructions: 500000000 cycles: 1683579867 heartbeat IPC: 0.247758 cumulative IPC: 0.248347 (Simulation time: 0 hr 29 min 51 sec) 
Heartbeat CPU 0 instructions: 510000000 cycles: 1723388836 heartbeat IPC: 0.2512 cumulative IPC: 0.248415 (Simulation time: 0 hr 30 min 30 sec) 
Heartbeat CPU 0 instructions: 520000000 cycles: 1763955516 heartbeat IPC: 0.246508 cumulative IPC: 0.24837 (Simulation time: 0 hr 31 min 10 sec) 
Heartbeat CPU 0 instructions: 530000000 cycles: 1803996761 heartbeat IPC: 0.249742 cumulative IPC: 0.248401 (Simulation time: 0 hr 31 min 49 sec) 
Heartbeat CPU 0 instructions: 540000000 cycles: 1843802494 heartbeat IPC: 0.25122 cumulative IPC: 0.248465 (Simulation time: 0 hr 32 min 28 sec) 
Heartbeat CPU 0 instructions: 550000001 cycles: 1884343351 heartbeat IPC: 0.246665 cumulative IPC: 0.248424 (Simulation time: 0 hr 33 min 8 sec) 
Heartbeat CPU 0 instructions: 560000000 cycles: 1924928198 heartbeat IPC: 0.246397 cumulative IPC: 0.24838 (Simulation time: 0 hr 33 min 48 sec) 
Heartbeat CPU 0 instructions: 570000003 cycles: 1965478878 heartbeat IPC: 0.246605 cumulative IPC: 0.248342 (Simulation time: 0 hr 34 min 27 sec) 
Heartbeat CPU 0 instructions: 580000000 cycles: 2005898414 heartbeat IPC: 0.247405 cumulative IPC: 0.248322 (Simulation time: 0 hr 35 min 7 sec) 
Heartbeat CPU 0 instructions: 590000001 cycles: 2046732708 heartbeat IPC: 0.244892 cumulative IPC: 0.248251 (Simulation time: 0 hr 35 min 47 sec) 
Heartbeat CPU 0 instructions: 600000000 cycles: 2087309336 heartbeat IPC: 0.246447 cumulative IPC: 0.248215 (Simulation time: 0 hr 36 min 26 sec) 
Finished CPU 0 instructions: 500000000 cycles: 2014381619 cumulative IPC: 0.248215 (Simulation time: 0 hr 36 min 26 sec) 

CPU 0 Branch Prediction Accuracy: 96.2429% MPKI: 5.85335
Number of Branches: 77897976 Number of Mispredictions: 2926674
Number of LOAD Instructions: 193081861
Number of LOAD Instructions (ROI): 193081861
Number of STORE Instructions: 97310749
Number of STORE Instructions (ROI): 97310749
Total Destination Memory Operands: 106368027
Total Destination Memory Operands (ROI): 106368027
Total Source Memory Operands: 193081861
Total Source Memory Operands (ROI): 193081861
Number of DEPENDED LOADS: 6432042
Number of DEPENDED LOADS (ROI): 6432042
Number of SQ_ADDED: 106367982
Number of SQ_ADDED (ROI): 106367982
Number of LQ_ADDED: 428954408
Number of LQ_ADDED (ROI): 428954408
Number of Instructions read from trace: 600000256

ChampSim completed all CPUs

Region of Interest Statistics

CPU 0 cumulative IPC: 0.248215 instructions: 500000000 cycles: 2014381619
ITLB TOTAL     ACCESS:  151306156  HIT:  151290325  MISS:      15831
ITLB LOAD      ACCESS:  151306156  HIT:  151290325  MISS:      15831
ITLB RFO       ACCESS:          0  HIT:          0  MISS:          0
ITLB PREFETCH  ACCESS:          0  HIT:          0  MISS:          0
ITLB WRITEBACK ACCESS:          0  HIT:          0  MISS:          0
ITLB PREFETCH  REQUESTED:          0  ISSUED:          0  USEFUL:          0  USELESS:          0
ITLB TOTAL MSHR MERGED:      17370
ITLB LOAD MSHR MERGED:      17370
ITLB RFO MSHR MERGED:          0
ITLB PREFETCH MSHR MERGED:          0
ITLB WRITEBACK MSHR MERGED:          0
ITLB TOTAL ACCESSES:  151323526 HITS:  151290325 MISSES:      33201
ITLB LOAD ACCESSES:  151323526 HITS:  151290325 MISSES:      33201
ITLB RFO ACCESSES:          0 HITS:          0 MISSES:          0
ITLB PREFETCH ACCESSES:          0 HITS:          0 MISSES:          0
ITLB WRITEBACK ACCESSES:          0 HITS:          0 MISSES:          0
ITLB RQ ACCESS:  500000242
ITLB RQ TO_CACHE:  151323526
ITLB RQ MERGED:  348676716
ITLB RQ FORWARD:          0
ITLB WQ ACCESS:          0
ITLB WQ TO_CACHE:          0
ITLB WQ MERGED:          0
ITLB WQ FORWARD:          0
DTLB TOTAL     ACCESS:  199571411  HIT:  194192349  MISS:    5379062
DTLB LOAD      ACCESS:  123146297  HIT:  118127723  MISS:    5018574
DTLB RFO       ACCESS:   76425114  HIT:   76064626  MISS:     360488
DTLB PREFETCH  ACCESS:          0  HIT:          0  MISS:          0
DTLB WRITEBACK ACCESS:          0  HIT:          0  MISS:          0
DTLB PREFETCH  REQUESTED:          0  ISSUED:          0  USEFUL:          0  USELESS:          0
DTLB TOTAL MSHR MERGED:     917706
DTLB LOAD MSHR MERGED:     807686
DTLB RFO MSHR MERGED:     110020
DTLB PREFETCH MSHR MERGED:          0
DTLB WRITEBACK MSHR MERGED:          0
DTLB TOTAL ACCESSES:  200489117 HITS:  194192349 MISSES:    6296768
DTLB LOAD ACCESSES:  123953983 HITS:  118127723 MISSES:    5826260
DTLB RFO ACCESSES:   76535134 HITS:   76064626 MISSES:     470508
DTLB PREFETCH ACCESSES:          0 HITS:          0 MISSES:          0
DTLB WRITEBACK ACCESSES:          0 HITS:          0 MISSES:          0
DTLB RQ ACCESS:  243893909
DTLB RQ TO_CACHE:  200489117
DTLB RQ MERGED:   43404792
DTLB RQ FORWARD:          0
DTLB WQ ACCESS:          0
DTLB WQ TO_CACHE:          0
DTLB WQ MERGED:          0
DTLB WQ FORWARD:          0
L1D TOTAL     ACCESS:  335648560  HIT:  317552410  MISS:   18096150
L1D LOAD      ACCESS:  127708109  HIT:  118764148  MISS:    8943961
L1D RFO       ACCESS:   87087109  HIT:   86309059  MISS:     778050
L1D PREFETCH  ACCESS:  120853342  HIT:  112479203  MISS:    8374139
L1D WRITEBACK ACCESS:          0  HIT:          0  MISS:          0
L1D PREFETCH  REQUESTED:  128486774  ISSUED:  126888806  USEFUL:    1742230  USELESS:    6631920
L1D TOTAL MSHR MERGED:    3825743
L1D LOAD MSHR MERGED:     943248
L1D RFO MSHR MERGED:    1054663
L1D PREFETCH MSHR MERGED:    1827832
L1D WRITEBACK MSHR MERGED:          0
L1D TOTAL ACCESSES:  339561785 HITS:  317639892 MISSES:   21921893
L1D LOAD ACCESSES:  128487208 HITS:  118764582 MISSES:    9722626
L1D RFO ACCESSES:   88083947 HITS:   86309059 MISSES:    1774888
L1D PREFETCH ACCESSES:  122990630 HITS:  112566251 MISSES:   10424379
L1D WRITEBACK ACCESSES:          0 HITS:          0 MISSES:          0
L1D RQ ACCESS:  155262524
L1D RQ TO_CACHE:  128486774
L1D RQ MERGED:   26775316
L1D RQ FORWARD:          0
L1D WQ ACCESS:   88631385
L1D WQ TO_CACHE:   88083946
L1D WQ MERGED:     547439
L1D WQ FORWARD:      87482
L1I TOTAL     ACCESS:  175606311  HIT:  175339854  MISS:     266457
L1I LOAD      ACCESS:  175606311  HIT:  175339854  MISS:     266457
L1I RFO       ACCESS:          0  HIT:          0  MISS:          0
L1I PREFETCH  ACCESS:          0  HIT:          0  MISS:          0
L1I WRITEBACK ACCESS:          0  HIT:          0  MISS:          0
L1I PREFETCH  REQUESTED:          0  ISSUED:          0  USEFUL:          0  USELESS:          0
L1I TOTAL MSHR MERGED:     213535
L1I LOAD MSHR MERGED:     213535
L1I RFO MSHR MERGED:          0
L1I PREFETCH MSHR MERGED:          0
L1I WRITEBACK MSHR MERGED:          0
L1I TOTAL ACCESSES:  175819846 HITS:  175339854 MISSES:     479992
L1I LOAD ACCESSES:  175819846 HITS:  175339854 MISSES:     479992
L1I RFO ACCESSES:          0 HITS:          0 MISSES:          0
L1I PREFETCH ACCESSES:          0 HITS:          0 MISSES:          0
L1I WRITEBACK ACCESSES:          0 HITS:          0 MISSES:          0
L1I RQ ACCESS:  500000242
L1I RQ TO_CACHE:  175819846
L1I RQ MERGED:  324180396
L1I RQ FORWARD:          0
L1I WQ ACCESS:          0
L1I WQ TO_CACHE:          0
L1I WQ MERGED:          0
L1I WQ FORWARD:          0
L2C TOTAL     ACCESS:   23738721  HIT:   12112939  MISS:   11625782
L2C LOAD      ACCESS:    9044664  HIT:    3565053  MISS:    5479611
L2C RFO       ACCESS:     720172  HIT:     130020  MISS:     590152
L2C PREFETCH  ACCESS:    8613540  HIT:    3086231  MISS:    5527309
L2C WRITEBACK ACCESS:    5360345  HIT:    5331635  MISS:      28710
L2C PREFETCH  REQUESTED:      18036  ISSUED:      18036  USEFUL:     322975  USELESS:    5204510
L2C TOTAL MSHR MERGED:         25
L2C LOAD MSHR MERGED:          3
L2C RFO MSHR MERGED:          0
L2C PREFETCH MSHR MERGED:         22
L2C WRITEBACK MSHR MERGED:          0
L2C TOTAL ACCESSES:   23740529 HITS:   12114716 MISSES:   11625813
L2C LOAD ACCESSES:    9045835 HITS:    3566224 MISSES:    5479611
L2C RFO ACCESSES:     720225 HITS:     130073 MISSES:     590152
L2C PREFETCH ACCESSES:    8614124 HITS:    3086784 MISSES:    5527340
L2C WRITEBACK ACCESSES:    5360345 HITS:    5331635 MISSES:      28710
L2C RQ ACCESS:    9766060
L2C RQ TO_CACHE:    9764836
L2C RQ MERGED:          0
L2C RQ FORWARD:          0
L2C WQ ACCESS:    5360345
L2C WQ TO_CACHE:    5360345
L2C WQ MERGED:          0
L2C WQ FORWARD:       1777
LLC TOTAL     ACCESS:   15448717  HIT:    6432866  MISS:    9015851
LLC LOAD      ACCESS:    5479578  HIT:    2013639  MISS:    3465939
LLC RFO       ACCESS:     590150  HIT:     280724  MISS:     309426
LLC PREFETCH  ACCESS:    5527303  HIT:    1064541  MISS:    4462762
LLC WRITEBACK ACCESS:    3851686  HIT:    3073962  MISS:     777724
LLC PREFETCH  REQUESTED:          0  ISSUED:          0  USEFUL:      22577  USELESS:    4440782
LLC TOTAL MSHR MERGED:          0
LLC LOAD MSHR MERGED:          0
LLC RFO MSHR MERGED:          0
LLC PREFETCH MSHR MERGED:          0
LLC WRITEBACK MSHR MERGED:          0
LLC TOTAL ACCESSES:   15448764 HITS:    6432913 MISSES:    9015851
LLC LOAD ACCESSES:    5479608 HITS:    2013669 MISSES:    3465939
LLC RFO ACCESSES:     590152 HITS:     280726 MISSES:     309426
LLC PREFETCH ACCESSES:    5527318 HITS:    1064556 MISSES:    4462762
LLC WRITEBACK ACCESSES:    3851686 HITS:    3073962 MISSES:     777724
LLC 0 RQ ACCESS:    6069760
LLC 0 RQ TO_CACHE:    6069728
LLC 0 RQ MERGED:          0
LLC 0 RQ FORWARD:          0
LLC WQ ACCESS:    3851686
LLC WQ TO_CACHE:    3851686
LLC WQ MERGED:          0
LLC WQ FORWARD:         47
Major fault: 0 Minor fault: 44814
CPU 0 L1D next line prefetcher final stats
CPU 0 L2C PC-based stride prefetcher final stats
All Misses: 10920380
All Hits: 7700840
SD Algo Stats - Switches: 0 SRR-Repls: 3957906 BRR-Repls: 0

DRAM Statistics
 CHANNEL 0
 RQ ROW_BUFFER_HIT:    1465058  ROW_BUFFER_MISS:    6771781
 DBUS_CONGESTED:    5466026
 WQ ROW_BUFFER_HIT:     165374  ROW_BUFFER_MISS:    2046260  FULL:          0

 AVG_CONGESTED_CYCLE: 13
LOADS RETIRED: 160808997
INSTR RETIRED: 500000000
