
*** ChampSim Multicore Out-of-Order Simulator ***

Warmup Instructions: 100000000
Simulation Instructions: 500000000
Number of CPUs: 1
LLC sets: 2048
LLC ways: 16
Clean RRIP Policies: 121220101212201 Dirty RRIP Policies: 1101120111011201 PSEL Width: 10 Track Set: 4294967295 PSEL Mask: 1 Demote Mask: 1003313410033134DS Algo: 0Window size: 0
Off-chip DRAM Size: 4096 MB Channels: 1 Width: 64-bit Data Rate: 1600 MT/s

CPU 0 runs /mnt/beegfs/iconst01/spec2017/Gcc.trace.gz
NOT SORTED
TRACE STRING: /mnt/beegfs/iconst01/spec2017/Gcc.trace.gz
SORTED
TRACE STRING: /mnt/beegfs/iconst01/spec2017/Gcc.trace.gz
INITIAL
TRACE STRING: /mnt/beegfs/iconst01/spec2017/Gcc.trace.gz

champsim_seed used: 269

CPU 0 L1D next line prefetcher
CPU 0 L2C IP-based stride prefetcher
Initialize DRRIP state
Assign rand_sets[0]: 454  LLC: 2048
rand_sets[0]: 454
Assign rand_sets[1]: 1662  LLC: 2048
rand_sets[1]: 1662
Assign rand_sets[2]: 1921  LLC: 2048
rand_sets[2]: 1921
Assign rand_sets[3]: 1131  LLC: 2048
rand_sets[3]: 1131
Assign rand_sets[4]: 331  LLC: 2048
rand_sets[4]: 331
Assign rand_sets[5]: 1531  LLC: 2048
rand_sets[5]: 1531
Assign rand_sets[6]: 482  LLC: 2048
rand_sets[6]: 482
Assign rand_sets[7]: 1275  LLC: 2048
rand_sets[7]: 1275
Assign rand_sets[8]: 1876  LLC: 2048
rand_sets[8]: 1876
Assign rand_sets[9]: 2038  LLC: 2048
rand_sets[9]: 2038
Assign rand_sets[10]: 701  LLC: 2048
rand_sets[10]: 701
Assign rand_sets[11]: 479  LLC: 2048
rand_sets[11]: 479
Assign rand_sets[12]: 892  LLC: 2048
rand_sets[12]: 892
Assign rand_sets[13]: 1820  LLC: 2048
rand_sets[13]: 1820
Assign rand_sets[14]: 1505  LLC: 2048
rand_sets[14]: 1505
Assign rand_sets[15]: 1159  LLC: 2048
rand_sets[15]: 1159
Assign rand_sets[16]: 513  LLC: 2048
rand_sets[16]: 513
Assign rand_sets[17]: 703  LLC: 2048
rand_sets[17]: 703
Assign rand_sets[18]: 561  LLC: 2048
rand_sets[18]: 561
Assign rand_sets[19]: 990  LLC: 2048
rand_sets[19]: 990
Assign rand_sets[20]: 342  LLC: 2048
rand_sets[20]: 342
Assign rand_sets[21]: 882  LLC: 2048
rand_sets[21]: 882
Assign rand_sets[22]: 15  LLC: 2048
rand_sets[22]: 15
Assign rand_sets[23]: 71  LLC: 2048
rand_sets[23]: 71
Assign rand_sets[24]: 1127  LLC: 2048
rand_sets[24]: 1127
Assign rand_sets[25]: 1382  LLC: 2048
rand_sets[25]: 1382
Assign rand_sets[26]: 647  LLC: 2048
rand_sets[26]: 647
Assign rand_sets[27]: 857  LLC: 2048
rand_sets[27]: 857
Assign rand_sets[28]: 1450  LLC: 2048
rand_sets[28]: 1450
Assign rand_sets[29]: 1160  LLC: 2048
rand_sets[29]: 1160
Assign rand_sets[30]: 1852  LLC: 2048
rand_sets[30]: 1852
Assign rand_sets[31]: 1881  LLC: 2048
rand_sets[31]: 1881
Assign rand_sets[32]: 1770  LLC: 2048
rand_sets[32]: 1770
Assign rand_sets[33]: 1622  LLC: 2048
rand_sets[33]: 1622
Assign rand_sets[34]: 275  LLC: 2048
rand_sets[34]: 275
Assign rand_sets[35]: 635  LLC: 2048
rand_sets[35]: 635
Assign rand_sets[36]: 466  LLC: 2048
rand_sets[36]: 466
Assign rand_sets[37]: 1413  LLC: 2048
rand_sets[37]: 1413
Assign rand_sets[38]: 417  LLC: 2048
rand_sets[38]: 417
Assign rand_sets[39]: 472  LLC: 2048
rand_sets[39]: 472
Assign rand_sets[40]: 1340  LLC: 2048
rand_sets[40]: 1340
Assign rand_sets[41]: 852  LLC: 2048
rand_sets[41]: 852
Assign rand_sets[42]: 1365  LLC: 2048
rand_sets[42]: 1365
Assign rand_sets[43]: 47  LLC: 2048
rand_sets[43]: 47
Assign rand_sets[44]: 823  LLC: 2048
rand_sets[44]: 823
Assign rand_sets[45]: 686  LLC: 2048
rand_sets[45]: 686
Assign rand_sets[46]: 1637  LLC: 2048
rand_sets[46]: 1637
Assign rand_sets[47]: 1115  LLC: 2048
rand_sets[47]: 1115
Assign rand_sets[48]: 986  LLC: 2048
rand_sets[48]: 986
Assign rand_sets[49]: 258  LLC: 2048
rand_sets[49]: 258
Assign rand_sets[50]: 633  LLC: 2048
rand_sets[50]: 633
Assign rand_sets[51]: 920  LLC: 2048
rand_sets[51]: 920
Assign rand_sets[52]: 204  LLC: 2048
rand_sets[52]: 204
Assign rand_sets[53]: 227  LLC: 2048
rand_sets[53]: 227
Assign rand_sets[54]: 1818  LLC: 2048
rand_sets[54]: 1818
Assign rand_sets[55]: 886  LLC: 2048
rand_sets[55]: 886
Assign rand_sets[56]: 1422  LLC: 2048
rand_sets[56]: 1422
Assign rand_sets[57]: 607  LLC: 2048
rand_sets[57]: 607
Assign rand_sets[58]: 217  LLC: 2048
rand_sets[58]: 217
Assign rand_sets[59]: 1945  LLC: 2048
rand_sets[59]: 1945
Assign rand_sets[60]: 143  LLC: 2048
rand_sets[60]: 143
Assign rand_sets[61]: 1311  LLC: 2048
rand_sets[61]: 1311
Assign rand_sets[62]: 319  LLC: 2048
rand_sets[62]: 319
Assign rand_sets[63]: 1846  LLC: 2048
rand_sets[63]: 1846
 CLEAN-RRIP-POLICY-1: 0-1-2-1-2-2-0-1- CLEAN-RRIP-POLICY-2: 0-1-2-1-2-2-0-1-
 DIRTY-RRIP-POLICY-1: 1-1-0-1-1-2-0-1- DIRTY-RRIP-POLICY-2: 1-1-0-1-1-2-0-1-
 PSEL width: 10
Heartbeat CPU 0 instructions: 10000001 cycles: 7315910 heartbeat IPC: 1.36688 cumulative IPC: 1.36688 (Simulation time: 0 hr 0 min 16 sec) 
Heartbeat CPU 0 instructions: 20000000 cycles: 14307543 heartbeat IPC: 1.43028 cumulative IPC: 1.39786 (Simulation time: 0 hr 0 min 32 sec) 
Heartbeat CPU 0 instructions: 30000001 cycles: 21020615 heartbeat IPC: 1.48963 cumulative IPC: 1.42717 (Simulation time: 0 hr 0 min 49 sec) 
Heartbeat CPU 0 instructions: 40000000 cycles: 27481439 heartbeat IPC: 1.54779 cumulative IPC: 1.45553 (Simulation time: 0 hr 1 min 6 sec) 
Heartbeat CPU 0 instructions: 50000001 cycles: 33582943 heartbeat IPC: 1.63894 cumulative IPC: 1.48885 (Simulation time: 0 hr 1 min 23 sec) 
Heartbeat CPU 0 instructions: 60000000 cycles: 40063960 heartbeat IPC: 1.54297 cumulative IPC: 1.49761 (Simulation time: 0 hr 1 min 40 sec) 
Heartbeat CPU 0 instructions: 70000000 cycles: 47102242 heartbeat IPC: 1.4208 cumulative IPC: 1.48613 (Simulation time: 0 hr 1 min 56 sec) 
Heartbeat CPU 0 instructions: 80000000 cycles: 54192154 heartbeat IPC: 1.41045 cumulative IPC: 1.47623 (Simulation time: 0 hr 2 min 12 sec) 
Heartbeat CPU 0 instructions: 90000003 cycles: 61196763 heartbeat IPC: 1.42763 cumulative IPC: 1.47067 (Simulation time: 0 hr 2 min 28 sec) 
Heartbeat CPU 0 instructions: 100000000 cycles: 68364247 heartbeat IPC: 1.39519 cumulative IPC: 1.46275 (Simulation time: 0 hr 2 min 43 sec) 

Warmup complete CPU 0 instructions: 100000004 cycles: 68364248 (Simulation time: 0 hr 2 min 43 sec) 

Heartbeat CPU 0 instructions: 110000003 cycles: 96095382 heartbeat IPC: 0.360606 cumulative IPC: 0.360605 (Simulation time: 0 hr 3 min 14 sec) 
Heartbeat CPU 0 instructions: 120000000 cycles: 123551036 heartbeat IPC: 0.364224 cumulative IPC: 0.362406 (Simulation time: 0 hr 3 min 46 sec) 
Heartbeat CPU 0 instructions: 130000000 cycles: 148506366 heartbeat IPC: 0.400716 cumulative IPC: 0.374335 (Simulation time: 0 hr 4 min 17 sec) 
Heartbeat CPU 0 instructions: 140000000 cycles: 178096305 heartbeat IPC: 0.337953 cumulative IPC: 0.364524 (Simulation time: 0 hr 4 min 47 sec) 
Heartbeat CPU 0 instructions: 150000000 cycles: 208030232 heartbeat IPC: 0.334069 cumulative IPC: 0.357997 (Simulation time: 0 hr 5 min 19 sec) 
Heartbeat CPU 0 instructions: 160000000 cycles: 235435870 heartbeat IPC: 0.364888 cumulative IPC: 0.359127 (Simulation time: 0 hr 5 min 49 sec) 
Heartbeat CPU 0 instructions: 170000001 cycles: 263483942 heartbeat IPC: 0.356531 cumulative IPC: 0.358754 (Simulation time: 0 hr 6 min 21 sec) 
Heartbeat CPU 0 instructions: 180000000 cycles: 291975866 heartbeat IPC: 0.350977 cumulative IPC: 0.357763 (Simulation time: 0 hr 6 min 52 sec) 
Heartbeat CPU 0 instructions: 190000002 cycles: 320022751 heartbeat IPC: 0.356546 cumulative IPC: 0.357627 (Simulation time: 0 hr 7 min 24 sec) 
Heartbeat CPU 0 instructions: 200000000 cycles: 348427480 heartbeat IPC: 0.352054 cumulative IPC: 0.357062 (Simulation time: 0 hr 7 min 55 sec) 
Heartbeat CPU 0 instructions: 210000002 cycles: 376287282 heartbeat IPC: 0.35894 cumulative IPC: 0.357232 (Simulation time: 0 hr 8 min 26 sec) 
Heartbeat CPU 0 instructions: 220000000 cycles: 405492680 heartbeat IPC: 0.342402 cumulative IPC: 0.355947 (Simulation time: 0 hr 8 min 56 sec) 
Heartbeat CPU 0 instructions: 230000000 cycles: 433089490 heartbeat IPC: 0.362361 cumulative IPC: 0.356433 (Simulation time: 0 hr 9 min 27 sec) 
Heartbeat CPU 0 instructions: 240000000 cycles: 459162893 heartbeat IPC: 0.383533 cumulative IPC: 0.358241 (Simulation time: 0 hr 9 min 56 sec) 
Heartbeat CPU 0 instructions: 250000000 cycles: 489330918 heartbeat IPC: 0.331477 cumulative IPC: 0.356323 (Simulation time: 0 hr 10 min 28 sec) 
Heartbeat CPU 0 instructions: 260000000 cycles: 516412013 heartbeat IPC: 0.369261 cumulative IPC: 0.357105 (Simulation time: 0 hr 10 min 59 sec) 
Heartbeat CPU 0 instructions: 270000003 cycles: 544834150 heartbeat IPC: 0.351839 cumulative IPC: 0.356791 (Simulation time: 0 hr 11 min 31 sec) 
Heartbeat CPU 0 instructions: 280000000 cycles: 573035033 heartbeat IPC: 0.354599 cumulative IPC: 0.356668 (Simulation time: 0 hr 12 min 3 sec) 
Heartbeat CPU 0 instructions: 290000000 cycles: 601901445 heartbeat IPC: 0.346423 cumulative IPC: 0.356114 (Simulation time: 0 hr 12 min 35 sec) 
Heartbeat CPU 0 instructions: 300000000 cycles: 631888901 heartbeat IPC: 0.333473 cumulative IPC: 0.354909 (Simulation time: 0 hr 13 min 6 sec) 
Heartbeat CPU 0 instructions: 310000001 cycles: 661326805 heartbeat IPC: 0.339698 cumulative IPC: 0.354154 (Simulation time: 0 hr 13 min 36 sec) 
Heartbeat CPU 0 instructions: 320000000 cycles: 689590312 heartbeat IPC: 0.353813 cumulative IPC: 0.354138 (Simulation time: 0 hr 14 min 7 sec) 
Heartbeat CPU 0 instructions: 330000000 cycles: 718253862 heartbeat IPC: 0.348875 cumulative IPC: 0.353906 (Simulation time: 0 hr 14 min 37 sec) 
Heartbeat CPU 0 instructions: 340000000 cycles: 747597979 heartbeat IPC: 0.340784 cumulative IPC: 0.353339 (Simulation time: 0 hr 15 min 8 sec) 
Heartbeat CPU 0 instructions: 350000003 cycles: 774644182 heartbeat IPC: 0.369738 cumulative IPC: 0.353967 (Simulation time: 0 hr 15 min 38 sec) 
Heartbeat CPU 0 instructions: 360000000 cycles: 802852000 heartbeat IPC: 0.354512 cumulative IPC: 0.353988 (Simulation time: 0 hr 16 min 8 sec) 
Heartbeat CPU 0 instructions: 370000000 cycles: 831098756 heartbeat IPC: 0.354023 cumulative IPC: 0.353989 (Simulation time: 0 hr 16 min 38 sec) 
Heartbeat CPU 0 instructions: 380000000 cycles: 859658405 heartbeat IPC: 0.350144 cumulative IPC: 0.353851 (Simulation time: 0 hr 17 min 7 sec) 
Heartbeat CPU 0 instructions: 390000001 cycles: 887312999 heartbeat IPC: 0.361604 cumulative IPC: 0.354113 (Simulation time: 0 hr 17 min 37 sec) 
Heartbeat CPU 0 instructions: 400000000 cycles: 916012201 heartbeat IPC: 0.348442 cumulative IPC: 0.353921 (Simulation time: 0 hr 18 min 6 sec) 
Heartbeat CPU 0 instructions: 410000001 cycles: 943341228 heartbeat IPC: 0.365911 cumulative IPC: 0.354295 (Simulation time: 0 hr 18 min 36 sec) 
Heartbeat CPU 0 instructions: 420000000 cycles: 970671460 heartbeat IPC: 0.365895 cumulative IPC: 0.354646 (Simulation time: 0 hr 19 min 5 sec) 
Heartbeat CPU 0 instructions: 430000002 cycles: 998400503 heartbeat IPC: 0.360633 cumulative IPC: 0.354825 (Simulation time: 0 hr 19 min 34 sec) 
Heartbeat CPU 0 instructions: 440000000 cycles: 1027997656 heartbeat IPC: 0.33787 cumulative IPC: 0.354302 (Simulation time: 0 hr 20 min 4 sec) 
Heartbeat CPU 0 instructions: 450000002 cycles: 1057294299 heartbeat IPC: 0.341336 cumulative IPC: 0.353918 (Simulation time: 0 hr 20 min 34 sec) 
Heartbeat CPU 0 instructions: 460000000 cycles: 1085015217 heartbeat IPC: 0.360738 cumulative IPC: 0.354104 (Simulation time: 0 hr 21 min 4 sec) 
Heartbeat CPU 0 instructions: 470000000 cycles: 1112670944 heartbeat IPC: 0.361589 cumulative IPC: 0.354302 (Simulation time: 0 hr 21 min 33 sec) 
Heartbeat CPU 0 instructions: 480000000 cycles: 1140568825 heartbeat IPC: 0.35845 cumulative IPC: 0.35441 (Simulation time: 0 hr 22 min 3 sec) 
Heartbeat CPU 0 instructions: 490000000 cycles: 1168177854 heartbeat IPC: 0.3622 cumulative IPC: 0.354606 (Simulation time: 0 hr 22 min 32 sec) 
Heartbeat CPU 0 instructions: 500000000 cycles: 1196498426 heartbeat IPC: 0.3531 cumulative IPC: 0.354568 (Simulation time: 0 hr 23 min 2 sec) 
Heartbeat CPU 0 instructions: 510000000 cycles: 1231728487 heartbeat IPC: 0.283848 cumulative IPC: 0.352426 (Simulation time: 0 hr 23 min 36 sec) 
Heartbeat CPU 0 instructions: 520000000 cycles: 1259859922 heartbeat IPC: 0.355474 cumulative IPC: 0.352498 (Simulation time: 0 hr 24 min 6 sec) 
Heartbeat CPU 0 instructions: 530000001 cycles: 1289665617 heartbeat IPC: 0.335506 cumulative IPC: 0.352083 (Simulation time: 0 hr 24 min 37 sec) 
Heartbeat CPU 0 instructions: 540000000 cycles: 1317965143 heartbeat IPC: 0.353363 cumulative IPC: 0.352112 (Simulation time: 0 hr 25 min 8 sec) 
Heartbeat CPU 0 instructions: 550000001 cycles: 1347250995 heartbeat IPC: 0.341462 cumulative IPC: 0.351869 (Simulation time: 0 hr 25 min 39 sec) 
Heartbeat CPU 0 instructions: 560000000 cycles: 1372741761 heartbeat IPC: 0.392299 cumulative IPC: 0.352659 (Simulation time: 0 hr 26 min 9 sec) 
Heartbeat CPU 0 instructions: 570000000 cycles: 1402511035 heartbeat IPC: 0.335917 cumulative IPC: 0.352285 (Simulation time: 0 hr 26 min 39 sec) 
Heartbeat CPU 0 instructions: 580000000 cycles: 1430626819 heartbeat IPC: 0.355672 cumulative IPC: 0.352355 (Simulation time: 0 hr 27 min 9 sec) 
Heartbeat CPU 0 instructions: 590000001 cycles: 1455481796 heartbeat IPC: 0.402334 cumulative IPC: 0.353251 (Simulation time: 0 hr 27 min 36 sec) 
Heartbeat CPU 0 instructions: 600000000 cycles: 1481753982 heartbeat IPC: 0.380631 cumulative IPC: 0.353759 (Simulation time: 0 hr 28 min 4 sec) 
Finished CPU 0 instructions: 500000000 cycles: 1413389756 cumulative IPC: 0.353759 (Simulation time: 0 hr 28 min 4 sec) 

CPU 0 Branch Prediction Accuracy: 86.4311% MPKI: 26.2662
Number of Branches: 96788573 Number of Mispredictions: 13133102
Number of LOAD Instructions: 164682285
Number of LOAD Instructions (ROI): 164682285
Number of STORE Instructions: 78194750
Number of STORE Instructions (ROI): 78194750
Total Destination Memory Operands: 83268534
Total Destination Memory Operands (ROI): 83268534
Total Source Memory Operands: 164712438
Total Source Memory Operands (ROI): 164712438
Number of DEPENDED LOADS: 7062165
Number of DEPENDED LOADS (ROI): 7062165
Number of SQ_ADDED: 83268522
Number of SQ_ADDED (ROI): 83268522
Number of LQ_ADDED: 236609693
Number of LQ_ADDED (ROI): 236609693
Number of Instructions read from trace: 600000066

ChampSim completed all CPUs

Region of Interest Statistics

CPU 0 cumulative IPC: 0.353759 instructions: 500000000 cycles: 1413389756
ITLB TOTAL     ACCESS:  100510527  HIT:  100306081  MISS:     204446
ITLB LOAD      ACCESS:  100510527  HIT:  100306081  MISS:     204446
ITLB RFO       ACCESS:          0  HIT:          0  MISS:          0
ITLB PREFETCH  ACCESS:          0  HIT:          0  MISS:          0
ITLB WRITEBACK ACCESS:          0  HIT:          0  MISS:          0
ITLB PREFETCH  REQUESTED:          0  ISSUED:          0  USEFUL:          0  USELESS:          0
ITLB TOTAL MSHR MERGED:     172423
ITLB LOAD MSHR MERGED:     172423
ITLB RFO MSHR MERGED:          0
ITLB PREFETCH MSHR MERGED:          0
ITLB WRITEBACK MSHR MERGED:          0
ITLB TOTAL ACCESSES:  100682950 HITS:  100306081 MISSES:     376869
ITLB LOAD ACCESSES:  100682950 HITS:  100306081 MISSES:     376869
ITLB RFO ACCESSES:          0 HITS:          0 MISSES:          0
ITLB PREFETCH ACCESSES:          0 HITS:          0 MISSES:          0
ITLB WRITEBACK ACCESSES:          0 HITS:          0 MISSES:          0
ITLB RQ ACCESS:  500000057
ITLB RQ TO_CACHE:  100682950
ITLB RQ MERGED:  399317107
ITLB RQ FORWARD:          0
ITLB WQ ACCESS:          0
ITLB WQ TO_CACHE:          0
ITLB WQ MERGED:          0
ITLB WQ FORWARD:          0
DTLB TOTAL     ACCESS:  165334265  HIT:  164699921  MISS:     634344
DTLB LOAD      ACCESS:  106291028  HIT:  105721035  MISS:     569993
DTLB RFO       ACCESS:   59043237  HIT:   58978886  MISS:      64351
DTLB PREFETCH  ACCESS:          0  HIT:          0  MISS:          0
DTLB WRITEBACK ACCESS:          0  HIT:          0  MISS:          0
DTLB PREFETCH  REQUESTED:          0  ISSUED:          0  USEFUL:          0  USELESS:          0
DTLB TOTAL MSHR MERGED:      99841
DTLB LOAD MSHR MERGED:      59413
DTLB RFO MSHR MERGED:      40428
DTLB PREFETCH MSHR MERGED:          0
DTLB WRITEBACK MSHR MERGED:          0
DTLB TOTAL ACCESSES:  165434106 HITS:  164699921 MISSES:     734185
DTLB LOAD ACCESSES:  106350441 HITS:  105721035 MISSES:     629406
DTLB RFO ACCESSES:   59083665 HITS:   58978886 MISSES:     104779
DTLB PREFETCH ACCESSES:          0 HITS:          0 MISSES:          0
DTLB WRITEBACK ACCESSES:          0 HITS:          0 MISSES:          0
DTLB RQ ACCESS:  200308753
DTLB RQ TO_CACHE:  165434106
DTLB RQ MERGED:   34874647
DTLB RQ FORWARD:          0
DTLB WQ ACCESS:          0
DTLB WQ TO_CACHE:          0
DTLB WQ MERGED:          0
DTLB WQ FORWARD:          0
L1D TOTAL     ACCESS:  281814973  HIT:  273905665  MISS:    7909308
L1D LOAD      ACCESS:  110420939  HIT:  107144343  MISS:    3276596
L1D RFO       ACCESS:   67095296  HIT:   66203799  MISS:     891497
L1D PREFETCH  ACCESS:  104298738  HIT:  100557523  MISS:    3741215
L1D WRITEBACK ACCESS:          0  HIT:          0  MISS:          0
L1D PREFETCH  REQUESTED:  110814930  ISSUED:  109115650  USEFUL:    1662021  USELESS:    2079158
L1D TOTAL MSHR MERGED:    2885337
L1D LOAD MSHR MERGED:     490103
L1D RFO MSHR MERGED:    1891338
L1D PREFETCH MSHR MERGED:     503896
L1D WRITEBACK MSHR MERGED:          0
L1D TOTAL ACCESSES:  284727881 HITS:  273933236 MISSES:   10794645
L1D LOAD ACCESSES:  110816518 HITS:  107145931 MISSES:    3670587
L1D RFO ACCESSES:   68973928 HITS:   66203799 MISSES:    2770129
L1D PREFETCH ACCESSES:  104937435 HITS:  100583506 MISSES:    4353929
L1D WRITEBACK ACCESSES:          0 HITS:          0 MISSES:          0
L1D RQ ACCESS:  130756150
L1D RQ TO_CACHE:  110814933
L1D RQ MERGED:   19939629
L1D RQ FORWARD:          0
L1D WQ ACCESS:   69552603
L1D WQ TO_CACHE:   68973929
L1D WQ MERGED:     578674
L1D WQ FORWARD:      27571
L1I TOTAL     ACCESS:  126558270  HIT:  122319715  MISS:    4238555
L1I LOAD      ACCESS:  126558270  HIT:  122319715  MISS:    4238555
L1I RFO       ACCESS:          0  HIT:          0  MISS:          0
L1I PREFETCH  ACCESS:          0  HIT:          0  MISS:          0
L1I WRITEBACK ACCESS:          0  HIT:          0  MISS:          0
L1I PREFETCH  REQUESTED:          0  ISSUED:          0  USEFUL:          0  USELESS:          0
L1I TOTAL MSHR MERGED:    1834599
L1I LOAD MSHR MERGED:    1834599
L1I RFO MSHR MERGED:          0
L1I PREFETCH MSHR MERGED:          0
L1I WRITEBACK MSHR MERGED:          0
L1I TOTAL ACCESSES:  128392872 HITS:  122319715 MISSES:    6073157
L1I LOAD ACCESSES:  128392872 HITS:  122319715 MISSES:    6073157
L1I RFO ACCESSES:          0 HITS:          0 MISSES:          0
L1I PREFETCH ACCESSES:          0 HITS:          0 MISSES:          0
L1I WRITEBACK ACCESSES:          0 HITS:          0 MISSES:          0
L1I RQ ACCESS:  500000057
L1I RQ TO_CACHE:  128392872
L1I RQ MERGED:  371607185
L1I RQ FORWARD:          0
L1I WQ ACCESS:          0
L1I WQ TO_CACHE:          0
L1I WQ MERGED:          0
L1I WQ FORWARD:          0
L2C TOTAL     ACCESS:   14904819  HIT:   11158406  MISS:    3746413
L2C LOAD      ACCESS:    7418835  HIT:    5098782  MISS:    2320053
L2C RFO       ACCESS:     878691  HIT:     409914  MISS:     468777
L2C PREFETCH  ACCESS:    4568059  HIT:    3627736  MISS:     940323
L2C WRITEBACK ACCESS:    2039234  HIT:    2021974  MISS:      17260
L2C PREFETCH  REQUESTED:     842748  ISSUED:     842748  USEFUL:     203275  USELESS:     736755
L2C TOTAL MSHR MERGED:       7405
L2C LOAD MSHR MERGED:        870
L2C RFO MSHR MERGED:          0
L2C PREFETCH MSHR MERGED:       6535
L2C WRITEBACK MSHR MERGED:          0
L2C TOTAL ACCESSES:   14913128 HITS:   11158851 MISSES:    3754277
L2C LOAD ACCESSES:    7419039 HITS:    5098986 MISSES:    2320053
L2C RFO ACCESSES:     878791 HITS:     410014 MISSES:     468777
L2C PREFETCH ACCESSES:    4576064 HITS:    3627877 MISSES:     948187
L2C WRITEBACK ACCESSES:    2039234 HITS:    2021974 MISSES:      17260
L2C RQ ACCESS:    8297833
L2C RQ TO_CACHE:    8297529
L2C RQ MERGED:          0
L2C RQ FORWARD:          0
L2C WQ ACCESS:    2039234
L2C WQ TO_CACHE:    2039234
L2C WQ MERGED:          0
L2C WQ FORWARD:        445
LLC TOTAL     ACCESS:    4609713  HIT:    3930239  MISS:     679474
LLC LOAD      ACCESS:    2319171  HIT:    2054964  MISS:     264207
LLC RFO       ACCESS:     468766  HIT:     363050  MISS:     105716
LLC PREFETCH  ACCESS:     941521  HIT:     661812  MISS:     279709
LLC WRITEBACK ACCESS:     880255  HIT:     850413  MISS:      29842
LLC PREFETCH  REQUESTED:          0  ISSUED:          0  USEFUL:      40705  USELESS:     238964
LLC TOTAL MSHR MERGED:        112
LLC LOAD MSHR MERGED:         37
LLC RFO MSHR MERGED:          0
LLC PREFETCH MSHR MERGED:         75
LLC WRITEBACK MSHR MERGED:          0
LLC TOTAL ACCESSES:    4609859 HITS:    3930273 MISSES:     679586
LLC LOAD ACCESSES:    2319183 HITS:    2054976 MISSES:     264207
LLC RFO ACCESSES:     468777 HITS:     363061 MISSES:     105716
LLC PREFETCH ACCESSES:     941644 HITS:     661823 MISSES:     279821
LLC WRITEBACK ACCESSES:     880255 HITS:     850413 MISSES:      29842
LLC 0 RQ ACCESS:    2787960
LLC 0 RQ TO_CACHE:    2787937
LLC 0 RQ MERGED:          0
LLC 0 RQ FORWARD:          0
LLC WQ ACCESS:     880255
LLC WQ TO_CACHE:     880255
LLC WQ MERGED:          0
LLC WQ FORWARD:         34
Major fault: 0 Minor fault: 12862
CPU 0 L1D next line prefetcher final stats
CPU 0 L2C PC-based stride prefetcher final stats
All Misses: 793526
All Hits: 4633193
SD Algo Stats - Switches: 0 SRR-Repls: 305936 BRR-Repls: 0

DRAM Statistics
 CHANNEL 0
 RQ ROW_BUFFER_HIT:     136337  ROW_BUFFER_MISS:     511391
 DBUS_CONGESTED:     438645
 WQ ROW_BUFFER_HIT:      26049  ROW_BUFFER_MISS:     240355  FULL:          0

 AVG_CONGESTED_CYCLE: 13
LOADS RETIRED: 136549171
INSTR RETIRED: 500000000
