
*** ChampSim Multicore Out-of-Order Simulator ***

Warmup Instructions: 100000000
Simulation Instructions: 500000000
Number of CPUs: 1
LLC sets: 2048
LLC ways: 16
Clean RRIP Policies: 1113130111131301 Dirty RRIP Policies: 1103132111031321 PSEL Width: 10 Track Set: 4294967295 PSEL Mask: 1 Demote Mask: 2144400021444DS Algo: 0Window size: 0
Off-chip DRAM Size: 4096 MB Channels: 1 Width: 64-bit Data Rate: 1600 MT/s

CPU 0 runs /mnt/beegfs/iconst01/spec2017/Gcc.trace.gz
NOT SORTED
TRACE STRING: /mnt/beegfs/iconst01/spec2017/Gcc.trace.gz
SORTED
TRACE STRING: /mnt/beegfs/iconst01/spec2017/Gcc.trace.gz
INITIAL
TRACE STRING: /mnt/beegfs/iconst01/spec2017/Gcc.trace.gz

champsim_seed used: 269

CPU 0 L1D next line prefetcher
CPU 0 L2C IP-based stride prefetcher
Initialize DRRIP state
Assign rand_sets[0]: 454  LLC: 2048
rand_sets[0]: 454
Assign rand_sets[1]: 1662  LLC: 2048
rand_sets[1]: 1662
Assign rand_sets[2]: 1921  LLC: 2048
rand_sets[2]: 1921
Assign rand_sets[3]: 1131  LLC: 2048
rand_sets[3]: 1131
Assign rand_sets[4]: 331  LLC: 2048
rand_sets[4]: 331
Assign rand_sets[5]: 1531  LLC: 2048
rand_sets[5]: 1531
Assign rand_sets[6]: 482  LLC: 2048
rand_sets[6]: 482
Assign rand_sets[7]: 1275  LLC: 2048
rand_sets[7]: 1275
Assign rand_sets[8]: 1876  LLC: 2048
rand_sets[8]: 1876
Assign rand_sets[9]: 2038  LLC: 2048
rand_sets[9]: 2038
Assign rand_sets[10]: 701  LLC: 2048
rand_sets[10]: 701
Assign rand_sets[11]: 479  LLC: 2048
rand_sets[11]: 479
Assign rand_sets[12]: 892  LLC: 2048
rand_sets[12]: 892
Assign rand_sets[13]: 1820  LLC: 2048
rand_sets[13]: 1820
Assign rand_sets[14]: 1505  LLC: 2048
rand_sets[14]: 1505
Assign rand_sets[15]: 1159  LLC: 2048
rand_sets[15]: 1159
Assign rand_sets[16]: 513  LLC: 2048
rand_sets[16]: 513
Assign rand_sets[17]: 703  LLC: 2048
rand_sets[17]: 703
Assign rand_sets[18]: 561  LLC: 2048
rand_sets[18]: 561
Assign rand_sets[19]: 990  LLC: 2048
rand_sets[19]: 990
Assign rand_sets[20]: 342  LLC: 2048
rand_sets[20]: 342
Assign rand_sets[21]: 882  LLC: 2048
rand_sets[21]: 882
Assign rand_sets[22]: 15  LLC: 2048
rand_sets[22]: 15
Assign rand_sets[23]: 71  LLC: 2048
rand_sets[23]: 71
Assign rand_sets[24]: 1127  LLC: 2048
rand_sets[24]: 1127
Assign rand_sets[25]: 1382  LLC: 2048
rand_sets[25]: 1382
Assign rand_sets[26]: 647  LLC: 2048
rand_sets[26]: 647
Assign rand_sets[27]: 857  LLC: 2048
rand_sets[27]: 857
Assign rand_sets[28]: 1450  LLC: 2048
rand_sets[28]: 1450
Assign rand_sets[29]: 1160  LLC: 2048
rand_sets[29]: 1160
Assign rand_sets[30]: 1852  LLC: 2048
rand_sets[30]: 1852
Assign rand_sets[31]: 1881  LLC: 2048
rand_sets[31]: 1881
Assign rand_sets[32]: 1770  LLC: 2048
rand_sets[32]: 1770
Assign rand_sets[33]: 1622  LLC: 2048
rand_sets[33]: 1622
Assign rand_sets[34]: 275  LLC: 2048
rand_sets[34]: 275
Assign rand_sets[35]: 635  LLC: 2048
rand_sets[35]: 635
Assign rand_sets[36]: 466  LLC: 2048
rand_sets[36]: 466
Assign rand_sets[37]: 1413  LLC: 2048
rand_sets[37]: 1413
Assign rand_sets[38]: 417  LLC: 2048
rand_sets[38]: 417
Assign rand_sets[39]: 472  LLC: 2048
rand_sets[39]: 472
Assign rand_sets[40]: 1340  LLC: 2048
rand_sets[40]: 1340
Assign rand_sets[41]: 852  LLC: 2048
rand_sets[41]: 852
Assign rand_sets[42]: 1365  LLC: 2048
rand_sets[42]: 1365
Assign rand_sets[43]: 47  LLC: 2048
rand_sets[43]: 47
Assign rand_sets[44]: 823  LLC: 2048
rand_sets[44]: 823
Assign rand_sets[45]: 686  LLC: 2048
rand_sets[45]: 686
Assign rand_sets[46]: 1637  LLC: 2048
rand_sets[46]: 1637
Assign rand_sets[47]: 1115  LLC: 2048
rand_sets[47]: 1115
Assign rand_sets[48]: 986  LLC: 2048
rand_sets[48]: 986
Assign rand_sets[49]: 258  LLC: 2048
rand_sets[49]: 258
Assign rand_sets[50]: 633  LLC: 2048
rand_sets[50]: 633
Assign rand_sets[51]: 920  LLC: 2048
rand_sets[51]: 920
Assign rand_sets[52]: 204  LLC: 2048
rand_sets[52]: 204
Assign rand_sets[53]: 227  LLC: 2048
rand_sets[53]: 227
Assign rand_sets[54]: 1818  LLC: 2048
rand_sets[54]: 1818
Assign rand_sets[55]: 886  LLC: 2048
rand_sets[55]: 886
Assign rand_sets[56]: 1422  LLC: 2048
rand_sets[56]: 1422
Assign rand_sets[57]: 607  LLC: 2048
rand_sets[57]: 607
Assign rand_sets[58]: 217  LLC: 2048
rand_sets[58]: 217
Assign rand_sets[59]: 1945  LLC: 2048
rand_sets[59]: 1945
Assign rand_sets[60]: 143  LLC: 2048
rand_sets[60]: 143
Assign rand_sets[61]: 1311  LLC: 2048
rand_sets[61]: 1311
Assign rand_sets[62]: 319  LLC: 2048
rand_sets[62]: 319
Assign rand_sets[63]: 1846  LLC: 2048
rand_sets[63]: 1846
 CLEAN-RRIP-POLICY-1: 1-1-1-3-1-3-0-1- CLEAN-RRIP-POLICY-2: 1-1-1-3-1-3-0-1-
 DIRTY-RRIP-POLICY-1: 1-1-0-3-1-3-2-1- DIRTY-RRIP-POLICY-2: 1-1-0-3-1-3-2-1-
 PSEL width: 10
Heartbeat CPU 0 instructions: 10000001 cycles: 7315984 heartbeat IPC: 1.36687 cumulative IPC: 1.36687 (Simulation time: 0 hr 0 min 15 sec) 
Heartbeat CPU 0 instructions: 20000000 cycles: 14307479 heartbeat IPC: 1.43031 cumulative IPC: 1.39787 (Simulation time: 0 hr 0 min 29 sec) 
Heartbeat CPU 0 instructions: 30000001 cycles: 21020274 heartbeat IPC: 1.48969 cumulative IPC: 1.42719 (Simulation time: 0 hr 0 min 45 sec) 
Heartbeat CPU 0 instructions: 40000000 cycles: 27481164 heartbeat IPC: 1.54777 cumulative IPC: 1.45554 (Simulation time: 0 hr 1 min 2 sec) 
Heartbeat CPU 0 instructions: 50000001 cycles: 33582845 heartbeat IPC: 1.63889 cumulative IPC: 1.48886 (Simulation time: 0 hr 1 min 17 sec) 
Heartbeat CPU 0 instructions: 60000000 cycles: 40064027 heartbeat IPC: 1.54293 cumulative IPC: 1.4976 (Simulation time: 0 hr 1 min 33 sec) 
Heartbeat CPU 0 instructions: 70000000 cycles: 47101079 heartbeat IPC: 1.42105 cumulative IPC: 1.48617 (Simulation time: 0 hr 1 min 48 sec) 
Heartbeat CPU 0 instructions: 80000000 cycles: 54190385 heartbeat IPC: 1.41058 cumulative IPC: 1.47628 (Simulation time: 0 hr 2 min 3 sec) 
Heartbeat CPU 0 instructions: 90000003 cycles: 61194516 heartbeat IPC: 1.42773 cumulative IPC: 1.47072 (Simulation time: 0 hr 2 min 18 sec) 
Heartbeat CPU 0 instructions: 100000000 cycles: 68361406 heartbeat IPC: 1.3953 cumulative IPC: 1.46281 (Simulation time: 0 hr 2 min 32 sec) 

Warmup complete CPU 0 instructions: 100000004 cycles: 68361407 (Simulation time: 0 hr 2 min 32 sec) 

Heartbeat CPU 0 instructions: 110000003 cycles: 95946637 heartbeat IPC: 0.362513 cumulative IPC: 0.362513 (Simulation time: 0 hr 3 min 1 sec) 
Heartbeat CPU 0 instructions: 120000000 cycles: 123412155 heartbeat IPC: 0.364093 cumulative IPC: 0.363301 (Simulation time: 0 hr 3 min 30 sec) 
Heartbeat CPU 0 instructions: 130000000 cycles: 148402975 heartbeat IPC: 0.400147 cumulative IPC: 0.374805 (Simulation time: 0 hr 3 min 58 sec) 
Heartbeat CPU 0 instructions: 140000000 cycles: 177707252 heartbeat IPC: 0.341247 cumulative IPC: 0.365812 (Simulation time: 0 hr 4 min 26 sec) 
Heartbeat CPU 0 instructions: 150000000 cycles: 207494759 heartbeat IPC: 0.335711 cumulative IPC: 0.359367 (Simulation time: 0 hr 4 min 55 sec) 
Heartbeat CPU 0 instructions: 160000000 cycles: 234897459 heartbeat IPC: 0.364928 cumulative IPC: 0.360282 (Simulation time: 0 hr 5 min 23 sec) 
Heartbeat CPU 0 instructions: 170000001 cycles: 262883731 heartbeat IPC: 0.357318 cumulative IPC: 0.359856 (Simulation time: 0 hr 5 min 52 sec) 
Heartbeat CPU 0 instructions: 180000000 cycles: 291261114 heartbeat IPC: 0.352393 cumulative IPC: 0.358906 (Simulation time: 0 hr 6 min 21 sec) 
Heartbeat CPU 0 instructions: 190000002 cycles: 319189173 heartbeat IPC: 0.358063 cumulative IPC: 0.358812 (Simulation time: 0 hr 6 min 50 sec) 
Heartbeat CPU 0 instructions: 200000000 cycles: 347473826 heartbeat IPC: 0.353549 cumulative IPC: 0.358279 (Simulation time: 0 hr 7 min 19 sec) 
Heartbeat CPU 0 instructions: 210000002 cycles: 375246568 heartbeat IPC: 0.360065 cumulative IPC: 0.35844 (Simulation time: 0 hr 7 min 48 sec) 
Heartbeat CPU 0 instructions: 220000000 cycles: 404232987 heartbeat IPC: 0.344989 cumulative IPC: 0.357279 (Simulation time: 0 hr 8 min 15 sec) 
Heartbeat CPU 0 instructions: 230000000 cycles: 431730140 heartbeat IPC: 0.363674 cumulative IPC: 0.357763 (Simulation time: 0 hr 8 min 43 sec) 
Heartbeat CPU 0 instructions: 240000000 cycles: 457709623 heartbeat IPC: 0.384919 cumulative IPC: 0.359575 (Simulation time: 0 hr 9 min 10 sec) 
Heartbeat CPU 0 instructions: 250000000 cycles: 487818165 heartbeat IPC: 0.332132 cumulative IPC: 0.357605 (Simulation time: 0 hr 9 min 40 sec) 
Heartbeat CPU 0 instructions: 260000000 cycles: 514939579 heartbeat IPC: 0.368712 cumulative IPC: 0.35828 (Simulation time: 0 hr 10 min 8 sec) 
Heartbeat CPU 0 instructions: 270000003 cycles: 543290273 heartbeat IPC: 0.352725 cumulative IPC: 0.357948 (Simulation time: 0 hr 10 min 38 sec) 
Heartbeat CPU 0 instructions: 280000000 cycles: 571350516 heartbeat IPC: 0.356376 cumulative IPC: 0.357861 (Simulation time: 0 hr 11 min 7 sec) 
Heartbeat CPU 0 instructions: 290000000 cycles: 600169292 heartbeat IPC: 0.346996 cumulative IPC: 0.357272 (Simulation time: 0 hr 11 min 37 sec) 
Heartbeat CPU 0 instructions: 300000000 cycles: 629856587 heartbeat IPC: 0.336844 cumulative IPC: 0.356192 (Simulation time: 0 hr 12 min 5 sec) 
Heartbeat CPU 0 instructions: 310000001 cycles: 659145505 heartbeat IPC: 0.341426 cumulative IPC: 0.35546 (Simulation time: 0 hr 12 min 33 sec) 
Heartbeat CPU 0 instructions: 320000000 cycles: 687232451 heartbeat IPC: 0.356037 cumulative IPC: 0.355486 (Simulation time: 0 hr 13 min 1 sec) 
Heartbeat CPU 0 instructions: 330000000 cycles: 715778231 heartbeat IPC: 0.350314 cumulative IPC: 0.355258 (Simulation time: 0 hr 13 min 30 sec) 
Heartbeat CPU 0 instructions: 340000000 cycles: 744976389 heartbeat IPC: 0.342487 cumulative IPC: 0.354707 (Simulation time: 0 hr 13 min 58 sec) 
Heartbeat CPU 0 instructions: 350000003 cycles: 771940778 heartbeat IPC: 0.37086 cumulative IPC: 0.355326 (Simulation time: 0 hr 14 min 26 sec) 
Heartbeat CPU 0 instructions: 360000000 cycles: 799956161 heartbeat IPC: 0.356947 cumulative IPC: 0.355388 (Simulation time: 0 hr 14 min 53 sec) 
Heartbeat CPU 0 instructions: 370000000 cycles: 828126205 heartbeat IPC: 0.354987 cumulative IPC: 0.355373 (Simulation time: 0 hr 15 min 20 sec) 
Heartbeat CPU 0 instructions: 380000000 cycles: 856613530 heartbeat IPC: 0.351033 cumulative IPC: 0.355216 (Simulation time: 0 hr 15 min 47 sec) 
Heartbeat CPU 0 instructions: 390000001 cycles: 884208218 heartbeat IPC: 0.362389 cumulative IPC: 0.355459 (Simulation time: 0 hr 16 min 14 sec) 
Heartbeat CPU 0 instructions: 400000000 cycles: 912827551 heartbeat IPC: 0.349414 cumulative IPC: 0.355254 (Simulation time: 0 hr 16 min 42 sec) 
Heartbeat CPU 0 instructions: 410000001 cycles: 940132829 heartbeat IPC: 0.36623 cumulative IPC: 0.355598 (Simulation time: 0 hr 17 min 9 sec) 
Heartbeat CPU 0 instructions: 420000000 cycles: 967449048 heartbeat IPC: 0.366083 cumulative IPC: 0.355916 (Simulation time: 0 hr 17 min 36 sec) 
Heartbeat CPU 0 instructions: 430000002 cycles: 995120644 heartbeat IPC: 0.361381 cumulative IPC: 0.35608 (Simulation time: 0 hr 18 min 3 sec) 
Heartbeat CPU 0 instructions: 440000000 cycles: 1024569411 heartbeat IPC: 0.339573 cumulative IPC: 0.355571 (Simulation time: 0 hr 18 min 30 sec) 
Heartbeat CPU 0 instructions: 450000002 cycles: 1053783959 heartbeat IPC: 0.342295 cumulative IPC: 0.355178 (Simulation time: 0 hr 18 min 58 sec) 
Heartbeat CPU 0 instructions: 460000000 cycles: 1081469489 heartbeat IPC: 0.361199 cumulative IPC: 0.355342 (Simulation time: 0 hr 19 min 25 sec) 
Heartbeat CPU 0 instructions: 470000000 cycles: 1109106088 heartbeat IPC: 0.361839 cumulative IPC: 0.355515 (Simulation time: 0 hr 19 min 52 sec) 
Heartbeat CPU 0 instructions: 480000000 cycles: 1136996384 heartbeat IPC: 0.358548 cumulative IPC: 0.355594 (Simulation time: 0 hr 20 min 19 sec) 
Heartbeat CPU 0 instructions: 490000000 cycles: 1164595232 heartbeat IPC: 0.362334 cumulative IPC: 0.355764 (Simulation time: 0 hr 20 min 46 sec) 
Heartbeat CPU 0 instructions: 500000000 cycles: 1192854148 heartbeat IPC: 0.353871 cumulative IPC: 0.355716 (Simulation time: 0 hr 21 min 14 sec) 
Heartbeat CPU 0 instructions: 510000000 cycles: 1228144936 heartbeat IPC: 0.28336 cumulative IPC: 0.353514 (Simulation time: 0 hr 21 min 45 sec) 
Heartbeat CPU 0 instructions: 520000000 cycles: 1256180145 heartbeat IPC: 0.356694 cumulative IPC: 0.353589 (Simulation time: 0 hr 22 min 13 sec) 
Heartbeat CPU 0 instructions: 530000001 cycles: 1285357484 heartbeat IPC: 0.342732 cumulative IPC: 0.353329 (Simulation time: 0 hr 22 min 41 sec) 
Heartbeat CPU 0 instructions: 540000000 cycles: 1313335370 heartbeat IPC: 0.357425 cumulative IPC: 0.353421 (Simulation time: 0 hr 23 min 9 sec) 
Heartbeat CPU 0 instructions: 550000001 cycles: 1342539438 heartbeat IPC: 0.342418 cumulative IPC: 0.353169 (Simulation time: 0 hr 23 min 39 sec) 
Heartbeat CPU 0 instructions: 560000000 cycles: 1367923062 heartbeat IPC: 0.393955 cumulative IPC: 0.353965 (Simulation time: 0 hr 24 min 7 sec) 
Heartbeat CPU 0 instructions: 570000000 cycles: 1397262448 heartbeat IPC: 0.340839 cumulative IPC: 0.353676 (Simulation time: 0 hr 24 min 36 sec) 
Heartbeat CPU 0 instructions: 580000000 cycles: 1425188705 heartbeat IPC: 0.358086 cumulative IPC: 0.353766 (Simulation time: 0 hr 25 min 4 sec) 
Heartbeat CPU 0 instructions: 590000001 cycles: 1450067049 heartbeat IPC: 0.401956 cumulative IPC: 0.354634 (Simulation time: 0 hr 25 min 31 sec) 
Heartbeat CPU 0 instructions: 600000000 cycles: 1476356240 heartbeat IPC: 0.380384 cumulative IPC: 0.355115 (Simulation time: 0 hr 25 min 58 sec) 
Finished CPU 0 instructions: 500000000 cycles: 1407994855 cumulative IPC: 0.355115 (Simulation time: 0 hr 25 min 58 sec) 

CPU 0 Branch Prediction Accuracy: 86.4311% MPKI: 26.2662
Number of Branches: 96788573 Number of Mispredictions: 13133102
Number of LOAD Instructions: 164682285
Number of LOAD Instructions (ROI): 164682285
Number of STORE Instructions: 78194750
Number of STORE Instructions (ROI): 78194750
Total Destination Memory Operands: 83268534
Total Destination Memory Operands (ROI): 83268534
Total Source Memory Operands: 164712438
Total Source Memory Operands (ROI): 164712438
Number of DEPENDED LOADS: 7065618
Number of DEPENDED LOADS (ROI): 7065618
Number of SQ_ADDED: 83268522
Number of SQ_ADDED (ROI): 83268522
Number of LQ_ADDED: 236816140
Number of LQ_ADDED (ROI): 236816140
Number of Instructions read from trace: 600000066

ChampSim completed all CPUs

Region of Interest Statistics

CPU 0 cumulative IPC: 0.355115 instructions: 500000000 cycles: 1407994855
ITLB TOTAL     ACCESS:  100505966  HIT:  100301520  MISS:     204446
ITLB LOAD      ACCESS:  100505966  HIT:  100301520  MISS:     204446
ITLB RFO       ACCESS:          0  HIT:          0  MISS:          0
ITLB PREFETCH  ACCESS:          0  HIT:          0  MISS:          0
ITLB WRITEBACK ACCESS:          0  HIT:          0  MISS:          0
ITLB PREFETCH  REQUESTED:          0  ISSUED:          0  USEFUL:          0  USELESS:          0
ITLB TOTAL MSHR MERGED:     172423
ITLB LOAD MSHR MERGED:     172423
ITLB RFO MSHR MERGED:          0
ITLB PREFETCH MSHR MERGED:          0
ITLB WRITEBACK MSHR MERGED:          0
ITLB TOTAL ACCESSES:  100678389 HITS:  100301520 MISSES:     376869
ITLB LOAD ACCESSES:  100678389 HITS:  100301520 MISSES:     376869
ITLB RFO ACCESSES:          0 HITS:          0 MISSES:          0
ITLB PREFETCH ACCESSES:          0 HITS:          0 MISSES:          0
ITLB WRITEBACK ACCESSES:          0 HITS:          0 MISSES:          0
ITLB RQ ACCESS:  500000057
ITLB RQ TO_CACHE:  100678389
ITLB RQ MERGED:  399321668
ITLB RQ FORWARD:          0
ITLB WQ ACCESS:          0
ITLB WQ TO_CACHE:          0
ITLB WQ MERGED:          0
ITLB WQ FORWARD:          0
DTLB TOTAL     ACCESS:  165330325  HIT:  164695976  MISS:     634349
DTLB LOAD      ACCESS:  106286990  HIT:  105716994  MISS:     569996
DTLB RFO       ACCESS:   59043335  HIT:   58978982  MISS:      64353
DTLB PREFETCH  ACCESS:          0  HIT:          0  MISS:          0
DTLB WRITEBACK ACCESS:          0  HIT:          0  MISS:          0
DTLB PREFETCH  REQUESTED:          0  ISSUED:          0  USEFUL:          0  USELESS:          0
DTLB TOTAL MSHR MERGED:     100025
DTLB LOAD MSHR MERGED:      59479
DTLB RFO MSHR MERGED:      40546
DTLB PREFETCH MSHR MERGED:          0
DTLB WRITEBACK MSHR MERGED:          0
DTLB TOTAL ACCESSES:  165430350 HITS:  164695976 MISSES:     734374
DTLB LOAD ACCESSES:  106346469 HITS:  105716994 MISSES:     629475
DTLB RFO ACCESSES:   59083881 HITS:   58978982 MISSES:     104899
DTLB PREFETCH ACCESSES:          0 HITS:          0 MISSES:          0
DTLB WRITEBACK ACCESSES:          0 HITS:          0 MISSES:          0
DTLB RQ ACCESS:  200305352
DTLB RQ TO_CACHE:  165430350
DTLB RQ MERGED:   34875002
DTLB RQ FORWARD:          0
DTLB WQ ACCESS:          0
DTLB WQ TO_CACHE:          0
DTLB WQ MERGED:          0
DTLB WQ FORWARD:          0
L1D TOTAL     ACCESS:  281792897  HIT:  273883640  MISS:    7909257
L1D LOAD      ACCESS:  110409394  HIT:  107130513  MISS:    3278881
L1D RFO       ACCESS:   67100565  HIT:   66209303  MISS:     891262
L1D PREFETCH  ACCESS:  104282938  HIT:  100543824  MISS:    3739114
L1D WRITEBACK ACCESS:          0  HIT:          0  MISS:          0
L1D PREFETCH  REQUESTED:  110811329  ISSUED:  109112093  USEFUL:    1659926  USELESS:    2079152
L1D TOTAL MSHR MERGED:    2899701
L1D LOAD MSHR MERGED:     500293
L1D RFO MSHR MERGED:    1885807
L1D PREFETCH MSHR MERGED:     513601
L1D WRITEBACK MSHR MERGED:          0
L1D TOTAL ACCESSES:  284720145 HITS:  273911187 MISSES:   10808958
L1D LOAD ACCESSES:  110812857 HITS:  107132041 MISSES:    3680816
L1D RFO ACCESSES:   68973902 HITS:   66209303 MISSES:    2764599
L1D PREFETCH ACCESSES:  104933386 HITS:  100569843 MISSES:    4363543
L1D WRITEBACK ACCESSES:          0 HITS:          0 MISSES:          0
L1D RQ ACCESS:  130752749
L1D RQ TO_CACHE:  110811332
L1D RQ MERGED:   19939889
L1D RQ FORWARD:          0
L1D WQ ACCESS:   69552603
L1D WQ TO_CACHE:   68973903
L1D WQ MERGED:     578700
L1D WQ FORWARD:      27547
L1I TOTAL     ACCESS:  126553655  HIT:  122315102  MISS:    4238553
L1I LOAD      ACCESS:  126553655  HIT:  122315102  MISS:    4238553
L1I RFO       ACCESS:          0  HIT:          0  MISS:          0
L1I PREFETCH  ACCESS:          0  HIT:          0  MISS:          0
L1I WRITEBACK ACCESS:          0  HIT:          0  MISS:          0
L1I PREFETCH  REQUESTED:          0  ISSUED:          0  USEFUL:          0  USELESS:          0
L1I TOTAL MSHR MERGED:    1834350
L1I LOAD MSHR MERGED:    1834350
L1I RFO MSHR MERGED:          0
L1I PREFETCH MSHR MERGED:          0
L1I WRITEBACK MSHR MERGED:          0
L1I TOTAL ACCESSES:  128388008 HITS:  122315102 MISSES:    6072906
L1I LOAD ACCESSES:  128388008 HITS:  122315102 MISSES:    6072906
L1I RFO ACCESSES:          0 HITS:          0 MISSES:          0
L1I PREFETCH ACCESSES:          0 HITS:          0 MISSES:          0
L1I WRITEBACK ACCESSES:          0 HITS:          0 MISSES:          0
L1I RQ ACCESS:  500000057
L1I RQ TO_CACHE:  128388008
L1I RQ MERGED:  371612049
L1I RQ FORWARD:          0
L1I WQ ACCESS:          0
L1I WQ TO_CACHE:          0
L1I WQ MERGED:          0
L1I WQ FORWARD:          0
L2C TOTAL     ACCESS:   14904270  HIT:   11157853  MISS:    3746417
L2C LOAD      ACCESS:    7418864  HIT:    5098658  MISS:    2320206
L2C RFO       ACCESS:     878694  HIT:     409914  MISS:     468780
L2C PREFETCH  ACCESS:    4567491  HIT:    3627314  MISS:     940177
L2C WRITEBACK ACCESS:    2039221  HIT:    2021967  MISS:      17254
L2C PREFETCH  REQUESTED:     842655  ISSUED:     842655  USEFUL:     203155  USELESS:     736727
L2C TOTAL MSHR MERGED:       7797
L2C LOAD MSHR MERGED:        968
L2C RFO MSHR MERGED:          0
L2C PREFETCH MSHR MERGED:       6829
L2C WRITEBACK MSHR MERGED:          0
L2C TOTAL ACCESSES:   14913024 HITS:   11158306 MISSES:    3754718
L2C LOAD ACCESSES:    7419076 HITS:    5098870 MISSES:    2320206
L2C RFO ACCESSES:     878792 HITS:     410012 MISSES:     468780
L2C PREFETCH ACCESSES:    4575935 HITS:    3627457 MISSES:     948478
L2C WRITEBACK ACCESSES:    2039221 HITS:    2021967 MISSES:      17254
L2C RQ ACCESS:    8297871
L2C RQ TO_CACHE:    8297561
L2C RQ MERGED:          0
L2C RQ FORWARD:          0
L2C WQ ACCESS:    2039221
L2C WQ TO_CACHE:    2039221
L2C WQ MERGED:          0
L2C WQ FORWARD:        453
LLC TOTAL     ACCESS:    4609759  HIT:    3890020  MISS:     719739
LLC LOAD      ACCESS:    2319226  HIT:    2099223  MISS:     220003
LLC RFO       ACCESS:     468769  HIT:     378235  MISS:      90534
LLC PREFETCH  ACCESS:     941511  HIT:     630050  MISS:     311461
LLC WRITEBACK ACCESS:     880253  HIT:     782512  MISS:      97741
LLC PREFETCH  REQUESTED:          0  ISSUED:          0  USEFUL:      16951  USELESS:     295353
LLC TOTAL MSHR MERGED:        122
LLC LOAD MSHR MERGED:         38
LLC RFO MSHR MERGED:          0
LLC PREFETCH MSHR MERGED:         84
LLC WRITEBACK MSHR MERGED:          0
LLC TOTAL ACCESSES:    4609913 HITS:    3890052 MISSES:     719861
LLC LOAD ACCESSES:    2319238 HITS:    2099235 MISSES:     220003
LLC RFO ACCESSES:     468780 HITS:     378246 MISSES:      90534
LLC PREFETCH ACCESSES:     941642 HITS:     630059 MISSES:     311583
LLC WRITEBACK ACCESSES:     880253 HITS:     782512 MISSES:      97741
LLC 0 RQ ACCESS:    2788018
LLC 0 RQ TO_CACHE:    2787995
LLC 0 RQ MERGED:          0
LLC 0 RQ FORWARD:          0
LLC WQ ACCESS:     880253
LLC WQ TO_CACHE:     880253
LLC WQ MERGED:          0
LLC WQ FORWARD:         32
Major fault: 0 Minor fault: 12862
CPU 0 L1D next line prefetcher final stats
CPU 0 L2C PC-based stride prefetcher final stats
All Misses: 845971
All Hits: 4580794
SD Algo Stats - Switches: 0 SRR-Repls: 256941 BRR-Repls: 0

DRAM Statistics
 CHANNEL 0
 RQ ROW_BUFFER_HIT:     120373  ROW_BUFFER_MISS:     499686
 DBUS_CONGESTED:     431112
 WQ ROW_BUFFER_HIT:      25211  ROW_BUFFER_MISS:     238341  FULL:          0

 AVG_CONGESTED_CYCLE: 13
LOADS RETIRED: 136549171
INSTR RETIRED: 500000000
