
*** ChampSim Multicore Out-of-Order Simulator ***

Warmup Instructions: 100000000
Simulation Instructions: 500000000
Number of CPUs: 1
LLC sets: 2048
LLC ways: 16
Clean RRIP Policies: 1313030113130301 Dirty RRIP Policies: 2313130123131301 PSEL Width: 10 Track Set: 4294967295 PSEL Mask: 1 Demote Mask: 3040201030402010DS Algo: 0Window size: 0
Off-chip DRAM Size: 4096 MB Channels: 1 Width: 64-bit Data Rate: 1600 MT/s

CPU 0 runs /mnt/beegfs/iconst01/spec2017/Omnetpp.trace.gz
NOT SORTED
TRACE STRING: /mnt/beegfs/iconst01/spec2017/Omnetpp.trace.gz
SORTED
TRACE STRING: /mnt/beegfs/iconst01/spec2017/Omnetpp.trace.gz
INITIAL
TRACE STRING: /mnt/beegfs/iconst01/spec2017/Omnetpp.trace.gz

champsim_seed used: 739

CPU 0 L1D next line prefetcher
CPU 0 L2C IP-based stride prefetcher
Initialize DRRIP state
Assign rand_sets[0]: 454  LLC: 2048
rand_sets[0]: 454
Assign rand_sets[1]: 1662  LLC: 2048
rand_sets[1]: 1662
Assign rand_sets[2]: 1921  LLC: 2048
rand_sets[2]: 1921
Assign rand_sets[3]: 1131  LLC: 2048
rand_sets[3]: 1131
Assign rand_sets[4]: 331  LLC: 2048
rand_sets[4]: 331
Assign rand_sets[5]: 1531  LLC: 2048
rand_sets[5]: 1531
Assign rand_sets[6]: 482  LLC: 2048
rand_sets[6]: 482
Assign rand_sets[7]: 1275  LLC: 2048
rand_sets[7]: 1275
Assign rand_sets[8]: 1876  LLC: 2048
rand_sets[8]: 1876
Assign rand_sets[9]: 2038  LLC: 2048
rand_sets[9]: 2038
Assign rand_sets[10]: 701  LLC: 2048
rand_sets[10]: 701
Assign rand_sets[11]: 479  LLC: 2048
rand_sets[11]: 479
Assign rand_sets[12]: 892  LLC: 2048
rand_sets[12]: 892
Assign rand_sets[13]: 1820  LLC: 2048
rand_sets[13]: 1820
Assign rand_sets[14]: 1505  LLC: 2048
rand_sets[14]: 1505
Assign rand_sets[15]: 1159  LLC: 2048
rand_sets[15]: 1159
Assign rand_sets[16]: 513  LLC: 2048
rand_sets[16]: 513
Assign rand_sets[17]: 703  LLC: 2048
rand_sets[17]: 703
Assign rand_sets[18]: 561  LLC: 2048
rand_sets[18]: 561
Assign rand_sets[19]: 990  LLC: 2048
rand_sets[19]: 990
Assign rand_sets[20]: 342  LLC: 2048
rand_sets[20]: 342
Assign rand_sets[21]: 882  LLC: 2048
rand_sets[21]: 882
Assign rand_sets[22]: 15  LLC: 2048
rand_sets[22]: 15
Assign rand_sets[23]: 71  LLC: 2048
rand_sets[23]: 71
Assign rand_sets[24]: 1127  LLC: 2048
rand_sets[24]: 1127
Assign rand_sets[25]: 1382  LLC: 2048
rand_sets[25]: 1382
Assign rand_sets[26]: 647  LLC: 2048
rand_sets[26]: 647
Assign rand_sets[27]: 857  LLC: 2048
rand_sets[27]: 857
Assign rand_sets[28]: 1450  LLC: 2048
rand_sets[28]: 1450
Assign rand_sets[29]: 1160  LLC: 2048
rand_sets[29]: 1160
Assign rand_sets[30]: 1852  LLC: 2048
rand_sets[30]: 1852
Assign rand_sets[31]: 1881  LLC: 2048
rand_sets[31]: 1881
Assign rand_sets[32]: 1770  LLC: 2048
rand_sets[32]: 1770
Assign rand_sets[33]: 1622  LLC: 2048
rand_sets[33]: 1622
Assign rand_sets[34]: 275  LLC: 2048
rand_sets[34]: 275
Assign rand_sets[35]: 635  LLC: 2048
rand_sets[35]: 635
Assign rand_sets[36]: 466  LLC: 2048
rand_sets[36]: 466
Assign rand_sets[37]: 1413  LLC: 2048
rand_sets[37]: 1413
Assign rand_sets[38]: 417  LLC: 2048
rand_sets[38]: 417
Assign rand_sets[39]: 472  LLC: 2048
rand_sets[39]: 472
Assign rand_sets[40]: 1340  LLC: 2048
rand_sets[40]: 1340
Assign rand_sets[41]: 852  LLC: 2048
rand_sets[41]: 852
Assign rand_sets[42]: 1365  LLC: 2048
rand_sets[42]: 1365
Assign rand_sets[43]: 47  LLC: 2048
rand_sets[43]: 47
Assign rand_sets[44]: 823  LLC: 2048
rand_sets[44]: 823
Assign rand_sets[45]: 686  LLC: 2048
rand_sets[45]: 686
Assign rand_sets[46]: 1637  LLC: 2048
rand_sets[46]: 1637
Assign rand_sets[47]: 1115  LLC: 2048
rand_sets[47]: 1115
Assign rand_sets[48]: 986  LLC: 2048
rand_sets[48]: 986
Assign rand_sets[49]: 258  LLC: 2048
rand_sets[49]: 258
Assign rand_sets[50]: 633  LLC: 2048
rand_sets[50]: 633
Assign rand_sets[51]: 920  LLC: 2048
rand_sets[51]: 920
Assign rand_sets[52]: 204  LLC: 2048
rand_sets[52]: 204
Assign rand_sets[53]: 227  LLC: 2048
rand_sets[53]: 227
Assign rand_sets[54]: 1818  LLC: 2048
rand_sets[54]: 1818
Assign rand_sets[55]: 886  LLC: 2048
rand_sets[55]: 886
Assign rand_sets[56]: 1422  LLC: 2048
rand_sets[56]: 1422
Assign rand_sets[57]: 607  LLC: 2048
rand_sets[57]: 607
Assign rand_sets[58]: 217  LLC: 2048
rand_sets[58]: 217
Assign rand_sets[59]: 1945  LLC: 2048
rand_sets[59]: 1945
Assign rand_sets[60]: 143  LLC: 2048
rand_sets[60]: 143
Assign rand_sets[61]: 1311  LLC: 2048
rand_sets[61]: 1311
Assign rand_sets[62]: 319  LLC: 2048
rand_sets[62]: 319
Assign rand_sets[63]: 1846  LLC: 2048
rand_sets[63]: 1846
 CLEAN-RRIP-POLICY-1: 1-3-1-3-0-3-0-1- CLEAN-RRIP-POLICY-2: 1-3-1-3-0-3-0-1-
 DIRTY-RRIP-POLICY-1: 2-3-1-3-1-3-0-1- DIRTY-RRIP-POLICY-2: 2-3-1-3-1-3-0-1-
 PSEL width: 10
Heartbeat CPU 0 instructions: 10000000 cycles: 7319800 heartbeat IPC: 1.36616 cumulative IPC: 1.36616 (Simulation time: 0 hr 0 min 20 sec) 
Heartbeat CPU 0 instructions: 20000000 cycles: 14623195 heartbeat IPC: 1.36923 cumulative IPC: 1.36769 (Simulation time: 0 hr 0 min 40 sec) 
Heartbeat CPU 0 instructions: 30000003 cycles: 21924154 heartbeat IPC: 1.36968 cumulative IPC: 1.36835 (Simulation time: 0 hr 1 min 0 sec) 
Heartbeat CPU 0 instructions: 40000000 cycles: 29212025 heartbeat IPC: 1.37214 cumulative IPC: 1.3693 (Simulation time: 0 hr 1 min 20 sec) 
Heartbeat CPU 0 instructions: 50000000 cycles: 36488070 heartbeat IPC: 1.37437 cumulative IPC: 1.37031 (Simulation time: 0 hr 1 min 40 sec) 
Heartbeat CPU 0 instructions: 60000000 cycles: 43767665 heartbeat IPC: 1.3737 cumulative IPC: 1.37088 (Simulation time: 0 hr 2 min 0 sec) 
Heartbeat CPU 0 instructions: 70000001 cycles: 51052662 heartbeat IPC: 1.37268 cumulative IPC: 1.37113 (Simulation time: 0 hr 2 min 20 sec) 
Heartbeat CPU 0 instructions: 80000000 cycles: 58327326 heartbeat IPC: 1.37463 cumulative IPC: 1.37157 (Simulation time: 0 hr 2 min 40 sec) 
Heartbeat CPU 0 instructions: 90000000 cycles: 65633334 heartbeat IPC: 1.36874 cumulative IPC: 1.37125 (Simulation time: 0 hr 3 min 0 sec) 
Heartbeat CPU 0 instructions: 100000000 cycles: 72925054 heartbeat IPC: 1.37142 cumulative IPC: 1.37127 (Simulation time: 0 hr 3 min 20 sec) 

Warmup complete CPU 0 instructions: 100000002 cycles: 72925055 (Simulation time: 0 hr 3 min 20 sec) 

Heartbeat CPU 0 instructions: 110000002 cycles: 113464611 heartbeat IPC: 0.246673 cumulative IPC: 0.246673 (Simulation time: 0 hr 4 min 0 sec) 
Heartbeat CPU 0 instructions: 120000000 cycles: 153739528 heartbeat IPC: 0.248293 cumulative IPC: 0.24748 (Simulation time: 0 hr 4 min 40 sec) 
Heartbeat CPU 0 instructions: 130000002 cycles: 194231612 heartbeat IPC: 0.246962 cumulative IPC: 0.247307 (Simulation time: 0 hr 5 min 20 sec) 
Heartbeat CPU 0 instructions: 140000000 cycles: 234840678 heartbeat IPC: 0.24625 cumulative IPC: 0.247042 (Simulation time: 0 hr 6 min 0 sec) 
Heartbeat CPU 0 instructions: 150000002 cycles: 275007126 heartbeat IPC: 0.248964 cumulative IPC: 0.247424 (Simulation time: 0 hr 6 min 39 sec) 
Heartbeat CPU 0 instructions: 160000000 cycles: 315196084 heartbeat IPC: 0.248825 cumulative IPC: 0.247657 (Simulation time: 0 hr 7 min 19 sec) 
Heartbeat CPU 0 instructions: 170000001 cycles: 354634564 heartbeat IPC: 0.253559 cumulative IPC: 0.248483 (Simulation time: 0 hr 7 min 58 sec) 
Heartbeat CPU 0 instructions: 180000000 cycles: 394866485 heartbeat IPC: 0.248559 cumulative IPC: 0.248492 (Simulation time: 0 hr 8 min 38 sec) 
Heartbeat CPU 0 instructions: 190000002 cycles: 435064126 heartbeat IPC: 0.248771 cumulative IPC: 0.248523 (Simulation time: 0 hr 9 min 17 sec) 
Heartbeat CPU 0 instructions: 200000000 cycles: 476373176 heartbeat IPC: 0.242078 cumulative IPC: 0.247863 (Simulation time: 0 hr 9 min 57 sec) 
Heartbeat CPU 0 instructions: 210000003 cycles: 516587901 heartbeat IPC: 0.248665 cumulative IPC: 0.247936 (Simulation time: 0 hr 10 min 37 sec) 
Heartbeat CPU 0 instructions: 220000000 cycles: 557015518 heartbeat IPC: 0.247356 cumulative IPC: 0.247888 (Simulation time: 0 hr 11 min 17 sec) 
Heartbeat CPU 0 instructions: 230000000 cycles: 597429152 heartbeat IPC: 0.247441 cumulative IPC: 0.247853 (Simulation time: 0 hr 11 min 57 sec) 
Heartbeat CPU 0 instructions: 240000000 cycles: 637566078 heartbeat IPC: 0.249147 cumulative IPC: 0.247945 (Simulation time: 0 hr 12 min 36 sec) 
Heartbeat CPU 0 instructions: 250000000 cycles: 677755307 heartbeat IPC: 0.248823 cumulative IPC: 0.248003 (Simulation time: 0 hr 13 min 15 sec) 
Heartbeat CPU 0 instructions: 260000000 cycles: 718060127 heartbeat IPC: 0.248109 cumulative IPC: 0.24801 (Simulation time: 0 hr 13 min 55 sec) 
Heartbeat CPU 0 instructions: 270000000 cycles: 758429689 heartbeat IPC: 0.247711 cumulative IPC: 0.247992 (Simulation time: 0 hr 14 min 34 sec) 
Heartbeat CPU 0 instructions: 280000000 cycles: 799151017 heartbeat IPC: 0.245572 cumulative IPC: 0.247857 (Simulation time: 0 hr 15 min 14 sec) 
Heartbeat CPU 0 instructions: 290000001 cycles: 839061067 heartbeat IPC: 0.250563 cumulative IPC: 0.247998 (Simulation time: 0 hr 15 min 53 sec) 
Heartbeat CPU 0 instructions: 300000000 cycles: 879643694 heartbeat IPC: 0.246411 cumulative IPC: 0.247918 (Simulation time: 0 hr 16 min 33 sec) 
Heartbeat CPU 0 instructions: 310000000 cycles: 920202984 heartbeat IPC: 0.246553 cumulative IPC: 0.247853 (Simulation time: 0 hr 17 min 12 sec) 
Heartbeat CPU 0 instructions: 320000000 cycles: 960434732 heartbeat IPC: 0.24856 cumulative IPC: 0.247885 (Simulation time: 0 hr 17 min 52 sec) 
Heartbeat CPU 0 instructions: 330000000 cycles: 1000673283 heartbeat IPC: 0.248518 cumulative IPC: 0.247912 (Simulation time: 0 hr 18 min 31 sec) 
Heartbeat CPU 0 instructions: 340000000 cycles: 1041491909 heartbeat IPC: 0.244986 cumulative IPC: 0.247789 (Simulation time: 0 hr 19 min 11 sec) 
Heartbeat CPU 0 instructions: 350000001 cycles: 1081798594 heartbeat IPC: 0.248098 cumulative IPC: 0.247801 (Simulation time: 0 hr 19 min 51 sec) 
Heartbeat CPU 0 instructions: 360000000 cycles: 1122407311 heartbeat IPC: 0.246253 cumulative IPC: 0.247741 (Simulation time: 0 hr 20 min 30 sec) 
Heartbeat CPU 0 instructions: 370000000 cycles: 1162107979 heartbeat IPC: 0.251885 cumulative IPC: 0.247892 (Simulation time: 0 hr 21 min 9 sec) 
Heartbeat CPU 0 instructions: 380000000 cycles: 1202715720 heartbeat IPC: 0.246258 cumulative IPC: 0.247834 (Simulation time: 0 hr 21 min 48 sec) 
Heartbeat CPU 0 instructions: 390000001 cycles: 1242849595 heartbeat IPC: 0.249166 cumulative IPC: 0.247879 (Simulation time: 0 hr 22 min 28 sec) 
Heartbeat CPU 0 instructions: 400000000 cycles: 1283081083 heartbeat IPC: 0.248562 cumulative IPC: 0.247902 (Simulation time: 0 hr 23 min 7 sec) 
Heartbeat CPU 0 instructions: 410000000 cycles: 1323161399 heartbeat IPC: 0.249499 cumulative IPC: 0.247953 (Simulation time: 0 hr 23 min 46 sec) 
Heartbeat CPU 0 instructions: 420000000 cycles: 1363253257 heartbeat IPC: 0.249427 cumulative IPC: 0.247999 (Simulation time: 0 hr 24 min 25 sec) 
Heartbeat CPU 0 instructions: 430000000 cycles: 1403418677 heartbeat IPC: 0.24897 cumulative IPC: 0.248028 (Simulation time: 0 hr 25 min 4 sec) 
Heartbeat CPU 0 instructions: 440000000 cycles: 1443649659 heartbeat IPC: 0.248565 cumulative IPC: 0.248044 (Simulation time: 0 hr 25 min 44 sec) 
Heartbeat CPU 0 instructions: 450000002 cycles: 1483762239 heartbeat IPC: 0.249298 cumulative IPC: 0.24808 (Simulation time: 0 hr 26 min 23 sec) 
Heartbeat CPU 0 instructions: 460000000 cycles: 1523293363 heartbeat IPC: 0.252965 cumulative IPC: 0.248213 (Simulation time: 0 hr 27 min 2 sec) 
Heartbeat CPU 0 instructions: 470000000 cycles: 1563701066 heartbeat IPC: 0.247478 cumulative IPC: 0.248193 (Simulation time: 0 hr 27 min 41 sec) 
Heartbeat CPU 0 instructions: 480000000 cycles: 1603703900 heartbeat IPC: 0.249982 cumulative IPC: 0.24824 (Simulation time: 0 hr 28 min 21 sec) 
Heartbeat CPU 0 instructions: 490000001 cycles: 1643876286 heartbeat IPC: 0.248927 cumulative IPC: 0.248257 (Simulation time: 0 hr 29 min 0 sec) 
Heartbeat CPU 0 instructions: 500000000 cycles: 1684240731 heartbeat IPC: 0.247743 cumulative IPC: 0.248244 (Simulation time: 0 hr 29 min 40 sec) 
Heartbeat CPU 0 instructions: 510000000 cycles: 1724086197 heartbeat IPC: 0.25097 cumulative IPC: 0.24831 (Simulation time: 0 hr 30 min 19 sec) 
Heartbeat CPU 0 instructions: 520000000 cycles: 1764698156 heartbeat IPC: 0.246233 cumulative IPC: 0.24826 (Simulation time: 0 hr 30 min 58 sec) 
Heartbeat CPU 0 instructions: 530000000 cycles: 1804756389 heartbeat IPC: 0.249637 cumulative IPC: 0.248292 (Simulation time: 0 hr 31 min 37 sec) 
Heartbeat CPU 0 instructions: 540000000 cycles: 1844573668 heartbeat IPC: 0.251147 cumulative IPC: 0.248356 (Simulation time: 0 hr 32 min 17 sec) 
Heartbeat CPU 0 instructions: 550000001 cycles: 1885102141 heartbeat IPC: 0.24674 cumulative IPC: 0.24832 (Simulation time: 0 hr 32 min 56 sec) 
Heartbeat CPU 0 instructions: 560000000 cycles: 1925715439 heartbeat IPC: 0.246225 cumulative IPC: 0.248274 (Simulation time: 0 hr 33 min 36 sec) 
Heartbeat CPU 0 instructions: 570000003 cycles: 1966341258 heartbeat IPC: 0.246149 cumulative IPC: 0.248229 (Simulation time: 0 hr 34 min 16 sec) 
Heartbeat CPU 0 instructions: 580000000 cycles: 2006778153 heartbeat IPC: 0.247299 cumulative IPC: 0.248209 (Simulation time: 0 hr 34 min 55 sec) 
Heartbeat CPU 0 instructions: 590000001 cycles: 2047548984 heartbeat IPC: 0.245273 cumulative IPC: 0.248149 (Simulation time: 0 hr 35 min 35 sec) 
Heartbeat CPU 0 instructions: 600000000 cycles: 2088123815 heartbeat IPC: 0.246458 cumulative IPC: 0.248114 (Simulation time: 0 hr 36 min 15 sec) 
Finished CPU 0 instructions: 500000000 cycles: 2015198768 cumulative IPC: 0.248114 (Simulation time: 0 hr 36 min 15 sec) 

CPU 0 Branch Prediction Accuracy: 96.2429% MPKI: 5.85335
Number of Branches: 77897976 Number of Mispredictions: 2926674
Number of LOAD Instructions: 193081861
Number of LOAD Instructions (ROI): 193081861
Number of STORE Instructions: 97310749
Number of STORE Instructions (ROI): 97310749
Total Destination Memory Operands: 106368027
Total Destination Memory Operands (ROI): 106368027
Total Source Memory Operands: 193081861
Total Source Memory Operands (ROI): 193081861
Number of DEPENDED LOADS: 6489622
Number of DEPENDED LOADS (ROI): 6489622
Number of SQ_ADDED: 106367982
Number of SQ_ADDED (ROI): 106367982
Number of LQ_ADDED: 427868400
Number of LQ_ADDED (ROI): 427868400
Number of Instructions read from trace: 600000256

ChampSim completed all CPUs

Region of Interest Statistics

CPU 0 cumulative IPC: 0.248114 instructions: 500000000 cycles: 2015198768
ITLB TOTAL     ACCESS:  150751571  HIT:  150735740  MISS:      15831
ITLB LOAD      ACCESS:  150751571  HIT:  150735740  MISS:      15831
ITLB RFO       ACCESS:          0  HIT:          0  MISS:          0
ITLB PREFETCH  ACCESS:          0  HIT:          0  MISS:          0
ITLB WRITEBACK ACCESS:          0  HIT:          0  MISS:          0
ITLB PREFETCH  REQUESTED:          0  ISSUED:          0  USEFUL:          0  USELESS:          0
ITLB TOTAL MSHR MERGED:      17708
ITLB LOAD MSHR MERGED:      17708
ITLB RFO MSHR MERGED:          0
ITLB PREFETCH MSHR MERGED:          0
ITLB WRITEBACK MSHR MERGED:          0
ITLB TOTAL ACCESSES:  150769279 HITS:  150735740 MISSES:      33539
ITLB LOAD ACCESSES:  150769279 HITS:  150735740 MISSES:      33539
ITLB RFO ACCESSES:          0 HITS:          0 MISSES:          0
ITLB PREFETCH ACCESSES:          0 HITS:          0 MISSES:          0
ITLB WRITEBACK ACCESSES:          0 HITS:          0 MISSES:          0
ITLB RQ ACCESS:  500000242
ITLB RQ TO_CACHE:  150769279
ITLB RQ MERGED:  349230963
ITLB RQ FORWARD:          0
ITLB WQ ACCESS:          0
ITLB WQ TO_CACHE:          0
ITLB WQ MERGED:          0
ITLB WQ FORWARD:          0
DTLB TOTAL     ACCESS:  199513456  HIT:  194134788  MISS:    5378668
DTLB LOAD      ACCESS:  123084349  HIT:  118066170  MISS:    5018179
DTLB RFO       ACCESS:   76429107  HIT:   76068618  MISS:     360489
DTLB PREFETCH  ACCESS:          0  HIT:          0  MISS:          0
DTLB WRITEBACK ACCESS:          0  HIT:          0  MISS:          0
DTLB PREFETCH  REQUESTED:          0  ISSUED:          0  USEFUL:          0  USELESS:          0
DTLB TOTAL MSHR MERGED:     916761
DTLB LOAD MSHR MERGED:     807256
DTLB RFO MSHR MERGED:     109505
DTLB PREFETCH MSHR MERGED:          0
DTLB WRITEBACK MSHR MERGED:          0
DTLB TOTAL ACCESSES:  200430217 HITS:  194134788 MISSES:    6295429
DTLB LOAD ACCESSES:  123891605 HITS:  118066170 MISSES:    5825435
DTLB RFO ACCESSES:   76538612 HITS:   76068618 MISSES:     469994
DTLB PREFETCH ACCESSES:          0 HITS:          0 MISSES:          0
DTLB WRITEBACK ACCESSES:          0 HITS:          0 MISSES:          0
DTLB RQ ACCESS:  243835827
DTLB RQ TO_CACHE:  200430217
DTLB RQ MERGED:   43405610
DTLB RQ FORWARD:          0
DTLB WQ ACCESS:          0
DTLB WQ TO_CACHE:          0
DTLB WQ MERGED:          0
DTLB WQ FORWARD:          0
L1D TOTAL     ACCESS:  335366027  HIT:  317270315  MISS:   18095712
L1D LOAD      ACCESS:  127623733  HIT:  118658508  MISS:    8965225
L1D RFO       ACCESS:   87063382  HIT:   86247856  MISS:     815526
L1D PREFETCH  ACCESS:  120678912  HIT:  112363951  MISS:    8314961
L1D WRITEBACK ACCESS:          0  HIT:          0  MISS:          0
L1D PREFETCH  REQUESTED:  128428302  ISSUED:  126830300  USEFUL:    1718070  USELESS:    6596903
L1D TOTAL MSHR MERGED:    3991801
L1D LOAD MSHR MERGED:     991043
L1D RFO MSHR MERGED:    1112256
L1D PREFETCH MSHR MERGED:    1888502
L1D WRITEBACK MSHR MERGED:          0
L1D TOTAL ACCESSES:  339442577 HITS:  317355064 MISSES:   22087513
L1D LOAD ACCESSES:  128428804 HITS:  118659010 MISSES:    9769794
L1D RFO ACCESSES:   88080987 HITS:   86247856 MISSES:    1833131
L1D PREFETCH ACCESSES:  122932786 HITS:  112448198 MISSES:   10484588
L1D WRITEBACK ACCESSES:          0 HITS:          0 MISSES:          0
L1D RQ ACCESS:  155204442
L1D RQ TO_CACHE:  128428302
L1D RQ MERGED:   26775638
L1D RQ FORWARD:          0
L1D WQ ACCESS:   88631385
L1D WQ TO_CACHE:   88080986
L1D WQ MERGED:     550399
L1D WQ FORWARD:      84749
L1I TOTAL     ACCESS:  175091806  HIT:  174825338  MISS:     266468
L1I LOAD      ACCESS:  175091806  HIT:  174825338  MISS:     266468
L1I RFO       ACCESS:          0  HIT:          0  MISS:          0
L1I PREFETCH  ACCESS:          0  HIT:          0  MISS:          0
L1I WRITEBACK ACCESS:          0  HIT:          0  MISS:          0
L1I PREFETCH  REQUESTED:          0  ISSUED:          0  USEFUL:          0  USELESS:          0
L1I TOTAL MSHR MERGED:     212988
L1I LOAD MSHR MERGED:     212988
L1I RFO MSHR MERGED:          0
L1I PREFETCH MSHR MERGED:          0
L1I WRITEBACK MSHR MERGED:          0
L1I TOTAL ACCESSES:  175304794 HITS:  174825338 MISSES:     479456
L1I LOAD ACCESSES:  175304794 HITS:  174825338 MISSES:     479456
L1I RFO ACCESSES:          0 HITS:          0 MISSES:          0
L1I PREFETCH ACCESSES:          0 HITS:          0 MISSES:          0
L1I WRITEBACK ACCESSES:          0 HITS:          0 MISSES:          0
L1I RQ ACCESS:  500000242
L1I RQ TO_CACHE:  175304794
L1I RQ MERGED:  324695448
L1I RQ FORWARD:          0
L1I WQ ACCESS:          0
L1I WQ TO_CACHE:          0
L1I WQ MERGED:          0
L1I WQ FORWARD:          0
L2C TOTAL     ACCESS:   23738181  HIT:   12112328  MISS:   11625853
L2C LOAD      ACCESS:    9044039  HIT:    3564465  MISS:    5479574
L2C RFO       ACCESS:     720818  HIT:     130474  MISS:     590344
L2C PREFETCH  ACCESS:    8613087  HIT:    3085856  MISS:    5527231
L2C WRITEBACK ACCESS:    5360237  HIT:    5331533  MISS:      28704
L2C PREFETCH  REQUESTED:      18045  ISSUED:      18045  USEFUL:     323019  USELESS:    5204386
L2C TOTAL MSHR MERGED:         24
L2C LOAD MSHR MERGED:          3
L2C RFO MSHR MERGED:          0
L2C PREFETCH MSHR MERGED:         21
L2C WRITEBACK MSHR MERGED:          0
L2C TOTAL ACCESSES:   23740001 HITS:   12114118 MISSES:   11625883
L2C LOAD ACCESSES:    9045219 HITS:    3565645 MISSES:    5479574
L2C RFO ACCESSES:     720875 HITS:     130531 MISSES:     590344
L2C PREFETCH ACCESSES:    8613670 HITS:    3086409 MISSES:    5527261
L2C WRITEBACK ACCESSES:    5360237 HITS:    5331533 MISSES:      28704
L2C RQ ACCESS:    9766094
L2C RQ TO_CACHE:    9764857
L2C RQ MERGED:          0
L2C RQ FORWARD:          0
L2C WQ ACCESS:    5360237
L2C WQ TO_CACHE:    5360237
L2C WQ MERGED:          0
L2C WQ FORWARD:       1790
LLC TOTAL     ACCESS:   15448792  HIT:    5871043  MISS:    9577749
LLC LOAD      ACCESS:    5479540  HIT:    2010972  MISS:    3468568
LLC RFO       ACCESS:     590342  HIT:     180771  MISS:     409571
LLC PREFETCH  ACCESS:    5527225  HIT:     814254  MISS:    4712971
LLC WRITEBACK ACCESS:    3851685  HIT:    2865046  MISS:     986639
LLC PREFETCH  REQUESTED:          0  ISSUED:          0  USEFUL:      23913  USELESS:    4689721
LLC TOTAL MSHR MERGED:          0
LLC LOAD MSHR MERGED:          0
LLC RFO MSHR MERGED:          0
LLC PREFETCH MSHR MERGED:          0
LLC WRITEBACK MSHR MERGED:          0
LLC TOTAL ACCESSES:   15448840 HITS:    5871091 MISSES:    9577749
LLC LOAD ACCESSES:    5479571 HITS:    2011003 MISSES:    3468568
LLC RFO ACCESSES:     590344 HITS:     180773 MISSES:     409571
LLC PREFETCH ACCESSES:    5527240 HITS:     814269 MISSES:    4712971
LLC WRITEBACK ACCESSES:    3851685 HITS:    2865046 MISSES:     986639
LLC 0 RQ ACCESS:    6069915
LLC 0 RQ TO_CACHE:    6069882
LLC 0 RQ MERGED:          0
LLC 0 RQ FORWARD:          0
LLC WQ ACCESS:    3851685
LLC WQ TO_CACHE:    3851685
LLC WQ MERGED:          0
LLC WQ FORWARD:         48
Major fault: 0 Minor fault: 44814
CPU 0 L1D next line prefetcher final stats
CPU 0 L2C PC-based stride prefetcher final stats
All Misses: 11607980
All Hits: 7013362
SD Algo Stats - Switches: 0 SRR-Repls: 3957318 BRR-Repls: 0

DRAM Statistics
 CHANNEL 0
 RQ ROW_BUFFER_HIT:    1490867  ROW_BUFFER_MISS:    7097927
 DBUS_CONGESTED:    5913155
 WQ ROW_BUFFER_HIT:     217024  ROW_BUFFER_MISS:    2345307  FULL:          0

 AVG_CONGESTED_CYCLE: 13
LOADS RETIRED: 160808997
INSTR RETIRED: 500000000
