
*** ChampSim Multicore Out-of-Order Simulator ***

Warmup Instructions: 100000000
Simulation Instructions: 500000000
Number of CPUs: 1
LLC sets: 2048
LLC ways: 16
Clean RRIP Policies: 1313030113130301 Dirty RRIP Policies: 2313130123131301 PSEL Width: 10 Track Set: 4294967295 PSEL Mask: 1 Demote Mask: 3040201030402010DS Algo: 0Window size: 0
Off-chip DRAM Size: 4096 MB Channels: 1 Width: 64-bit Data Rate: 1600 MT/s

CPU 0 runs /mnt/beegfs/iconst01/spec2017/Parest.trace.gz
NOT SORTED
TRACE STRING: /mnt/beegfs/iconst01/spec2017/Parest.trace.gz
SORTED
TRACE STRING: /mnt/beegfs/iconst01/spec2017/Parest.trace.gz
INITIAL
TRACE STRING: /mnt/beegfs/iconst01/spec2017/Parest.trace.gz

champsim_seed used: 623

CPU 0 L1D next line prefetcher
CPU 0 L2C IP-based stride prefetcher
Initialize DRRIP state
Assign rand_sets[0]: 454  LLC: 2048
rand_sets[0]: 454
Assign rand_sets[1]: 1662  LLC: 2048
rand_sets[1]: 1662
Assign rand_sets[2]: 1921  LLC: 2048
rand_sets[2]: 1921
Assign rand_sets[3]: 1131  LLC: 2048
rand_sets[3]: 1131
Assign rand_sets[4]: 331  LLC: 2048
rand_sets[4]: 331
Assign rand_sets[5]: 1531  LLC: 2048
rand_sets[5]: 1531
Assign rand_sets[6]: 482  LLC: 2048
rand_sets[6]: 482
Assign rand_sets[7]: 1275  LLC: 2048
rand_sets[7]: 1275
Assign rand_sets[8]: 1876  LLC: 2048
rand_sets[8]: 1876
Assign rand_sets[9]: 2038  LLC: 2048
rand_sets[9]: 2038
Assign rand_sets[10]: 701  LLC: 2048
rand_sets[10]: 701
Assign rand_sets[11]: 479  LLC: 2048
rand_sets[11]: 479
Assign rand_sets[12]: 892  LLC: 2048
rand_sets[12]: 892
Assign rand_sets[13]: 1820  LLC: 2048
rand_sets[13]: 1820
Assign rand_sets[14]: 1505  LLC: 2048
rand_sets[14]: 1505
Assign rand_sets[15]: 1159  LLC: 2048
rand_sets[15]: 1159
Assign rand_sets[16]: 513  LLC: 2048
rand_sets[16]: 513
Assign rand_sets[17]: 703  LLC: 2048
rand_sets[17]: 703
Assign rand_sets[18]: 561  LLC: 2048
rand_sets[18]: 561
Assign rand_sets[19]: 990  LLC: 2048
rand_sets[19]: 990
Assign rand_sets[20]: 342  LLC: 2048
rand_sets[20]: 342
Assign rand_sets[21]: 882  LLC: 2048
rand_sets[21]: 882
Assign rand_sets[22]: 15  LLC: 2048
rand_sets[22]: 15
Assign rand_sets[23]: 71  LLC: 2048
rand_sets[23]: 71
Assign rand_sets[24]: 1127  LLC: 2048
rand_sets[24]: 1127
Assign rand_sets[25]: 1382  LLC: 2048
rand_sets[25]: 1382
Assign rand_sets[26]: 647  LLC: 2048
rand_sets[26]: 647
Assign rand_sets[27]: 857  LLC: 2048
rand_sets[27]: 857
Assign rand_sets[28]: 1450  LLC: 2048
rand_sets[28]: 1450
Assign rand_sets[29]: 1160  LLC: 2048
rand_sets[29]: 1160
Assign rand_sets[30]: 1852  LLC: 2048
rand_sets[30]: 1852
Assign rand_sets[31]: 1881  LLC: 2048
rand_sets[31]: 1881
Assign rand_sets[32]: 1770  LLC: 2048
rand_sets[32]: 1770
Assign rand_sets[33]: 1622  LLC: 2048
rand_sets[33]: 1622
Assign rand_sets[34]: 275  LLC: 2048
rand_sets[34]: 275
Assign rand_sets[35]: 635  LLC: 2048
rand_sets[35]: 635
Assign rand_sets[36]: 466  LLC: 2048
rand_sets[36]: 466
Assign rand_sets[37]: 1413  LLC: 2048
rand_sets[37]: 1413
Assign rand_sets[38]: 417  LLC: 2048
rand_sets[38]: 417
Assign rand_sets[39]: 472  LLC: 2048
rand_sets[39]: 472
Assign rand_sets[40]: 1340  LLC: 2048
rand_sets[40]: 1340
Assign rand_sets[41]: 852  LLC: 2048
rand_sets[41]: 852
Assign rand_sets[42]: 1365  LLC: 2048
rand_sets[42]: 1365
Assign rand_sets[43]: 47  LLC: 2048
rand_sets[43]: 47
Assign rand_sets[44]: 823  LLC: 2048
rand_sets[44]: 823
Assign rand_sets[45]: 686  LLC: 2048
rand_sets[45]: 686
Assign rand_sets[46]: 1637  LLC: 2048
rand_sets[46]: 1637
Assign rand_sets[47]: 1115  LLC: 2048
rand_sets[47]: 1115
Assign rand_sets[48]: 986  LLC: 2048
rand_sets[48]: 986
Assign rand_sets[49]: 258  LLC: 2048
rand_sets[49]: 258
Assign rand_sets[50]: 633  LLC: 2048
rand_sets[50]: 633
Assign rand_sets[51]: 920  LLC: 2048
rand_sets[51]: 920
Assign rand_sets[52]: 204  LLC: 2048
rand_sets[52]: 204
Assign rand_sets[53]: 227  LLC: 2048
rand_sets[53]: 227
Assign rand_sets[54]: 1818  LLC: 2048
rand_sets[54]: 1818
Assign rand_sets[55]: 886  LLC: 2048
rand_sets[55]: 886
Assign rand_sets[56]: 1422  LLC: 2048
rand_sets[56]: 1422
Assign rand_sets[57]: 607  LLC: 2048
rand_sets[57]: 607
Assign rand_sets[58]: 217  LLC: 2048
rand_sets[58]: 217
Assign rand_sets[59]: 1945  LLC: 2048
rand_sets[59]: 1945
Assign rand_sets[60]: 143  LLC: 2048
rand_sets[60]: 143
Assign rand_sets[61]: 1311  LLC: 2048
rand_sets[61]: 1311
Assign rand_sets[62]: 319  LLC: 2048
rand_sets[62]: 319
Assign rand_sets[63]: 1846  LLC: 2048
rand_sets[63]: 1846
 CLEAN-RRIP-POLICY-1: 1-3-1-3-0-3-0-1- CLEAN-RRIP-POLICY-2: 1-3-1-3-0-3-0-1-
 DIRTY-RRIP-POLICY-1: 2-3-1-3-1-3-0-1- DIRTY-RRIP-POLICY-2: 2-3-1-3-1-3-0-1-
 PSEL width: 10
Heartbeat CPU 0 instructions: 10000001 cycles: 4387193 heartbeat IPC: 2.27936 cumulative IPC: 2.27936 (Simulation time: 0 hr 0 min 15 sec) 
Heartbeat CPU 0 instructions: 20000000 cycles: 8781409 heartbeat IPC: 2.27572 cumulative IPC: 2.27754 (Simulation time: 0 hr 0 min 29 sec) 
Heartbeat CPU 0 instructions: 30000003 cycles: 13213412 heartbeat IPC: 2.25632 cumulative IPC: 2.27042 (Simulation time: 0 hr 0 min 44 sec) 
Heartbeat CPU 0 instructions: 40000000 cycles: 17644171 heartbeat IPC: 2.25695 cumulative IPC: 2.26704 (Simulation time: 0 hr 0 min 58 sec) 
Heartbeat CPU 0 instructions: 50000000 cycles: 22052439 heartbeat IPC: 2.26846 cumulative IPC: 2.26732 (Simulation time: 0 hr 1 min 12 sec) 
Heartbeat CPU 0 instructions: 60000000 cycles: 26458183 heartbeat IPC: 2.26976 cumulative IPC: 2.26773 (Simulation time: 0 hr 1 min 27 sec) 
Heartbeat CPU 0 instructions: 70000000 cycles: 30859055 heartbeat IPC: 2.27228 cumulative IPC: 2.26838 (Simulation time: 0 hr 1 min 41 sec) 
Heartbeat CPU 0 instructions: 80000000 cycles: 35254692 heartbeat IPC: 2.27498 cumulative IPC: 2.2692 (Simulation time: 0 hr 1 min 56 sec) 
Heartbeat CPU 0 instructions: 90000000 cycles: 39649010 heartbeat IPC: 2.27567 cumulative IPC: 2.26992 (Simulation time: 0 hr 2 min 10 sec) 
Heartbeat CPU 0 instructions: 100000000 cycles: 44046360 heartbeat IPC: 2.2741 cumulative IPC: 2.27034 (Simulation time: 0 hr 2 min 25 sec) 

Warmup complete CPU 0 instructions: 100000002 cycles: 44046370 (Simulation time: 0 hr 2 min 25 sec) 

Heartbeat CPU 0 instructions: 110000000 cycles: 54302113 heartbeat IPC: 0.975062 cumulative IPC: 0.975063 (Simulation time: 0 hr 2 min 44 sec) 
Heartbeat CPU 0 instructions: 120000000 cycles: 63736437 heartbeat IPC: 1.05996 cumulative IPC: 1.01574 (Simulation time: 0 hr 3 min 3 sec) 
Heartbeat CPU 0 instructions: 130000001 cycles: 73162456 heartbeat IPC: 1.06089 cumulative IPC: 1.03036 (Simulation time: 0 hr 3 min 21 sec) 
Heartbeat CPU 0 instructions: 140000000 cycles: 82803158 heartbeat IPC: 1.03727 cumulative IPC: 1.03208 (Simulation time: 0 hr 3 min 40 sec) 
Heartbeat CPU 0 instructions: 150000000 cycles: 93828952 heartbeat IPC: 0.906964 cumulative IPC: 1.00437 (Simulation time: 0 hr 3 min 59 sec) 
Heartbeat CPU 0 instructions: 160000000 cycles: 103886741 heartbeat IPC: 0.994254 cumulative IPC: 1.00267 (Simulation time: 0 hr 4 min 18 sec) 
Heartbeat CPU 0 instructions: 170000003 cycles: 113845378 heartbeat IPC: 1.00415 cumulative IPC: 1.00288 (Simulation time: 0 hr 4 min 36 sec) 
Heartbeat CPU 0 instructions: 180000000 cycles: 123778308 heartbeat IPC: 1.00675 cumulative IPC: 1.00336 (Simulation time: 0 hr 4 min 55 sec) 
Heartbeat CPU 0 instructions: 190000002 cycles: 133857617 heartbeat IPC: 0.992132 cumulative IPC: 1.0021 (Simulation time: 0 hr 5 min 14 sec) 
Heartbeat CPU 0 instructions: 200000000 cycles: 143506350 heartbeat IPC: 1.03641 cumulative IPC: 1.00543 (Simulation time: 0 hr 5 min 32 sec) 
Heartbeat CPU 0 instructions: 210000000 cycles: 153513975 heartbeat IPC: 0.999238 cumulative IPC: 1.00486 (Simulation time: 0 hr 5 min 51 sec) 
Heartbeat CPU 0 instructions: 220000000 cycles: 162996611 heartbeat IPC: 1.05456 cumulative IPC: 1.00883 (Simulation time: 0 hr 6 min 10 sec) 
Heartbeat CPU 0 instructions: 230000001 cycles: 175435110 heartbeat IPC: 0.803956 cumulative IPC: 0.98943 (Simulation time: 0 hr 6 min 30 sec) 
Heartbeat CPU 0 instructions: 240000000 cycles: 185943550 heartbeat IPC: 0.951616 cumulative IPC: 0.98663 (Simulation time: 0 hr 6 min 49 sec) 
Heartbeat CPU 0 instructions: 250000002 cycles: 195917377 heartbeat IPC: 1.00262 cumulative IPC: 0.98768 (Simulation time: 0 hr 7 min 8 sec) 
Heartbeat CPU 0 instructions: 260000000 cycles: 205700735 heartbeat IPC: 1.02214 cumulative IPC: 0.989766 (Simulation time: 0 hr 7 min 26 sec) 
Heartbeat CPU 0 instructions: 270000001 cycles: 215402416 heartbeat IPC: 1.03075 cumulative IPC: 0.992086 (Simulation time: 0 hr 7 min 45 sec) 
Heartbeat CPU 0 instructions: 280000000 cycles: 225381134 heartbeat IPC: 1.00213 cumulative IPC: 0.992639 (Simulation time: 0 hr 8 min 3 sec) 
Heartbeat CPU 0 instructions: 290000002 cycles: 234869131 heartbeat IPC: 1.05396 cumulative IPC: 0.995688 (Simulation time: 0 hr 8 min 22 sec) 
Heartbeat CPU 0 instructions: 300000000 cycles: 244714142 heartbeat IPC: 1.01574 cumulative IPC: 0.996672 (Simulation time: 0 hr 8 min 41 sec) 
Heartbeat CPU 0 instructions: 310000000 cycles: 254143507 heartbeat IPC: 1.06052 cumulative IPC: 0.999538 (Simulation time: 0 hr 8 min 59 sec) 
Heartbeat CPU 0 instructions: 320000000 cycles: 263642517 heartbeat IPC: 1.05274 cumulative IPC: 1.00184 (Simulation time: 0 hr 9 min 18 sec) 
Heartbeat CPU 0 instructions: 330000003 cycles: 273256779 heartbeat IPC: 1.04012 cumulative IPC: 1.00344 (Simulation time: 0 hr 9 min 37 sec) 
Heartbeat CPU 0 instructions: 340000000 cycles: 283359420 heartbeat IPC: 0.98984 cumulative IPC: 1.00287 (Simulation time: 0 hr 9 min 56 sec) 
Heartbeat CPU 0 instructions: 350000000 cycles: 293580896 heartbeat IPC: 0.978332 cumulative IPC: 1.00187 (Simulation time: 0 hr 10 min 14 sec) 
Heartbeat CPU 0 instructions: 360000000 cycles: 303421918 heartbeat IPC: 1.01615 cumulative IPC: 1.00241 (Simulation time: 0 hr 10 min 33 sec) 
Heartbeat CPU 0 instructions: 370000000 cycles: 313110509 heartbeat IPC: 1.03214 cumulative IPC: 1.00348 (Simulation time: 0 hr 10 min 51 sec) 
Heartbeat CPU 0 instructions: 380000000 cycles: 322778752 heartbeat IPC: 1.03431 cumulative IPC: 1.00455 (Simulation time: 0 hr 11 min 10 sec) 
Heartbeat CPU 0 instructions: 390000002 cycles: 332264042 heartbeat IPC: 1.05426 cumulative IPC: 1.00618 (Simulation time: 0 hr 11 min 28 sec) 
Heartbeat CPU 0 instructions: 400000000 cycles: 342110044 heartbeat IPC: 1.01564 cumulative IPC: 1.0065 (Simulation time: 0 hr 11 min 47 sec) 
Heartbeat CPU 0 instructions: 410000000 cycles: 351509836 heartbeat IPC: 1.06385 cumulative IPC: 1.00825 (Simulation time: 0 hr 12 min 5 sec) 
Heartbeat CPU 0 instructions: 420000000 cycles: 362683148 heartbeat IPC: 0.89499 cumulative IPC: 1.00428 (Simulation time: 0 hr 12 min 25 sec) 
Heartbeat CPU 0 instructions: 430000000 cycles: 373522429 heartbeat IPC: 0.92257 cumulative IPC: 1.00159 (Simulation time: 0 hr 12 min 43 sec) 
Heartbeat CPU 0 instructions: 440000000 cycles: 383568141 heartbeat IPC: 0.99545 cumulative IPC: 1.00141 (Simulation time: 0 hr 13 min 2 sec) 
Heartbeat CPU 0 instructions: 450000000 cycles: 393551842 heartbeat IPC: 1.00163 cumulative IPC: 1.00141 (Simulation time: 0 hr 13 min 20 sec) 
Heartbeat CPU 0 instructions: 460000000 cycles: 403545783 heartbeat IPC: 1.00061 cumulative IPC: 1.00139 (Simulation time: 0 hr 13 min 39 sec) 
Heartbeat CPU 0 instructions: 470000001 cycles: 413622912 heartbeat IPC: 0.992346 cumulative IPC: 1.00115 (Simulation time: 0 hr 13 min 57 sec) 
Heartbeat CPU 0 instructions: 480000000 cycles: 423231279 heartbeat IPC: 1.04076 cumulative IPC: 1.00215 (Simulation time: 0 hr 14 min 16 sec) 
Heartbeat CPU 0 instructions: 490000002 cycles: 433252550 heartbeat IPC: 0.997878 cumulative IPC: 1.00204 (Simulation time: 0 hr 14 min 34 sec) 
Heartbeat CPU 0 instructions: 500000000 cycles: 442930122 heartbeat IPC: 1.03332 cumulative IPC: 1.0028 (Simulation time: 0 hr 14 min 53 sec) 
Heartbeat CPU 0 instructions: 510000000 cycles: 452433851 heartbeat IPC: 1.05222 cumulative IPC: 1.00395 (Simulation time: 0 hr 15 min 11 sec) 
Heartbeat CPU 0 instructions: 520000000 cycles: 462147091 heartbeat IPC: 1.02952 cumulative IPC: 1.00454 (Simulation time: 0 hr 15 min 30 sec) 
Heartbeat CPU 0 instructions: 530000001 cycles: 472505984 heartbeat IPC: 0.965354 cumulative IPC: 1.0036 (Simulation time: 0 hr 15 min 49 sec) 
Heartbeat CPU 0 instructions: 540000000 cycles: 482886271 heartbeat IPC: 0.963364 cumulative IPC: 1.00264 (Simulation time: 0 hr 16 min 7 sec) 
Heartbeat CPU 0 instructions: 550000003 cycles: 492927336 heartbeat IPC: 0.995911 cumulative IPC: 1.00249 (Simulation time: 0 hr 16 min 25 sec) 
Heartbeat CPU 0 instructions: 560000000 cycles: 502814400 heartbeat IPC: 1.01142 cumulative IPC: 1.00269 (Simulation time: 0 hr 16 min 44 sec) 
Heartbeat CPU 0 instructions: 570000002 cycles: 512650389 heartbeat IPC: 1.01667 cumulative IPC: 1.00298 (Simulation time: 0 hr 17 min 2 sec) 
Heartbeat CPU 0 instructions: 580000000 cycles: 522341996 heartbeat IPC: 1.03182 cumulative IPC: 1.00356 (Simulation time: 0 hr 17 min 20 sec) 
Heartbeat CPU 0 instructions: 590000002 cycles: 532319639 heartbeat IPC: 1.00224 cumulative IPC: 1.00354 (Simulation time: 0 hr 17 min 39 sec) 
Heartbeat CPU 0 instructions: 600000000 cycles: 541954807 heartbeat IPC: 1.03786 cumulative IPC: 1.0042 (Simulation time: 0 hr 17 min 57 sec) 
Finished CPU 0 instructions: 500000000 cycles: 497908451 cumulative IPC: 1.0042 (Simulation time: 0 hr 17 min 57 sec) 

CPU 0 Branch Prediction Accuracy: 97.8526% MPKI: 2.66709
Number of Branches: 62099103 Number of Mispredictions: 1333545
Number of LOAD Instructions: 210576465
Number of LOAD Instructions (ROI): 210576465
Number of STORE Instructions: 16915507
Number of STORE Instructions (ROI): 16915507
Total Destination Memory Operands: 16918869
Total Destination Memory Operands (ROI): 16918869
Total Source Memory Operands: 210576465
Total Source Memory Operands (ROI): 210576465
Number of DEPENDED LOADS: 344884
Number of DEPENDED LOADS (ROI): 344884
Number of SQ_ADDED: 16918826
Number of SQ_ADDED (ROI): 16918826
Number of LQ_ADDED: 210608476
Number of LQ_ADDED (ROI): 210608476
Number of Instructions read from trace: 600000257

ChampSim completed all CPUs

Region of Interest Statistics

CPU 0 cumulative IPC: 1.0042 instructions: 500000000 cycles: 497908451
ITLB TOTAL     ACCESS:   76279545  HIT:   76279507  MISS:         38
ITLB LOAD      ACCESS:   76279545  HIT:   76279507  MISS:         38
ITLB RFO       ACCESS:          0  HIT:          0  MISS:          0
ITLB PREFETCH  ACCESS:          0  HIT:          0  MISS:          0
ITLB WRITEBACK ACCESS:          0  HIT:          0  MISS:          0
ITLB PREFETCH  REQUESTED:          0  ISSUED:          0  USEFUL:          0  USELESS:          0
ITLB TOTAL MSHR MERGED:         37
ITLB LOAD MSHR MERGED:         37
ITLB RFO MSHR MERGED:          0
ITLB PREFETCH MSHR MERGED:          0
ITLB WRITEBACK MSHR MERGED:          0
ITLB TOTAL ACCESSES:   76279582 HITS:   76279507 MISSES:         75
ITLB LOAD ACCESSES:   76279582 HITS:   76279507 MISSES:         75
ITLB RFO ACCESSES:          0 HITS:          0 MISSES:          0
ITLB PREFETCH ACCESSES:          0 HITS:          0 MISSES:          0
ITLB WRITEBACK ACCESSES:          0 HITS:          0 MISSES:          0
ITLB RQ ACCESS:  500000188
ITLB RQ TO_CACHE:   76279583
ITLB RQ MERGED:  423720605
ITLB RQ FORWARD:          0
ITLB WQ ACCESS:          0
ITLB WQ TO_CACHE:          0
ITLB WQ MERGED:          0
ITLB WQ FORWARD:          0
DTLB TOTAL     ACCESS:  136818101  HIT:  136615302  MISS:     202799
DTLB LOAD      ACCESS:  128755622  HIT:  128555544  MISS:     200078
DTLB RFO       ACCESS:    8062479  HIT:    8059758  MISS:       2721
DTLB PREFETCH  ACCESS:          0  HIT:          0  MISS:          0
DTLB WRITEBACK ACCESS:          0  HIT:          0  MISS:          0
DTLB PREFETCH  REQUESTED:          0  ISSUED:          0  USEFUL:          0  USELESS:          0
DTLB TOTAL MSHR MERGED:     448668
DTLB LOAD MSHR MERGED:     445095
DTLB RFO MSHR MERGED:       3573
DTLB PREFETCH MSHR MERGED:          0
DTLB WRITEBACK MSHR MERGED:          0
DTLB TOTAL ACCESSES:  137266769 HITS:  136615302 MISSES:     651467
DTLB LOAD ACCESSES:  129200717 HITS:  128555544 MISSES:     645173
DTLB RFO ACCESSES:    8066052 HITS:    8059758 MISSES:       6294
DTLB PREFETCH ACCESSES:          0 HITS:          0 MISSES:          0
DTLB WRITEBACK ACCESSES:          0 HITS:          0 MISSES:          0
DTLB RQ ACCESS:  189419695
DTLB RQ TO_CACHE:  137266769
DTLB RQ MERGED:   52152926
DTLB RQ FORWARD:          0
DTLB WQ ACCESS:          0
DTLB WQ TO_CACHE:          0
DTLB WQ MERGED:          0
DTLB WQ FORWARD:          0
L1D TOTAL     ACCESS:  125455725  HIT:  107898868  MISS:   17556857
L1D LOAD      ACCESS:   72340892  HIT:   62081693  MISS:   10259199
L1D RFO       ACCESS:   14012611  HIT:   13859775  MISS:     152836
L1D PREFETCH  ACCESS:   39102222  HIT:   31957400  MISS:    7144822
L1D WRITEBACK ACCESS:          0  HIT:          0  MISS:          0
L1D PREFETCH  REQUESTED:   85533961  ISSUED:   84212467  USEFUL:    5885532  USELESS:    1259301
L1D TOTAL MSHR MERGED:   31454188
L1D LOAD MSHR MERGED:   18342864
L1D RFO MSHR MERGED:     268448
L1D PREFETCH MSHR MERGED:   12842876
L1D WRITEBACK MSHR MERGED:          0
L1D TOTAL ACCESSES:  156910422 HITS:  107899378 MISSES:   49011044
L1D LOAD ACCESSES:   85533979 HITS:   62081711 MISSES:   23452268
L1D RFO ACCESSES:   14281031 HITS:   13859775 MISSES:     421256
L1D PREFETCH ACCESSES:   57095412 HITS:   31957892 MISSES:   25137520
L1D WRITEBACK ACCESSES:          0 HITS:          0 MISSES:          0
L1D RQ ACCESS:  175130673
L1D RQ TO_CACHE:   85533961
L1D RQ MERGED:   89596694
L1D RQ FORWARD:          0
L1D WQ ACCESS:   14289037
L1D WQ TO_CACHE:   14281031
L1D WQ MERGED:       8006
L1D WQ FORWARD:        510
L1I TOTAL     ACCESS:   93306598  HIT:   93304802  MISS:       1796
L1I LOAD      ACCESS:   93306598  HIT:   93304802  MISS:       1796
L1I RFO       ACCESS:          0  HIT:          0  MISS:          0
L1I PREFETCH  ACCESS:          0  HIT:          0  MISS:          0
L1I WRITEBACK ACCESS:          0  HIT:          0  MISS:          0
L1I PREFETCH  REQUESTED:          0  ISSUED:          0  USEFUL:          0  USELESS:          0
L1I TOTAL MSHR MERGED:       2279
L1I LOAD MSHR MERGED:       2279
L1I RFO MSHR MERGED:          0
L1I PREFETCH MSHR MERGED:          0
L1I WRITEBACK MSHR MERGED:          0
L1I TOTAL ACCESSES:   93308877 HITS:   93304802 MISSES:       4075
L1I LOAD ACCESSES:   93308877 HITS:   93304802 MISSES:       4075
L1I RFO ACCESSES:          0 HITS:          0 MISSES:          0
L1I PREFETCH ACCESSES:          0 HITS:          0 MISSES:          0
L1I WRITEBACK ACCESSES:          0 HITS:          0 MISSES:          0
L1I RQ ACCESS:  500000187
L1I RQ TO_CACHE:   93308877
L1I RQ MERGED:  406691310
L1I RQ FORWARD:          0
L1I WQ ACCESS:          0
L1I WQ TO_CACHE:          0
L1I WQ MERGED:          0
L1I WQ FORWARD:          0
L2C TOTAL     ACCESS:   20895598  HIT:    8666309  MISS:   12229289
L2C LOAD      ACCESS:    5111176  HIT:    2142638  MISS:    2968538
L2C RFO       ACCESS:     152808  HIT:       6506  MISS:     146302
L2C PREFETCH  ACCESS:   13858860  HIT:    4744521  MISS:    9114339
L2C WRITEBACK ACCESS:    1772754  HIT:    1772644  MISS:        110
L2C PREFETCH  REQUESTED:    1805378  ISSUED:    1805378  USEFUL:    1066707  USELESS:    8049257
L2C TOTAL MSHR MERGED:      96700
L2C LOAD MSHR MERGED:      22836
L2C RFO MSHR MERGED:          0
L2C PREFETCH MSHR MERGED:      73864
L2C WRITEBACK MSHR MERGED:          0
L2C TOTAL ACCESSES:   21022917 HITS:    8666348 MISSES:   12356569
L2C LOAD ACCESSES:    5111200 HITS:    2142662 MISSES:    2968538
L2C RFO ACCESSES:     152808 HITS:       6506 MISSES:     146302
L2C PREFETCH ACCESSES:   13986155 HITS:    4744536 MISSES:    9241619
L2C WRITEBACK ACCESSES:    1772754 HITS:    1772644 MISSES:        110
L2C RQ ACCESS:    5264008
L2C RQ TO_CACHE:    5263984
L2C RQ MERGED:          0
L2C RQ FORWARD:          0
L2C WQ ACCESS:    1772754
L2C WQ TO_CACHE:    1772754
L2C WQ MERGED:          0
L2C WQ FORWARD:         39
LLC TOTAL     ACCESS:   12536191  HIT:    6592102  MISS:    5944089
LLC LOAD      ACCESS:    2945679  HIT:    2447447  MISS:     498232
LLC RFO       ACCESS:     146302  HIT:      45364  MISS:     100938
LLC PREFETCH  ACCESS:    9158230  HIT:    3898207  MISS:    5260023
LLC WRITEBACK ACCESS:     285980  HIT:     201084  MISS:      84896
LLC PREFETCH  REQUESTED:          0  ISSUED:          0  USEFUL:      19110  USELESS:    5241389
LLC TOTAL MSHR MERGED:       4212
LLC LOAD MSHR MERGED:       1181
LLC RFO MSHR MERGED:          0
LLC PREFETCH MSHR MERGED:       3031
LLC WRITEBACK MSHR MERGED:          0
LLC TOTAL ACCESSES:   12540438 HITS:    6592137 MISSES:    5948301
LLC LOAD ACCESSES:    2945702 HITS:    2447470 MISSES:     498232
LLC RFO ACCESSES:     146302 HITS:      45364 MISSES:     100938
LLC PREFETCH ACCESSES:    9162454 HITS:    3898219 MISSES:    5264235
LLC WRITEBACK ACCESSES:     285980 HITS:     201084 MISSES:      84896
LLC 0 RQ ACCESS:    3092004
LLC 0 RQ TO_CACHE:    3091981
LLC 0 RQ MERGED:          0
LLC 0 RQ FORWARD:          0
LLC WQ ACCESS:     285980
LLC WQ TO_CACHE:     285980
LLC WQ MERGED:          0
LLC WQ FORWARD:         35
Major fault: 0 Minor fault: 6524
CPU 0 L1D next line prefetcher final stats
CPU 0 L2C PC-based stride prefetcher final stats
All Misses: 7820501
All Hits: 7240703
SD Algo Stats - Switches: 0 SRR-Repls: 533026 BRR-Repls: 0

DRAM Statistics
 CHANNEL 0
 RQ ROW_BUFFER_HIT:    4966151  ROW_BUFFER_MISS:     880962
 DBUS_CONGESTED:    2072635
 WQ ROW_BUFFER_HIT:      29591  ROW_BUFFER_MISS:     109944  FULL:          0

 AVG_CONGESTED_CYCLE: 12
LOADS RETIRED: 175418235
INSTR RETIRED: 500000000
