
*** ChampSim Multicore Out-of-Order Simulator ***

Warmup Instructions: 100000000
Simulation Instructions: 500000000
Number of CPUs: 1
LLC sets: 2048
LLC ways: 16
Clean RRIP Policies: 1213030112130301 Dirty RRIP Policies: 2213130122131301 PSEL Width: 10 Track Set: 4294967295 PSEL Mask: 1 Demote Mask: 1340213013402130DS Algo: 0Window size: 0
Off-chip DRAM Size: 4096 MB Channels: 1 Width: 64-bit Data Rate: 1600 MT/s

CPU 0 runs /mnt/beegfs/iconst01/spec2017/Omnetpp.trace.gz
NOT SORTED
TRACE STRING: /mnt/beegfs/iconst01/spec2017/Omnetpp.trace.gz
SORTED
TRACE STRING: /mnt/beegfs/iconst01/spec2017/Omnetpp.trace.gz
INITIAL
TRACE STRING: /mnt/beegfs/iconst01/spec2017/Omnetpp.trace.gz

champsim_seed used: 739

CPU 0 L1D next line prefetcher
CPU 0 L2C IP-based stride prefetcher
Initialize DRRIP state
Assign rand_sets[0]: 454  LLC: 2048
rand_sets[0]: 454
Assign rand_sets[1]: 1662  LLC: 2048
rand_sets[1]: 1662
Assign rand_sets[2]: 1921  LLC: 2048
rand_sets[2]: 1921
Assign rand_sets[3]: 1131  LLC: 2048
rand_sets[3]: 1131
Assign rand_sets[4]: 331  LLC: 2048
rand_sets[4]: 331
Assign rand_sets[5]: 1531  LLC: 2048
rand_sets[5]: 1531
Assign rand_sets[6]: 482  LLC: 2048
rand_sets[6]: 482
Assign rand_sets[7]: 1275  LLC: 2048
rand_sets[7]: 1275
Assign rand_sets[8]: 1876  LLC: 2048
rand_sets[8]: 1876
Assign rand_sets[9]: 2038  LLC: 2048
rand_sets[9]: 2038
Assign rand_sets[10]: 701  LLC: 2048
rand_sets[10]: 701
Assign rand_sets[11]: 479  LLC: 2048
rand_sets[11]: 479
Assign rand_sets[12]: 892  LLC: 2048
rand_sets[12]: 892
Assign rand_sets[13]: 1820  LLC: 2048
rand_sets[13]: 1820
Assign rand_sets[14]: 1505  LLC: 2048
rand_sets[14]: 1505
Assign rand_sets[15]: 1159  LLC: 2048
rand_sets[15]: 1159
Assign rand_sets[16]: 513  LLC: 2048
rand_sets[16]: 513
Assign rand_sets[17]: 703  LLC: 2048
rand_sets[17]: 703
Assign rand_sets[18]: 561  LLC: 2048
rand_sets[18]: 561
Assign rand_sets[19]: 990  LLC: 2048
rand_sets[19]: 990
Assign rand_sets[20]: 342  LLC: 2048
rand_sets[20]: 342
Assign rand_sets[21]: 882  LLC: 2048
rand_sets[21]: 882
Assign rand_sets[22]: 15  LLC: 2048
rand_sets[22]: 15
Assign rand_sets[23]: 71  LLC: 2048
rand_sets[23]: 71
Assign rand_sets[24]: 1127  LLC: 2048
rand_sets[24]: 1127
Assign rand_sets[25]: 1382  LLC: 2048
rand_sets[25]: 1382
Assign rand_sets[26]: 647  LLC: 2048
rand_sets[26]: 647
Assign rand_sets[27]: 857  LLC: 2048
rand_sets[27]: 857
Assign rand_sets[28]: 1450  LLC: 2048
rand_sets[28]: 1450
Assign rand_sets[29]: 1160  LLC: 2048
rand_sets[29]: 1160
Assign rand_sets[30]: 1852  LLC: 2048
rand_sets[30]: 1852
Assign rand_sets[31]: 1881  LLC: 2048
rand_sets[31]: 1881
Assign rand_sets[32]: 1770  LLC: 2048
rand_sets[32]: 1770
Assign rand_sets[33]: 1622  LLC: 2048
rand_sets[33]: 1622
Assign rand_sets[34]: 275  LLC: 2048
rand_sets[34]: 275
Assign rand_sets[35]: 635  LLC: 2048
rand_sets[35]: 635
Assign rand_sets[36]: 466  LLC: 2048
rand_sets[36]: 466
Assign rand_sets[37]: 1413  LLC: 2048
rand_sets[37]: 1413
Assign rand_sets[38]: 417  LLC: 2048
rand_sets[38]: 417
Assign rand_sets[39]: 472  LLC: 2048
rand_sets[39]: 472
Assign rand_sets[40]: 1340  LLC: 2048
rand_sets[40]: 1340
Assign rand_sets[41]: 852  LLC: 2048
rand_sets[41]: 852
Assign rand_sets[42]: 1365  LLC: 2048
rand_sets[42]: 1365
Assign rand_sets[43]: 47  LLC: 2048
rand_sets[43]: 47
Assign rand_sets[44]: 823  LLC: 2048
rand_sets[44]: 823
Assign rand_sets[45]: 686  LLC: 2048
rand_sets[45]: 686
Assign rand_sets[46]: 1637  LLC: 2048
rand_sets[46]: 1637
Assign rand_sets[47]: 1115  LLC: 2048
rand_sets[47]: 1115
Assign rand_sets[48]: 986  LLC: 2048
rand_sets[48]: 986
Assign rand_sets[49]: 258  LLC: 2048
rand_sets[49]: 258
Assign rand_sets[50]: 633  LLC: 2048
rand_sets[50]: 633
Assign rand_sets[51]: 920  LLC: 2048
rand_sets[51]: 920
Assign rand_sets[52]: 204  LLC: 2048
rand_sets[52]: 204
Assign rand_sets[53]: 227  LLC: 2048
rand_sets[53]: 227
Assign rand_sets[54]: 1818  LLC: 2048
rand_sets[54]: 1818
Assign rand_sets[55]: 886  LLC: 2048
rand_sets[55]: 886
Assign rand_sets[56]: 1422  LLC: 2048
rand_sets[56]: 1422
Assign rand_sets[57]: 607  LLC: 2048
rand_sets[57]: 607
Assign rand_sets[58]: 217  LLC: 2048
rand_sets[58]: 217
Assign rand_sets[59]: 1945  LLC: 2048
rand_sets[59]: 1945
Assign rand_sets[60]: 143  LLC: 2048
rand_sets[60]: 143
Assign rand_sets[61]: 1311  LLC: 2048
rand_sets[61]: 1311
Assign rand_sets[62]: 319  LLC: 2048
rand_sets[62]: 319
Assign rand_sets[63]: 1846  LLC: 2048
rand_sets[63]: 1846
 CLEAN-RRIP-POLICY-1: 1-2-1-3-0-3-0-1- CLEAN-RRIP-POLICY-2: 1-2-1-3-0-3-0-1-
 DIRTY-RRIP-POLICY-1: 2-2-1-3-1-3-0-1- DIRTY-RRIP-POLICY-2: 2-2-1-3-1-3-0-1-
 PSEL width: 10
Heartbeat CPU 0 instructions: 10000000 cycles: 7320112 heartbeat IPC: 1.3661 cumulative IPC: 1.3661 (Simulation time: 0 hr 0 min 20 sec) 
Heartbeat CPU 0 instructions: 20000000 cycles: 14624052 heartbeat IPC: 1.36912 cumulative IPC: 1.36761 (Simulation time: 0 hr 0 min 39 sec) 
Heartbeat CPU 0 instructions: 30000003 cycles: 21925650 heartbeat IPC: 1.36956 cumulative IPC: 1.36826 (Simulation time: 0 hr 0 min 58 sec) 
Heartbeat CPU 0 instructions: 40000000 cycles: 29214093 heartbeat IPC: 1.37203 cumulative IPC: 1.3692 (Simulation time: 0 hr 1 min 18 sec) 
Heartbeat CPU 0 instructions: 50000000 cycles: 36490884 heartbeat IPC: 1.37423 cumulative IPC: 1.37021 (Simulation time: 0 hr 1 min 38 sec) 
Heartbeat CPU 0 instructions: 60000000 cycles: 43771112 heartbeat IPC: 1.37358 cumulative IPC: 1.37077 (Simulation time: 0 hr 1 min 57 sec) 
Heartbeat CPU 0 instructions: 70000001 cycles: 51056723 heartbeat IPC: 1.37257 cumulative IPC: 1.37102 (Simulation time: 0 hr 2 min 17 sec) 
Heartbeat CPU 0 instructions: 80000000 cycles: 58332006 heartbeat IPC: 1.37452 cumulative IPC: 1.37146 (Simulation time: 0 hr 2 min 37 sec) 
Heartbeat CPU 0 instructions: 90000000 cycles: 65638660 heartbeat IPC: 1.36862 cumulative IPC: 1.37114 (Simulation time: 0 hr 2 min 56 sec) 
Heartbeat CPU 0 instructions: 100000000 cycles: 72930993 heartbeat IPC: 1.3713 cumulative IPC: 1.37116 (Simulation time: 0 hr 3 min 16 sec) 

Warmup complete CPU 0 instructions: 100000002 cycles: 72930994 (Simulation time: 0 hr 3 min 16 sec) 

Heartbeat CPU 0 instructions: 110000002 cycles: 113523748 heartbeat IPC: 0.246349 cumulative IPC: 0.246349 (Simulation time: 0 hr 3 min 55 sec) 
Heartbeat CPU 0 instructions: 120000000 cycles: 153793460 heartbeat IPC: 0.248326 cumulative IPC: 0.247334 (Simulation time: 0 hr 4 min 34 sec) 
Heartbeat CPU 0 instructions: 130000002 cycles: 194284603 heartbeat IPC: 0.246968 cumulative IPC: 0.247211 (Simulation time: 0 hr 5 min 13 sec) 
Heartbeat CPU 0 instructions: 140000000 cycles: 234911856 heartbeat IPC: 0.24614 cumulative IPC: 0.246943 (Simulation time: 0 hr 5 min 53 sec) 
Heartbeat CPU 0 instructions: 150000002 cycles: 275104686 heartbeat IPC: 0.248801 cumulative IPC: 0.247312 (Simulation time: 0 hr 6 min 32 sec) 
Heartbeat CPU 0 instructions: 160000000 cycles: 315307136 heartbeat IPC: 0.248741 cumulative IPC: 0.247549 (Simulation time: 0 hr 7 min 11 sec) 
Heartbeat CPU 0 instructions: 170000001 cycles: 354760770 heartbeat IPC: 0.253462 cumulative IPC: 0.248377 (Simulation time: 0 hr 7 min 49 sec) 
Heartbeat CPU 0 instructions: 180000000 cycles: 394981302 heartbeat IPC: 0.248629 cumulative IPC: 0.248408 (Simulation time: 0 hr 8 min 28 sec) 
Heartbeat CPU 0 instructions: 190000002 cycles: 435194788 heartbeat IPC: 0.248673 cumulative IPC: 0.248438 (Simulation time: 0 hr 9 min 7 sec) 
Heartbeat CPU 0 instructions: 200000000 cycles: 476526979 heartbeat IPC: 0.241942 cumulative IPC: 0.247773 (Simulation time: 0 hr 9 min 47 sec) 
Heartbeat CPU 0 instructions: 210000003 cycles: 516766728 heartbeat IPC: 0.248511 cumulative IPC: 0.247839 (Simulation time: 0 hr 10 min 26 sec) 
Heartbeat CPU 0 instructions: 220000000 cycles: 557214951 heartbeat IPC: 0.24723 cumulative IPC: 0.247789 (Simulation time: 0 hr 11 min 5 sec) 
Heartbeat CPU 0 instructions: 230000000 cycles: 597646928 heartbeat IPC: 0.247329 cumulative IPC: 0.247753 (Simulation time: 0 hr 11 min 44 sec) 
Heartbeat CPU 0 instructions: 240000000 cycles: 637826092 heartbeat IPC: 0.248885 cumulative IPC: 0.247834 (Simulation time: 0 hr 12 min 23 sec) 
Heartbeat CPU 0 instructions: 250000000 cycles: 678027015 heartbeat IPC: 0.248751 cumulative IPC: 0.247895 (Simulation time: 0 hr 13 min 2 sec) 
Heartbeat CPU 0 instructions: 260000000 cycles: 718344534 heartbeat IPC: 0.248031 cumulative IPC: 0.247903 (Simulation time: 0 hr 13 min 41 sec) 
Heartbeat CPU 0 instructions: 270000000 cycles: 758730668 heartbeat IPC: 0.24761 cumulative IPC: 0.247886 (Simulation time: 0 hr 14 min 20 sec) 
Heartbeat CPU 0 instructions: 280000000 cycles: 799457860 heartbeat IPC: 0.245536 cumulative IPC: 0.247754 (Simulation time: 0 hr 14 min 59 sec) 
Heartbeat CPU 0 instructions: 290000001 cycles: 839400762 heartbeat IPC: 0.250357 cumulative IPC: 0.24789 (Simulation time: 0 hr 15 min 38 sec) 
Heartbeat CPU 0 instructions: 300000000 cycles: 880006451 heartbeat IPC: 0.246271 cumulative IPC: 0.247808 (Simulation time: 0 hr 16 min 16 sec) 
Heartbeat CPU 0 instructions: 310000000 cycles: 920569602 heartbeat IPC: 0.246529 cumulative IPC: 0.247747 (Simulation time: 0 hr 16 min 55 sec) 
Heartbeat CPU 0 instructions: 320000000 cycles: 960841853 heartbeat IPC: 0.24831 cumulative IPC: 0.247773 (Simulation time: 0 hr 17 min 34 sec) 
Heartbeat CPU 0 instructions: 330000000 cycles: 1001092561 heartbeat IPC: 0.248443 cumulative IPC: 0.247802 (Simulation time: 0 hr 18 min 13 sec) 
Heartbeat CPU 0 instructions: 340000000 cycles: 1041963607 heartbeat IPC: 0.244672 cumulative IPC: 0.24767 (Simulation time: 0 hr 18 min 52 sec) 
Heartbeat CPU 0 instructions: 350000001 cycles: 1082325006 heartbeat IPC: 0.247762 cumulative IPC: 0.247673 (Simulation time: 0 hr 19 min 31 sec) 
Heartbeat CPU 0 instructions: 360000000 cycles: 1122945478 heartbeat IPC: 0.246181 cumulative IPC: 0.247616 (Simulation time: 0 hr 20 min 9 sec) 
Heartbeat CPU 0 instructions: 370000000 cycles: 1162635386 heartbeat IPC: 0.251953 cumulative IPC: 0.247774 (Simulation time: 0 hr 20 min 48 sec) 
Heartbeat CPU 0 instructions: 380000000 cycles: 1203243740 heartbeat IPC: 0.246255 cumulative IPC: 0.247719 (Simulation time: 0 hr 21 min 26 sec) 
Heartbeat CPU 0 instructions: 390000001 cycles: 1243368145 heartbeat IPC: 0.249225 cumulative IPC: 0.247771 (Simulation time: 0 hr 22 min 5 sec) 
Heartbeat CPU 0 instructions: 400000000 cycles: 1283625159 heartbeat IPC: 0.248404 cumulative IPC: 0.247792 (Simulation time: 0 hr 22 min 43 sec) 
Heartbeat CPU 0 instructions: 410000000 cycles: 1323728751 heartbeat IPC: 0.249354 cumulative IPC: 0.247842 (Simulation time: 0 hr 23 min 22 sec) 
Heartbeat CPU 0 instructions: 420000000 cycles: 1363830891 heartbeat IPC: 0.249363 cumulative IPC: 0.247889 (Simulation time: 0 hr 24 min 0 sec) 
Heartbeat CPU 0 instructions: 430000000 cycles: 1404030696 heartbeat IPC: 0.248757 cumulative IPC: 0.247915 (Simulation time: 0 hr 24 min 39 sec) 
Heartbeat CPU 0 instructions: 440000000 cycles: 1444260307 heartbeat IPC: 0.248573 cumulative IPC: 0.247935 (Simulation time: 0 hr 25 min 17 sec) 
Heartbeat CPU 0 instructions: 450000002 cycles: 1484336855 heartbeat IPC: 0.249523 cumulative IPC: 0.24798 (Simulation time: 0 hr 25 min 55 sec) 
Heartbeat CPU 0 instructions: 460000000 cycles: 1523858771 heartbeat IPC: 0.253024 cumulative IPC: 0.248117 (Simulation time: 0 hr 26 min 34 sec) 
Heartbeat CPU 0 instructions: 470000000 cycles: 1564262061 heartbeat IPC: 0.247505 cumulative IPC: 0.248101 (Simulation time: 0 hr 27 min 12 sec) 
Heartbeat CPU 0 instructions: 480000000 cycles: 1604278686 heartbeat IPC: 0.249896 cumulative IPC: 0.248147 (Simulation time: 0 hr 27 min 51 sec) 
Heartbeat CPU 0 instructions: 490000001 cycles: 1644474417 heartbeat IPC: 0.248783 cumulative IPC: 0.248164 (Simulation time: 0 hr 28 min 29 sec) 
Heartbeat CPU 0 instructions: 500000000 cycles: 1684859916 heartbeat IPC: 0.247614 cumulative IPC: 0.24815 (Simulation time: 0 hr 29 min 6 sec) 
Heartbeat CPU 0 instructions: 510000000 cycles: 1724742132 heartbeat IPC: 0.250738 cumulative IPC: 0.248212 (Simulation time: 0 hr 29 min 42 sec) 
Heartbeat CPU 0 instructions: 520000000 cycles: 1765332700 heartbeat IPC: 0.246363 cumulative IPC: 0.248168 (Simulation time: 0 hr 30 min 18 sec) 
Heartbeat CPU 0 instructions: 530000000 cycles: 1805387407 heartbeat IPC: 0.249659 cumulative IPC: 0.248202 (Simulation time: 0 hr 30 min 54 sec) 
Heartbeat CPU 0 instructions: 540000000 cycles: 1845205581 heartbeat IPC: 0.251142 cumulative IPC: 0.248269 (Simulation time: 0 hr 31 min 30 sec) 
Heartbeat CPU 0 instructions: 550000001 cycles: 1885732757 heartbeat IPC: 0.246748 cumulative IPC: 0.248235 (Simulation time: 0 hr 32 min 6 sec) 
Heartbeat CPU 0 instructions: 560000000 cycles: 1926381577 heartbeat IPC: 0.24601 cumulative IPC: 0.248186 (Simulation time: 0 hr 32 min 42 sec) 
Heartbeat CPU 0 instructions: 570000003 cycles: 1966997702 heartbeat IPC: 0.246208 cumulative IPC: 0.248143 (Simulation time: 0 hr 33 min 19 sec) 
Heartbeat CPU 0 instructions: 580000000 cycles: 2007425242 heartbeat IPC: 0.247356 cumulative IPC: 0.248127 (Simulation time: 0 hr 33 min 55 sec) 
Heartbeat CPU 0 instructions: 590000001 cycles: 2048254038 heartbeat IPC: 0.244925 cumulative IPC: 0.248061 (Simulation time: 0 hr 34 min 31 sec) 
Heartbeat CPU 0 instructions: 600000000 cycles: 2088863707 heartbeat IPC: 0.246247 cumulative IPC: 0.248024 (Simulation time: 0 hr 35 min 7 sec) 
Finished CPU 0 instructions: 500000000 cycles: 2015932721 cumulative IPC: 0.248024 (Simulation time: 0 hr 35 min 7 sec) 

CPU 0 Branch Prediction Accuracy: 96.2429% MPKI: 5.85335
Number of Branches: 77897976 Number of Mispredictions: 2926674
Number of LOAD Instructions: 193081861
Number of LOAD Instructions (ROI): 193081861
Number of STORE Instructions: 97310749
Number of STORE Instructions (ROI): 97310749
Total Destination Memory Operands: 106368027
Total Destination Memory Operands (ROI): 106368027
Total Source Memory Operands: 193081861
Total Source Memory Operands (ROI): 193081861
Number of DEPENDED LOADS: 6461330
Number of DEPENDED LOADS (ROI): 6461330
Number of SQ_ADDED: 106367982
Number of SQ_ADDED (ROI): 106367982
Number of LQ_ADDED: 427609860
Number of LQ_ADDED (ROI): 427609860
Number of Instructions read from trace: 600000256

ChampSim completed all CPUs

Region of Interest Statistics

CPU 0 cumulative IPC: 0.248024 instructions: 500000000 cycles: 2015932721
ITLB TOTAL     ACCESS:  151101749  HIT:  151085918  MISS:      15831
ITLB LOAD      ACCESS:  151101749  HIT:  151085918  MISS:      15831
ITLB RFO       ACCESS:          0  HIT:          0  MISS:          0
ITLB PREFETCH  ACCESS:          0  HIT:          0  MISS:          0
ITLB WRITEBACK ACCESS:          0  HIT:          0  MISS:          0
ITLB PREFETCH  REQUESTED:          0  ISSUED:          0  USEFUL:          0  USELESS:          0
ITLB TOTAL MSHR MERGED:      17740
ITLB LOAD MSHR MERGED:      17740
ITLB RFO MSHR MERGED:          0
ITLB PREFETCH MSHR MERGED:          0
ITLB WRITEBACK MSHR MERGED:          0
ITLB TOTAL ACCESSES:  151119489 HITS:  151085918 MISSES:      33571
ITLB LOAD ACCESSES:  151119489 HITS:  151085918 MISSES:      33571
ITLB RFO ACCESSES:          0 HITS:          0 MISSES:          0
ITLB PREFETCH ACCESSES:          0 HITS:          0 MISSES:          0
ITLB WRITEBACK ACCESSES:          0 HITS:          0 MISSES:          0
ITLB RQ ACCESS:  500000242
ITLB RQ TO_CACHE:  151119489
ITLB RQ MERGED:  348880753
ITLB RQ FORWARD:          0
ITLB WQ ACCESS:          0
ITLB WQ TO_CACHE:          0
ITLB WQ MERGED:          0
ITLB WQ FORWARD:          0
DTLB TOTAL     ACCESS:  199543598  HIT:  194164651  MISS:    5378947
DTLB LOAD      ACCESS:  123114816  HIT:  118096356  MISS:    5018460
DTLB RFO       ACCESS:   76428782  HIT:   76068295  MISS:     360487
DTLB PREFETCH  ACCESS:          0  HIT:          0  MISS:          0
DTLB WRITEBACK ACCESS:          0  HIT:          0  MISS:          0
DTLB PREFETCH  REQUESTED:          0  ISSUED:          0  USEFUL:          0  USELESS:          0
DTLB TOTAL MSHR MERGED:     916498
DTLB LOAD MSHR MERGED:     807176
DTLB RFO MSHR MERGED:     109322
DTLB PREFETCH MSHR MERGED:          0
DTLB WRITEBACK MSHR MERGED:          0
DTLB TOTAL ACCESSES:  200460096 HITS:  194164651 MISSES:    6295445
DTLB LOAD ACCESSES:  123921992 HITS:  118096356 MISSES:    5825636
DTLB RFO ACCESSES:   76538104 HITS:   76068295 MISSES:     469809
DTLB PREFETCH ACCESSES:          0 HITS:          0 MISSES:          0
DTLB WRITEBACK ACCESSES:          0 HITS:          0 MISSES:          0
DTLB RQ ACCESS:  243864234
DTLB RQ TO_CACHE:  200460096
DTLB RQ MERGED:   43404138
DTLB RQ FORWARD:          0
DTLB WQ ACCESS:          0
DTLB WQ TO_CACHE:          0
DTLB WQ MERGED:          0
DTLB WQ FORWARD:          0
L1D TOTAL     ACCESS:  335516979  HIT:  317420974  MISS:   18096005
L1D LOAD      ACCESS:  127665228  HIT:  118716646  MISS:    8948582
L1D RFO       ACCESS:   87069510  HIT:   86276003  MISS:     793507
L1D PREFETCH  ACCESS:  120782241  HIT:  112428325  MISS:    8353916
L1D WRITEBACK ACCESS:          0  HIT:          0  MISS:          0
L1D PREFETCH  REQUESTED:  128457544  ISSUED:  126859527  USEFUL:    1735753  USELESS:    6618175
L1D TOTAL MSHR MERGED:    3898827
L1D LOAD MSHR MERGED:     961888
L1D RFO MSHR MERGED:    1084383
L1D PREFETCH MSHR MERGED:    1852556
L1D WRITEBACK MSHR MERGED:          0
L1D TOTAL ACCESSES:  339501448 HITS:  317506616 MISSES:   21994832
L1D LOAD ACCESSES:  128457999 HITS:  118717101 MISSES:    9740898
L1D RFO ACCESSES:   88081003 HITS:   86276003 MISSES:    1805000
L1D PREFETCH ACCESSES:  122962446 HITS:  112513512 MISSES:   10448934
L1D WRITEBACK ACCESSES:          0 HITS:          0 MISSES:          0
L1D RQ ACCESS:  155232849
L1D RQ TO_CACHE:  128457544
L1D RQ MERGED:   26774850
L1D RQ FORWARD:          0
L1D WQ ACCESS:   88631385
L1D WQ TO_CACHE:   88081002
L1D WQ MERGED:     550383
L1D WQ FORWARD:      85642
L1I TOTAL     ACCESS:  175416593  HIT:  175150129  MISS:     266464
L1I LOAD      ACCESS:  175416593  HIT:  175150129  MISS:     266464
L1I RFO       ACCESS:          0  HIT:          0  MISS:          0
L1I PREFETCH  ACCESS:          0  HIT:          0  MISS:          0
L1I WRITEBACK ACCESS:          0  HIT:          0  MISS:          0
L1I PREFETCH  REQUESTED:          0  ISSUED:          0  USEFUL:          0  USELESS:          0
L1I TOTAL MSHR MERGED:     213271
L1I LOAD MSHR MERGED:     213271
L1I RFO MSHR MERGED:          0
L1I PREFETCH MSHR MERGED:          0
L1I WRITEBACK MSHR MERGED:          0
L1I TOTAL ACCESSES:  175629864 HITS:  175150129 MISSES:     479735
L1I LOAD ACCESSES:  175629864 HITS:  175150129 MISSES:     479735
L1I RFO ACCESSES:          0 HITS:          0 MISSES:          0
L1I PREFETCH ACCESSES:          0 HITS:          0 MISSES:          0
L1I WRITEBACK ACCESSES:          0 HITS:          0 MISSES:          0
L1I RQ ACCESS:  500000242
L1I RQ TO_CACHE:  175629864
L1I RQ MERGED:  324370378
L1I RQ FORWARD:          0
L1I WQ ACCESS:          0
L1I WQ TO_CACHE:          0
L1I WQ MERGED:          0
L1I WQ FORWARD:          0
L2C TOTAL     ACCESS:   23738548  HIT:   12112840  MISS:   11625708
L2C LOAD      ACCESS:    9044307  HIT:    3564769  MISS:    5479538
L2C RFO       ACCESS:     720560  HIT:     130353  MISS:     590207
L2C PREFETCH  ACCESS:    8613384  HIT:    3086129  MISS:    5527255
L2C WRITEBACK ACCESS:    5360297  HIT:    5331589  MISS:      28708
L2C PREFETCH  REQUESTED:      18046  ISSUED:      18046  USEFUL:     323024  USELESS:    5204406
L2C TOTAL MSHR MERGED:         23
L2C LOAD MSHR MERGED:          2
L2C RFO MSHR MERGED:          0
L2C PREFETCH MSHR MERGED:         21
L2C WRITEBACK MSHR MERGED:          0
L2C TOTAL ACCESSES:   23740350 HITS:   12114615 MISSES:   11625735
L2C LOAD ACCESSES:    9045474 HITS:    3565936 MISSES:    5479538
L2C RFO ACCESSES:     720617 HITS:     130410 MISSES:     590207
L2C PREFETCH ACCESSES:    8613962 HITS:    3086680 MISSES:    5527282
L2C WRITEBACK ACCESSES:    5360297 HITS:    5331589 MISSES:      28708
L2C RQ ACCESS:    9766091
L2C RQ TO_CACHE:    9764867
L2C RQ MERGED:          0
L2C RQ FORWARD:          0
L2C WQ ACCESS:    5360297
L2C WQ TO_CACHE:    5360297
L2C WQ MERGED:          0
L2C WQ FORWARD:       1775
LLC TOTAL     ACCESS:   15448644  HIT:    6215583  MISS:    9233061
LLC LOAD      ACCESS:    5479507  HIT:    2001713  MISS:    3477794
LLC RFO       ACCESS:     590205  HIT:     255082  MISS:     335123
LLC PREFETCH  ACCESS:    5527244  HIT:     952787  MISS:    4574457
LLC WRITEBACK ACCESS:    3851688  HIT:    3006001  MISS:     845687
LLC PREFETCH  REQUESTED:          0  ISSUED:          0  USEFUL:      22522  USELESS:    4552371
LLC TOTAL MSHR MERGED:          0
LLC LOAD MSHR MERGED:          0
LLC RFO MSHR MERGED:          0
LLC PREFETCH MSHR MERGED:          0
LLC WRITEBACK MSHR MERGED:          0
LLC TOTAL ACCESSES:   15448692 HITS:    6215631 MISSES:    9233061
LLC LOAD ACCESSES:    5479536 HITS:    2001742 MISSES:    3477794
LLC RFO ACCESSES:     590207 HITS:     255084 MISSES:     335123
LLC PREFETCH ACCESSES:    5527261 HITS:     952804 MISSES:    4574457
LLC WRITEBACK ACCESSES:    3851688 HITS:    3006001 MISSES:     845687
LLC 0 RQ ACCESS:    6069743
LLC 0 RQ TO_CACHE:    6069712
LLC 0 RQ MERGED:          0
LLC 0 RQ FORWARD:          0
LLC WQ ACCESS:    3851688
LLC WQ TO_CACHE:    3851688
LLC WQ MERGED:          0
LLC WQ FORWARD:         48
Major fault: 0 Minor fault: 44814
CPU 0 L1D next line prefetcher final stats
CPU 0 L2C PC-based stride prefetcher final stats
All Misses: 11178791
All Hits: 7442344
SD Algo Stats - Switches: 0 SRR-Repls: 3970988 BRR-Repls: 0

DRAM Statistics
 CHANNEL 0
 RQ ROW_BUFFER_HIT:    1454730  ROW_BUFFER_MISS:    6930675
 DBUS_CONGESTED:    5694362
 WQ ROW_BUFFER_HIT:     192528  ROW_BUFFER_MISS:    2205370  FULL:          0

 AVG_CONGESTED_CYCLE: 13
LOADS RETIRED: 160808997
INSTR RETIRED: 500000000
