
*** ChampSim Multicore Out-of-Order Simulator ***

Warmup Instructions: 100000000
Simulation Instructions: 500000000
Number of CPUs: 1
LLC sets: 2048
LLC ways: 16
Clean RRIP Policies: 1213030112130301 Dirty RRIP Policies: 2213130122131301 PSEL Width: 10 Track Set: 4294967295 PSEL Mask: 1 Demote Mask: 1340213013402130DS Algo: 0Window size: 0
Off-chip DRAM Size: 4096 MB Channels: 1 Width: 64-bit Data Rate: 1600 MT/s

CPU 0 runs /mnt/beegfs/iconst01/spec2017/Xalancbmk.trace.gz
NOT SORTED
TRACE STRING: /mnt/beegfs/iconst01/spec2017/Xalancbmk.trace.gz
SORTED
TRACE STRING: /mnt/beegfs/iconst01/spec2017/Xalancbmk.trace.gz
INITIAL
TRACE STRING: /mnt/beegfs/iconst01/spec2017/Xalancbmk.trace.gz

champsim_seed used: 913

CPU 0 L1D next line prefetcher
CPU 0 L2C IP-based stride prefetcher
Initialize DRRIP state
Assign rand_sets[0]: 454  LLC: 2048
rand_sets[0]: 454
Assign rand_sets[1]: 1662  LLC: 2048
rand_sets[1]: 1662
Assign rand_sets[2]: 1921  LLC: 2048
rand_sets[2]: 1921
Assign rand_sets[3]: 1131  LLC: 2048
rand_sets[3]: 1131
Assign rand_sets[4]: 331  LLC: 2048
rand_sets[4]: 331
Assign rand_sets[5]: 1531  LLC: 2048
rand_sets[5]: 1531
Assign rand_sets[6]: 482  LLC: 2048
rand_sets[6]: 482
Assign rand_sets[7]: 1275  LLC: 2048
rand_sets[7]: 1275
Assign rand_sets[8]: 1876  LLC: 2048
rand_sets[8]: 1876
Assign rand_sets[9]: 2038  LLC: 2048
rand_sets[9]: 2038
Assign rand_sets[10]: 701  LLC: 2048
rand_sets[10]: 701
Assign rand_sets[11]: 479  LLC: 2048
rand_sets[11]: 479
Assign rand_sets[12]: 892  LLC: 2048
rand_sets[12]: 892
Assign rand_sets[13]: 1820  LLC: 2048
rand_sets[13]: 1820
Assign rand_sets[14]: 1505  LLC: 2048
rand_sets[14]: 1505
Assign rand_sets[15]: 1159  LLC: 2048
rand_sets[15]: 1159
Assign rand_sets[16]: 513  LLC: 2048
rand_sets[16]: 513
Assign rand_sets[17]: 703  LLC: 2048
rand_sets[17]: 703
Assign rand_sets[18]: 561  LLC: 2048
rand_sets[18]: 561
Assign rand_sets[19]: 990  LLC: 2048
rand_sets[19]: 990
Assign rand_sets[20]: 342  LLC: 2048
rand_sets[20]: 342
Assign rand_sets[21]: 882  LLC: 2048
rand_sets[21]: 882
Assign rand_sets[22]: 15  LLC: 2048
rand_sets[22]: 15
Assign rand_sets[23]: 71  LLC: 2048
rand_sets[23]: 71
Assign rand_sets[24]: 1127  LLC: 2048
rand_sets[24]: 1127
Assign rand_sets[25]: 1382  LLC: 2048
rand_sets[25]: 1382
Assign rand_sets[26]: 647  LLC: 2048
rand_sets[26]: 647
Assign rand_sets[27]: 857  LLC: 2048
rand_sets[27]: 857
Assign rand_sets[28]: 1450  LLC: 2048
rand_sets[28]: 1450
Assign rand_sets[29]: 1160  LLC: 2048
rand_sets[29]: 1160
Assign rand_sets[30]: 1852  LLC: 2048
rand_sets[30]: 1852
Assign rand_sets[31]: 1881  LLC: 2048
rand_sets[31]: 1881
Assign rand_sets[32]: 1770  LLC: 2048
rand_sets[32]: 1770
Assign rand_sets[33]: 1622  LLC: 2048
rand_sets[33]: 1622
Assign rand_sets[34]: 275  LLC: 2048
rand_sets[34]: 275
Assign rand_sets[35]: 635  LLC: 2048
rand_sets[35]: 635
Assign rand_sets[36]: 466  LLC: 2048
rand_sets[36]: 466
Assign rand_sets[37]: 1413  LLC: 2048
rand_sets[37]: 1413
Assign rand_sets[38]: 417  LLC: 2048
rand_sets[38]: 417
Assign rand_sets[39]: 472  LLC: 2048
rand_sets[39]: 472
Assign rand_sets[40]: 1340  LLC: 2048
rand_sets[40]: 1340
Assign rand_sets[41]: 852  LLC: 2048
rand_sets[41]: 852
Assign rand_sets[42]: 1365  LLC: 2048
rand_sets[42]: 1365
Assign rand_sets[43]: 47  LLC: 2048
rand_sets[43]: 47
Assign rand_sets[44]: 823  LLC: 2048
rand_sets[44]: 823
Assign rand_sets[45]: 686  LLC: 2048
rand_sets[45]: 686
Assign rand_sets[46]: 1637  LLC: 2048
rand_sets[46]: 1637
Assign rand_sets[47]: 1115  LLC: 2048
rand_sets[47]: 1115
Assign rand_sets[48]: 986  LLC: 2048
rand_sets[48]: 986
Assign rand_sets[49]: 258  LLC: 2048
rand_sets[49]: 258
Assign rand_sets[50]: 633  LLC: 2048
rand_sets[50]: 633
Assign rand_sets[51]: 920  LLC: 2048
rand_sets[51]: 920
Assign rand_sets[52]: 204  LLC: 2048
rand_sets[52]: 204
Assign rand_sets[53]: 227  LLC: 2048
rand_sets[53]: 227
Assign rand_sets[54]: 1818  LLC: 2048
rand_sets[54]: 1818
Assign rand_sets[55]: 886  LLC: 2048
rand_sets[55]: 886
Assign rand_sets[56]: 1422  LLC: 2048
rand_sets[56]: 1422
Assign rand_sets[57]: 607  LLC: 2048
rand_sets[57]: 607
Assign rand_sets[58]: 217  LLC: 2048
rand_sets[58]: 217
Assign rand_sets[59]: 1945  LLC: 2048
rand_sets[59]: 1945
Assign rand_sets[60]: 143  LLC: 2048
rand_sets[60]: 143
Assign rand_sets[61]: 1311  LLC: 2048
rand_sets[61]: 1311
Assign rand_sets[62]: 319  LLC: 2048
rand_sets[62]: 319
Assign rand_sets[63]: 1846  LLC: 2048
rand_sets[63]: 1846
 CLEAN-RRIP-POLICY-1: 1-2-1-3-0-3-0-1- CLEAN-RRIP-POLICY-2: 1-2-1-3-0-3-0-1-
 DIRTY-RRIP-POLICY-1: 2-2-1-3-1-3-0-1- DIRTY-RRIP-POLICY-2: 2-2-1-3-1-3-0-1-
 PSEL width: 10
Heartbeat CPU 0 instructions: 10000003 cycles: 4586175 heartbeat IPC: 2.18047 cumulative IPC: 2.18047 (Simulation time: 0 hr 0 min 15 sec) 
Heartbeat CPU 0 instructions: 20000000 cycles: 8976973 heartbeat IPC: 2.27749 cumulative IPC: 2.22792 (Simulation time: 0 hr 0 min 29 sec) 
Heartbeat CPU 0 instructions: 30000000 cycles: 13385301 heartbeat IPC: 2.26843 cumulative IPC: 2.24126 (Simulation time: 0 hr 0 min 43 sec) 
Heartbeat CPU 0 instructions: 40000000 cycles: 18009632 heartbeat IPC: 2.16247 cumulative IPC: 2.22103 (Simulation time: 0 hr 0 min 59 sec) 
Heartbeat CPU 0 instructions: 50000002 cycles: 22422590 heartbeat IPC: 2.26605 cumulative IPC: 2.22989 (Simulation time: 0 hr 1 min 13 sec) 
Heartbeat CPU 0 instructions: 60000000 cycles: 27073937 heartbeat IPC: 2.14991 cumulative IPC: 2.21615 (Simulation time: 0 hr 1 min 29 sec) 
Heartbeat CPU 0 instructions: 70000003 cycles: 31477110 heartbeat IPC: 2.27109 cumulative IPC: 2.22384 (Simulation time: 0 hr 1 min 44 sec) 
Heartbeat CPU 0 instructions: 80000000 cycles: 35901143 heartbeat IPC: 2.26038 cumulative IPC: 2.22834 (Simulation time: 0 hr 1 min 58 sec) 
Heartbeat CPU 0 instructions: 90000002 cycles: 40357152 heartbeat IPC: 2.24416 cumulative IPC: 2.23009 (Simulation time: 0 hr 2 min 12 sec) 
Heartbeat CPU 0 instructions: 100000000 cycles: 44831150 heartbeat IPC: 2.23514 cumulative IPC: 2.23059 (Simulation time: 0 hr 2 min 27 sec) 

Warmup complete CPU 0 instructions: 100000003 cycles: 44831151 (Simulation time: 0 hr 2 min 27 sec) 

Heartbeat CPU 0 instructions: 110000000 cycles: 71236604 heartbeat IPC: 0.37871 cumulative IPC: 0.37871 (Simulation time: 0 hr 2 min 58 sec) 
Heartbeat CPU 0 instructions: 120000000 cycles: 98961579 heartbeat IPC: 0.360686 cumulative IPC: 0.369478 (Simulation time: 0 hr 3 min 30 sec) 
Heartbeat CPU 0 instructions: 130000000 cycles: 122400774 heartbeat IPC: 0.426636 cumulative IPC: 0.386749 (Simulation time: 0 hr 3 min 59 sec) 
Heartbeat CPU 0 instructions: 140000000 cycles: 144904271 heartbeat IPC: 0.444375 cumulative IPC: 0.399708 (Simulation time: 0 hr 4 min 28 sec) 
Heartbeat CPU 0 instructions: 150000000 cycles: 169278611 heartbeat IPC: 0.410268 cumulative IPC: 0.401776 (Simulation time: 0 hr 4 min 57 sec) 
Heartbeat CPU 0 instructions: 160000000 cycles: 193962542 heartbeat IPC: 0.405122 cumulative IPC: 0.40233 (Simulation time: 0 hr 5 min 27 sec) 
Heartbeat CPU 0 instructions: 170000002 cycles: 215139117 heartbeat IPC: 0.47222 cumulative IPC: 0.41102 (Simulation time: 0 hr 5 min 54 sec) 
Heartbeat CPU 0 instructions: 180000000 cycles: 238081891 heartbeat IPC: 0.435867 cumulative IPC: 0.41397 (Simulation time: 0 hr 6 min 22 sec) 
Heartbeat CPU 0 instructions: 190000000 cycles: 257096171 heartbeat IPC: 0.525921 cumulative IPC: 0.423998 (Simulation time: 0 hr 6 min 48 sec) 
Heartbeat CPU 0 instructions: 200000000 cycles: 278365620 heartbeat IPC: 0.470158 cumulative IPC: 0.428202 (Simulation time: 0 hr 7 min 15 sec) 
Heartbeat CPU 0 instructions: 210000001 cycles: 304544323 heartbeat IPC: 0.38199 cumulative IPC: 0.423544 (Simulation time: 0 hr 7 min 45 sec) 
Heartbeat CPU 0 instructions: 220000000 cycles: 330225130 heartbeat IPC: 0.389396 cumulative IPC: 0.420471 (Simulation time: 0 hr 8 min 15 sec) 
Heartbeat CPU 0 instructions: 230000000 cycles: 352301861 heartbeat IPC: 0.452966 cumulative IPC: 0.422805 (Simulation time: 0 hr 8 min 43 sec) 
Heartbeat CPU 0 instructions: 240000000 cycles: 377770763 heartbeat IPC: 0.392636 cumulative IPC: 0.420497 (Simulation time: 0 hr 9 min 13 sec) 
Heartbeat CPU 0 instructions: 250000001 cycles: 402458011 heartbeat IPC: 0.405067 cumulative IPC: 0.419432 (Simulation time: 0 hr 9 min 43 sec) 
Heartbeat CPU 0 instructions: 260000000 cycles: 423500852 heartbeat IPC: 0.475221 cumulative IPC: 0.422532 (Simulation time: 0 hr 10 min 10 sec) 
Heartbeat CPU 0 instructions: 270000000 cycles: 445446507 heartbeat IPC: 0.455671 cumulative IPC: 0.424347 (Simulation time: 0 hr 10 min 37 sec) 
Heartbeat CPU 0 instructions: 280000000 cycles: 472659007 heartbeat IPC: 0.367478 cumulative IPC: 0.42073 (Simulation time: 0 hr 11 min 9 sec) 
Heartbeat CPU 0 instructions: 290000000 cycles: 493888105 heartbeat IPC: 0.471052 cumulative IPC: 0.423109 (Simulation time: 0 hr 11 min 36 sec) 
Heartbeat CPU 0 instructions: 300000000 cycles: 514545644 heartbeat IPC: 0.484085 cumulative IPC: 0.425791 (Simulation time: 0 hr 12 min 2 sec) 
Heartbeat CPU 0 instructions: 310000000 cycles: 533813357 heartbeat IPC: 0.519003 cumulative IPC: 0.429463 (Simulation time: 0 hr 12 min 28 sec) 
Heartbeat CPU 0 instructions: 320000000 cycles: 562704361 heartbeat IPC: 0.346128 cumulative IPC: 0.424814 (Simulation time: 0 hr 13 min 0 sec) 
Heartbeat CPU 0 instructions: 330000001 cycles: 582071040 heartbeat IPC: 0.516351 cumulative IPC: 0.428114 (Simulation time: 0 hr 13 min 26 sec) 
Heartbeat CPU 0 instructions: 340000000 cycles: 601416271 heartbeat IPC: 0.516923 cumulative IPC: 0.431201 (Simulation time: 0 hr 13 min 51 sec) 
Heartbeat CPU 0 instructions: 350000001 cycles: 626081462 heartbeat IPC: 0.40543 cumulative IPC: 0.430107 (Simulation time: 0 hr 14 min 21 sec) 
Heartbeat CPU 0 instructions: 360000000 cycles: 648372624 heartbeat IPC: 0.448608 cumulative IPC: 0.430791 (Simulation time: 0 hr 14 min 48 sec) 
Heartbeat CPU 0 instructions: 370000001 cycles: 673377253 heartbeat IPC: 0.399926 cumulative IPC: 0.429563 (Simulation time: 0 hr 15 min 18 sec) 
Heartbeat CPU 0 instructions: 380000000 cycles: 696299175 heartbeat IPC: 0.436264 cumulative IPC: 0.429799 (Simulation time: 0 hr 15 min 46 sec) 
Heartbeat CPU 0 instructions: 390000000 cycles: 715076896 heartbeat IPC: 0.532546 cumulative IPC: 0.432677 (Simulation time: 0 hr 16 min 11 sec) 
Heartbeat CPU 0 instructions: 400000000 cycles: 734921373 heartbeat IPC: 0.503919 cumulative IPC: 0.434726 (Simulation time: 0 hr 16 min 37 sec) 
Heartbeat CPU 0 instructions: 410000001 cycles: 760665674 heartbeat IPC: 0.388436 cumulative IPC: 0.433061 (Simulation time: 0 hr 17 min 7 sec) 
Heartbeat CPU 0 instructions: 420000000 cycles: 785150740 heartbeat IPC: 0.408412 cumulative IPC: 0.432246 (Simulation time: 0 hr 17 min 36 sec) 
Heartbeat CPU 0 instructions: 430000002 cycles: 806522470 heartbeat IPC: 0.467908 cumulative IPC: 0.433246 (Simulation time: 0 hr 18 min 3 sec) 
Heartbeat CPU 0 instructions: 440000000 cycles: 826969167 heartbeat IPC: 0.489076 cumulative IPC: 0.434706 (Simulation time: 0 hr 18 min 29 sec) 
Heartbeat CPU 0 instructions: 450000002 cycles: 853322835 heartbeat IPC: 0.379454 cumulative IPC: 0.432905 (Simulation time: 0 hr 19 min 0 sec) 
Heartbeat CPU 0 instructions: 460000000 cycles: 878928864 heartbeat IPC: 0.390533 cumulative IPC: 0.431604 (Simulation time: 0 hr 19 min 30 sec) 
Heartbeat CPU 0 instructions: 470000002 cycles: 904665425 heartbeat IPC: 0.388552 cumulative IPC: 0.430315 (Simulation time: 0 hr 20 min 0 sec) 
Heartbeat CPU 0 instructions: 480000000 cycles: 929253026 heartbeat IPC: 0.406709 cumulative IPC: 0.429659 (Simulation time: 0 hr 20 min 29 sec) 
Heartbeat CPU 0 instructions: 490000000 cycles: 950140976 heartbeat IPC: 0.478745 cumulative IPC: 0.430792 (Simulation time: 0 hr 20 min 55 sec) 
Heartbeat CPU 0 instructions: 500000000 cycles: 974772051 heartbeat IPC: 0.405991 cumulative IPC: 0.430135 (Simulation time: 0 hr 21 min 24 sec) 
Heartbeat CPU 0 instructions: 510000000 cycles: 999716530 heartbeat IPC: 0.40089 cumulative IPC: 0.429371 (Simulation time: 0 hr 21 min 54 sec) 
Heartbeat CPU 0 instructions: 520000000 cycles: 1020865572 heartbeat IPC: 0.472835 cumulative IPC: 0.430313 (Simulation time: 0 hr 22 min 20 sec) 
Heartbeat CPU 0 instructions: 530000003 cycles: 1046280556 heartbeat IPC: 0.393469 cumulative IPC: 0.429378 (Simulation time: 0 hr 22 min 50 sec) 
Heartbeat CPU 0 instructions: 540000000 cycles: 1069065477 heartbeat IPC: 0.438887 cumulative IPC: 0.429589 (Simulation time: 0 hr 23 min 18 sec) 
Heartbeat CPU 0 instructions: 550000000 cycles: 1094228484 heartbeat IPC: 0.397409 cumulative IPC: 0.428818 (Simulation time: 0 hr 23 min 47 sec) 
Heartbeat CPU 0 instructions: 560000000 cycles: 1117858611 heartbeat IPC: 0.423189 cumulative IPC: 0.428694 (Simulation time: 0 hr 24 min 16 sec) 
Heartbeat CPU 0 instructions: 570000002 cycles: 1141222998 heartbeat IPC: 0.428002 cumulative IPC: 0.428679 (Simulation time: 0 hr 24 min 44 sec) 
Heartbeat CPU 0 instructions: 580000000 cycles: 1162369481 heartbeat IPC: 0.472892 cumulative IPC: 0.429515 (Simulation time: 0 hr 25 min 11 sec) 
Heartbeat CPU 0 instructions: 590000001 cycles: 1186211140 heartbeat IPC: 0.419434 cumulative IPC: 0.429305 (Simulation time: 0 hr 25 min 39 sec) 
Heartbeat CPU 0 instructions: 600000000 cycles: 1205382134 heartbeat IPC: 0.521621 cumulative IPC: 0.43083 (Simulation time: 0 hr 26 min 4 sec) 
Finished CPU 0 instructions: 500000000 cycles: 1160551004 cumulative IPC: 0.43083 (Simulation time: 0 hr 26 min 4 sec) 

CPU 0 Branch Prediction Accuracy: 99.5434% MPKI: 1.33026
Number of Branches: 145676990 Number of Mispredictions: 665128
Number of LOAD Instructions: 188863207
Number of LOAD Instructions (ROI): 188863207
Number of STORE Instructions: 7332002
Number of STORE Instructions (ROI): 7332002
Total Destination Memory Operands: 10029285
Total Destination Memory Operands (ROI): 10029285
Total Source Memory Operands: 188863207
Total Source Memory Operands (ROI): 188863207
Number of DEPENDED LOADS: 292547
Number of DEPENDED LOADS (ROI): 292547
Number of SQ_ADDED: 10029285
Number of SQ_ADDED (ROI): 10029285
Number of LQ_ADDED: 200754358
Number of LQ_ADDED (ROI): 200754358
Number of Instructions read from trace: 600000010

ChampSim completed all CPUs

Region of Interest Statistics

CPU 0 cumulative IPC: 0.43083 instructions: 500000000 cycles: 1160551004
ITLB TOTAL     ACCESS:  145794737  HIT:  145755210  MISS:      39527
ITLB LOAD      ACCESS:  145794737  HIT:  145755210  MISS:      39527
ITLB RFO       ACCESS:          0  HIT:          0  MISS:          0
ITLB PREFETCH  ACCESS:          0  HIT:          0  MISS:          0
ITLB WRITEBACK ACCESS:          0  HIT:          0  MISS:          0
ITLB PREFETCH  REQUESTED:          0  ISSUED:          0  USEFUL:          0  USELESS:          0
ITLB TOTAL MSHR MERGED:      57368
ITLB LOAD MSHR MERGED:      57368
ITLB RFO MSHR MERGED:          0
ITLB PREFETCH MSHR MERGED:          0
ITLB WRITEBACK MSHR MERGED:          0
ITLB TOTAL ACCESSES:  145852105 HITS:  145755210 MISSES:      96895
ITLB LOAD ACCESSES:  145852105 HITS:  145755210 MISSES:      96895
ITLB RFO ACCESSES:          0 HITS:          0 MISSES:          0
ITLB PREFETCH ACCESSES:          0 HITS:          0 MISSES:          0
ITLB WRITEBACK ACCESSES:          0 HITS:          0 MISSES:          0
ITLB RQ ACCESS:  499999754
ITLB RQ TO_CACHE:  145852105
ITLB RQ MERGED:  354147649
ITLB RQ FORWARD:          0
ITLB WQ ACCESS:          0
ITLB WQ TO_CACHE:          0
ITLB WQ MERGED:          0
ITLB WQ FORWARD:          0
DTLB TOTAL     ACCESS:  135177544  HIT:  134009183  MISS:    1168361
DTLB LOAD      ACCESS:  127136523  HIT:  125977268  MISS:    1159255
DTLB RFO       ACCESS:    8041021  HIT:    8031915  MISS:       9106
DTLB PREFETCH  ACCESS:          0  HIT:          0  MISS:          0
DTLB WRITEBACK ACCESS:          0  HIT:          0  MISS:          0
DTLB PREFETCH  REQUESTED:          0  ISSUED:          0  USEFUL:          0  USELESS:          0
DTLB TOTAL MSHR MERGED:     582907
DTLB LOAD MSHR MERGED:     578521
DTLB RFO MSHR MERGED:       4386
DTLB PREFETCH MSHR MERGED:          0
DTLB WRITEBACK MSHR MERGED:          0
DTLB TOTAL ACCESSES:  135760451 HITS:  134009183 MISSES:    1751268
DTLB LOAD ACCESSES:  127715044 HITS:  125977268 MISSES:    1737776
DTLB RFO ACCESSES:    8045407 HITS:    8031915 MISSES:      13492
DTLB PREFETCH ACCESSES:          0 HITS:          0 MISSES:          0
DTLB WRITEBACK ACCESSES:          0 HITS:          0 MISSES:          0
DTLB RQ ACCESS:  165761784
DTLB RQ TO_CACHE:  135760451
DTLB RQ MERGED:   30001333
DTLB RQ FORWARD:          0
DTLB WQ ACCESS:          0
DTLB WQ TO_CACHE:          0
DTLB WQ MERGED:          0
DTLB WQ FORWARD:          0
L1D TOTAL     ACCESS:  156916266  HIT:  139600582  MISS:   17315684
L1D LOAD      ACCESS:   89979909  HIT:   78831919  MISS:   11147990
L1D RFO       ACCESS:    8495603  HIT:    8408352  MISS:      87251
L1D PREFETCH  ACCESS:   58440754  HIT:   52360311  MISS:    6080443
L1D WRITEBACK ACCESS:          0  HIT:          0  MISS:          0
L1D PREFETCH  REQUESTED:   93711601  ISSUED:   92844232  USEFUL:    1999012  USELESS:    4081505
L1D TOTAL MSHR MERGED:   15134029
L1D LOAD MSHR MERGED:    7132634
L1D RFO MSHR MERGED:     129102
L1D PREFETCH MSHR MERGED:    7872293
L1D WRITEBACK MSHR MERGED:          0
L1D TOTAL ACCESSES:  172050457 HITS:  139600743 MISSES:   32449714
L1D LOAD ACCESSES:   93711607 HITS:   78831925 MISSES:   14879682
L1D RFO ACCESSES:    8622765 HITS:    8408352 MISSES:     214413
L1D PREFETCH ACCESSES:   69716085 HITS:   52360466 MISSES:   17355619
L1D WRITEBACK ACCESSES:          0 HITS:          0 MISSES:          0
L1D RQ ACCESS:  157122578
L1D RQ TO_CACHE:   93711601
L1D RQ MERGED:   63410971
L1D RQ FORWARD:          0
L1D WQ ACCESS:    8639208
L1D WQ TO_CACHE:    8622765
L1D WQ MERGED:      16443
L1D WQ FORWARD:        161
L1I TOTAL     ACCESS:  178789308  HIT:  178125636  MISS:     663672
L1I LOAD      ACCESS:  178789308  HIT:  178125636  MISS:     663672
L1I RFO       ACCESS:          0  HIT:          0  MISS:          0
L1I PREFETCH  ACCESS:          0  HIT:          0  MISS:          0
L1I WRITEBACK ACCESS:          0  HIT:          0  MISS:          0
L1I PREFETCH  REQUESTED:          0  ISSUED:          0  USEFUL:          0  USELESS:          0
L1I TOTAL MSHR MERGED:     597866
L1I LOAD MSHR MERGED:     597866
L1I RFO MSHR MERGED:          0
L1I PREFETCH MSHR MERGED:          0
L1I WRITEBACK MSHR MERGED:          0
L1I TOTAL ACCESSES:  179387174 HITS:  178125636 MISSES:    1261538
L1I LOAD ACCESSES:  179387174 HITS:  178125636 MISSES:    1261538
L1I RFO ACCESSES:          0 HITS:          0 MISSES:          0
L1I PREFETCH ACCESSES:          0 HITS:          0 MISSES:          0
L1I WRITEBACK ACCESSES:          0 HITS:          0 MISSES:          0
L1I RQ ACCESS:  499999757
L1I RQ TO_CACHE:  179387174
L1I RQ MERGED:  320612583
L1I RQ FORWARD:          0
L1I WQ ACCESS:          0
L1I WQ TO_CACHE:          0
L1I WQ MERGED:          0
L1I WQ FORWARD:          0
L2C TOTAL     ACCESS:   19276461  HIT:    2056948  MISS:   17219513
L2C LOAD      ACCESS:    8410619  HIT:     951024  MISS:    7459595
L2C RFO       ACCESS:      85288  HIT:      53730  MISS:      31558
L2C PREFETCH  ACCESS:   10495548  HIT:     769999  MISS:    9725549
L2C WRITEBACK ACCESS:     285006  HIT:     282195  MISS:       2811
L2C PREFETCH  REQUESTED:    1016758  ISSUED:    1016758  USEFUL:     274689  USELESS:    9449959
L2C TOTAL MSHR MERGED:       1105
L2C LOAD MSHR MERGED:        231
L2C RFO MSHR MERGED:          1
L2C PREFETCH MSHR MERGED:        873
L2C WRITEBACK MSHR MERGED:          0
L2C TOTAL ACCESSES:   19279851 HITS:    2057136 MISSES:   17222715
L2C LOAD ACCESSES:    8410720 HITS:     951125 MISSES:    7459595
L2C RFO ACCESSES:      85311 HITS:      53753 MISSES:      31558
L2C PREFETCH ACCESSES:   10498814 HITS:     770063 MISSES:    9728751
L2C WRITEBACK ACCESSES:     285006 HITS:     282195 MISSES:       2811
L2C RQ ACCESS:    8496031
L2C RQ TO_CACHE:    8495907
L2C RQ MERGED:          0
L2C RQ FORWARD:          0
L2C WQ ACCESS:     285006
L2C WQ TO_CACHE:     285006
L2C WQ MERGED:          0
L2C WQ FORWARD:        188
LLC TOTAL     ACCESS:   17324857  HIT:    4976481  MISS:   12348376
LLC LOAD      ACCESS:    7459364  HIT:    4126819  MISS:    3332545
LLC RFO       ACCESS:      31557  HIT:      10650  MISS:      20907
LLC PREFETCH  ACCESS:    9727875  HIT:     765630  MISS:    8962245
LLC WRITEBACK ACCESS:     106061  HIT:      73382  MISS:      32679
LLC PREFETCH  REQUESTED:          0  ISSUED:          0  USEFUL:       1888  USELESS:    8959604
LLC TOTAL MSHR MERGED:          2
LLC LOAD MSHR MERGED:          0
LLC RFO MSHR MERGED:          0
LLC PREFETCH MSHR MERGED:          2
LLC WRITEBACK MSHR MERGED:          0
LLC TOTAL ACCESSES:   17324860 HITS:    4976481 MISSES:   12348379
LLC LOAD ACCESSES:    7459364 HITS:    4126819 MISSES:    3332545
LLC RFO ACCESSES:      31557 HITS:      10650 MISSES:      20907
LLC PREFETCH ACCESSES:    9727878 HITS:     765630 MISSES:    8962248
LLC WRITEBACK ACCESSES:     106061 HITS:      73382 MISSES:      32679
LLC 0 RQ ACCESS:    7490921
LLC 0 RQ TO_CACHE:    7490921
LLC 0 RQ MERGED:          0
LLC 0 RQ FORWARD:          0
LLC WQ ACCESS:     106061
LLC WQ TO_CACHE:     106061
LLC WQ MERGED:          0
LLC WQ FORWARD:          0
Major fault: 0 Minor fault: 6432
CPU 0 L1D next line prefetcher final stats
CPU 0 L2C PC-based stride prefetcher final stats
All Misses: 14585046
All Hits: 5959522
SD Algo Stats - Switches: 0 SRR-Repls: 3559094 BRR-Repls: 0

DRAM Statistics
 CHANNEL 0
 RQ ROW_BUFFER_HIT:    9272062  ROW_BUFFER_MISS:    3036583
 DBUS_CONGESTED:    5695827
 WQ ROW_BUFFER_HIT:       1949  ROW_BUFFER_MISS:      59763  FULL:          0

 AVG_CONGESTED_CYCLE: 12
LOADS RETIRED: 157382665
INSTR RETIRED: 500000000
