
*** ChampSim Multicore Out-of-Order Simulator ***

Warmup Instructions: 100000000
Simulation Instructions: 500000000
Number of CPUs: 1
LLC sets: 2048
LLC ways: 16
Clean RRIP Policies: 2213230222132302 Dirty RRIP Policies: 2203130222031302 PSEL Width: 10 Track Set: 4294967295 PSEL Mask: 1 Demote Mask: 3004100030041000DS Algo: 0Window size: 0
Off-chip DRAM Size: 4096 MB Channels: 1 Width: 64-bit Data Rate: 1600 MT/s

CPU 0 runs /mnt/beegfs/iconst01/spec2017/Omnetpp.trace.gz
NOT SORTED
TRACE STRING: /mnt/beegfs/iconst01/spec2017/Omnetpp.trace.gz
SORTED
TRACE STRING: /mnt/beegfs/iconst01/spec2017/Omnetpp.trace.gz
INITIAL
TRACE STRING: /mnt/beegfs/iconst01/spec2017/Omnetpp.trace.gz

champsim_seed used: 739

CPU 0 L1D next line prefetcher
CPU 0 L2C IP-based stride prefetcher
Initialize DRRIP state
Assign rand_sets[0]: 454  LLC: 2048
rand_sets[0]: 454
Assign rand_sets[1]: 1662  LLC: 2048
rand_sets[1]: 1662
Assign rand_sets[2]: 1921  LLC: 2048
rand_sets[2]: 1921
Assign rand_sets[3]: 1131  LLC: 2048
rand_sets[3]: 1131
Assign rand_sets[4]: 331  LLC: 2048
rand_sets[4]: 331
Assign rand_sets[5]: 1531  LLC: 2048
rand_sets[5]: 1531
Assign rand_sets[6]: 482  LLC: 2048
rand_sets[6]: 482
Assign rand_sets[7]: 1275  LLC: 2048
rand_sets[7]: 1275
Assign rand_sets[8]: 1876  LLC: 2048
rand_sets[8]: 1876
Assign rand_sets[9]: 2038  LLC: 2048
rand_sets[9]: 2038
Assign rand_sets[10]: 701  LLC: 2048
rand_sets[10]: 701
Assign rand_sets[11]: 479  LLC: 2048
rand_sets[11]: 479
Assign rand_sets[12]: 892  LLC: 2048
rand_sets[12]: 892
Assign rand_sets[13]: 1820  LLC: 2048
rand_sets[13]: 1820
Assign rand_sets[14]: 1505  LLC: 2048
rand_sets[14]: 1505
Assign rand_sets[15]: 1159  LLC: 2048
rand_sets[15]: 1159
Assign rand_sets[16]: 513  LLC: 2048
rand_sets[16]: 513
Assign rand_sets[17]: 703  LLC: 2048
rand_sets[17]: 703
Assign rand_sets[18]: 561  LLC: 2048
rand_sets[18]: 561
Assign rand_sets[19]: 990  LLC: 2048
rand_sets[19]: 990
Assign rand_sets[20]: 342  LLC: 2048
rand_sets[20]: 342
Assign rand_sets[21]: 882  LLC: 2048
rand_sets[21]: 882
Assign rand_sets[22]: 15  LLC: 2048
rand_sets[22]: 15
Assign rand_sets[23]: 71  LLC: 2048
rand_sets[23]: 71
Assign rand_sets[24]: 1127  LLC: 2048
rand_sets[24]: 1127
Assign rand_sets[25]: 1382  LLC: 2048
rand_sets[25]: 1382
Assign rand_sets[26]: 647  LLC: 2048
rand_sets[26]: 647
Assign rand_sets[27]: 857  LLC: 2048
rand_sets[27]: 857
Assign rand_sets[28]: 1450  LLC: 2048
rand_sets[28]: 1450
Assign rand_sets[29]: 1160  LLC: 2048
rand_sets[29]: 1160
Assign rand_sets[30]: 1852  LLC: 2048
rand_sets[30]: 1852
Assign rand_sets[31]: 1881  LLC: 2048
rand_sets[31]: 1881
Assign rand_sets[32]: 1770  LLC: 2048
rand_sets[32]: 1770
Assign rand_sets[33]: 1622  LLC: 2048
rand_sets[33]: 1622
Assign rand_sets[34]: 275  LLC: 2048
rand_sets[34]: 275
Assign rand_sets[35]: 635  LLC: 2048
rand_sets[35]: 635
Assign rand_sets[36]: 466  LLC: 2048
rand_sets[36]: 466
Assign rand_sets[37]: 1413  LLC: 2048
rand_sets[37]: 1413
Assign rand_sets[38]: 417  LLC: 2048
rand_sets[38]: 417
Assign rand_sets[39]: 472  LLC: 2048
rand_sets[39]: 472
Assign rand_sets[40]: 1340  LLC: 2048
rand_sets[40]: 1340
Assign rand_sets[41]: 852  LLC: 2048
rand_sets[41]: 852
Assign rand_sets[42]: 1365  LLC: 2048
rand_sets[42]: 1365
Assign rand_sets[43]: 47  LLC: 2048
rand_sets[43]: 47
Assign rand_sets[44]: 823  LLC: 2048
rand_sets[44]: 823
Assign rand_sets[45]: 686  LLC: 2048
rand_sets[45]: 686
Assign rand_sets[46]: 1637  LLC: 2048
rand_sets[46]: 1637
Assign rand_sets[47]: 1115  LLC: 2048
rand_sets[47]: 1115
Assign rand_sets[48]: 986  LLC: 2048
rand_sets[48]: 986
Assign rand_sets[49]: 258  LLC: 2048
rand_sets[49]: 258
Assign rand_sets[50]: 633  LLC: 2048
rand_sets[50]: 633
Assign rand_sets[51]: 920  LLC: 2048
rand_sets[51]: 920
Assign rand_sets[52]: 204  LLC: 2048
rand_sets[52]: 204
Assign rand_sets[53]: 227  LLC: 2048
rand_sets[53]: 227
Assign rand_sets[54]: 1818  LLC: 2048
rand_sets[54]: 1818
Assign rand_sets[55]: 886  LLC: 2048
rand_sets[55]: 886
Assign rand_sets[56]: 1422  LLC: 2048
rand_sets[56]: 1422
Assign rand_sets[57]: 607  LLC: 2048
rand_sets[57]: 607
Assign rand_sets[58]: 217  LLC: 2048
rand_sets[58]: 217
Assign rand_sets[59]: 1945  LLC: 2048
rand_sets[59]: 1945
Assign rand_sets[60]: 143  LLC: 2048
rand_sets[60]: 143
Assign rand_sets[61]: 1311  LLC: 2048
rand_sets[61]: 1311
Assign rand_sets[62]: 319  LLC: 2048
rand_sets[62]: 319
Assign rand_sets[63]: 1846  LLC: 2048
rand_sets[63]: 1846
 CLEAN-RRIP-POLICY-1: 2-2-1-3-2-3-0-2- CLEAN-RRIP-POLICY-2: 2-2-1-3-2-3-0-2-
 DIRTY-RRIP-POLICY-1: 2-2-0-3-1-3-0-2- DIRTY-RRIP-POLICY-2: 2-2-0-3-1-3-0-2-
 PSEL width: 10
Heartbeat CPU 0 instructions: 10000000 cycles: 7319986 heartbeat IPC: 1.36612 cumulative IPC: 1.36612 (Simulation time: 0 hr 0 min 19 sec) 
Heartbeat CPU 0 instructions: 20000000 cycles: 14623713 heartbeat IPC: 1.36916 cumulative IPC: 1.36764 (Simulation time: 0 hr 0 min 39 sec) 
Heartbeat CPU 0 instructions: 30000003 cycles: 21925123 heartbeat IPC: 1.3696 cumulative IPC: 1.36829 (Simulation time: 0 hr 0 min 58 sec) 
Heartbeat CPU 0 instructions: 40000000 cycles: 29213362 heartbeat IPC: 1.37207 cumulative IPC: 1.36924 (Simulation time: 0 hr 1 min 18 sec) 
Heartbeat CPU 0 instructions: 50000000 cycles: 36489779 heartbeat IPC: 1.3743 cumulative IPC: 1.37025 (Simulation time: 0 hr 1 min 37 sec) 
Heartbeat CPU 0 instructions: 60000000 cycles: 43769692 heartbeat IPC: 1.37364 cumulative IPC: 1.37081 (Simulation time: 0 hr 1 min 57 sec) 
Heartbeat CPU 0 instructions: 70000001 cycles: 51054936 heartbeat IPC: 1.37264 cumulative IPC: 1.37107 (Simulation time: 0 hr 2 min 16 sec) 
Heartbeat CPU 0 instructions: 80000000 cycles: 58329982 heartbeat IPC: 1.37456 cumulative IPC: 1.37151 (Simulation time: 0 hr 2 min 36 sec) 
Heartbeat CPU 0 instructions: 90000000 cycles: 65636310 heartbeat IPC: 1.36868 cumulative IPC: 1.37119 (Simulation time: 0 hr 2 min 55 sec) 
Heartbeat CPU 0 instructions: 100000000 cycles: 72928418 heartbeat IPC: 1.37135 cumulative IPC: 1.37121 (Simulation time: 0 hr 3 min 15 sec) 

Warmup complete CPU 0 instructions: 100000002 cycles: 72928419 (Simulation time: 0 hr 3 min 15 sec) 

Heartbeat CPU 0 instructions: 110000002 cycles: 113396194 heartbeat IPC: 0.24711 cumulative IPC: 0.24711 (Simulation time: 0 hr 3 min 53 sec) 
Heartbeat CPU 0 instructions: 120000000 cycles: 153553090 heartbeat IPC: 0.249023 cumulative IPC: 0.248063 (Simulation time: 0 hr 4 min 32 sec) 
Heartbeat CPU 0 instructions: 130000002 cycles: 193961728 heartbeat IPC: 0.247472 cumulative IPC: 0.247866 (Simulation time: 0 hr 5 min 10 sec) 
Heartbeat CPU 0 instructions: 140000000 cycles: 234478259 heartbeat IPC: 0.246813 cumulative IPC: 0.247602 (Simulation time: 0 hr 5 min 48 sec) 
Heartbeat CPU 0 instructions: 150000002 cycles: 274544184 heartbeat IPC: 0.249589 cumulative IPC: 0.247996 (Simulation time: 0 hr 6 min 27 sec) 
Heartbeat CPU 0 instructions: 160000000 cycles: 314649023 heartbeat IPC: 0.249346 cumulative IPC: 0.24822 (Simulation time: 0 hr 7 min 5 sec) 
Heartbeat CPU 0 instructions: 170000001 cycles: 354012227 heartbeat IPC: 0.254044 cumulative IPC: 0.249036 (Simulation time: 0 hr 7 min 43 sec) 
Heartbeat CPU 0 instructions: 180000000 cycles: 394102199 heartbeat IPC: 0.249439 cumulative IPC: 0.249086 (Simulation time: 0 hr 8 min 21 sec) 
Heartbeat CPU 0 instructions: 190000002 cycles: 434151002 heartbeat IPC: 0.249695 cumulative IPC: 0.249154 (Simulation time: 0 hr 8 min 59 sec) 
Heartbeat CPU 0 instructions: 200000000 cycles: 475447794 heartbeat IPC: 0.24215 cumulative IPC: 0.248435 (Simulation time: 0 hr 9 min 37 sec) 
Heartbeat CPU 0 instructions: 210000003 cycles: 515596042 heartbeat IPC: 0.249077 cumulative IPC: 0.248493 (Simulation time: 0 hr 10 min 15 sec) 
Heartbeat CPU 0 instructions: 220000000 cycles: 555944262 heartbeat IPC: 0.247842 cumulative IPC: 0.248439 (Simulation time: 0 hr 10 min 54 sec) 
Heartbeat CPU 0 instructions: 230000000 cycles: 596266822 heartbeat IPC: 0.248 cumulative IPC: 0.248405 (Simulation time: 0 hr 11 min 32 sec) 
Heartbeat CPU 0 instructions: 240000000 cycles: 636298084 heartbeat IPC: 0.249805 cumulative IPC: 0.248505 (Simulation time: 0 hr 12 min 10 sec) 
Heartbeat CPU 0 instructions: 250000000 cycles: 676377331 heartbeat IPC: 0.249506 cumulative IPC: 0.248571 (Simulation time: 0 hr 12 min 47 sec) 
Heartbeat CPU 0 instructions: 260000000 cycles: 716562183 heartbeat IPC: 0.24885 cumulative IPC: 0.248589 (Simulation time: 0 hr 13 min 25 sec) 
Heartbeat CPU 0 instructions: 270000000 cycles: 756800767 heartbeat IPC: 0.248518 cumulative IPC: 0.248584 (Simulation time: 0 hr 14 min 3 sec) 
Heartbeat CPU 0 instructions: 280000000 cycles: 797401076 heartbeat IPC: 0.246304 cumulative IPC: 0.248457 (Simulation time: 0 hr 14 min 41 sec) 
Heartbeat CPU 0 instructions: 290000001 cycles: 837234211 heartbeat IPC: 0.251047 cumulative IPC: 0.248592 (Simulation time: 0 hr 15 min 18 sec) 
Heartbeat CPU 0 instructions: 300000000 cycles: 877721173 heartbeat IPC: 0.246993 cumulative IPC: 0.248511 (Simulation time: 0 hr 15 min 56 sec) 
Heartbeat CPU 0 instructions: 310000000 cycles: 918153999 heartbeat IPC: 0.247324 cumulative IPC: 0.248454 (Simulation time: 0 hr 16 min 34 sec) 
Heartbeat CPU 0 instructions: 320000000 cycles: 958313266 heartbeat IPC: 0.249009 cumulative IPC: 0.24848 (Simulation time: 0 hr 17 min 11 sec) 
Heartbeat CPU 0 instructions: 330000000 cycles: 998456975 heartbeat IPC: 0.249105 cumulative IPC: 0.248507 (Simulation time: 0 hr 17 min 49 sec) 
Heartbeat CPU 0 instructions: 340000000 cycles: 1039185009 heartbeat IPC: 0.245531 cumulative IPC: 0.248381 (Simulation time: 0 hr 18 min 27 sec) 
Heartbeat CPU 0 instructions: 350000001 cycles: 1079400472 heartbeat IPC: 0.248661 cumulative IPC: 0.248392 (Simulation time: 0 hr 19 min 4 sec) 
Heartbeat CPU 0 instructions: 360000000 cycles: 1119908140 heartbeat IPC: 0.246867 cumulative IPC: 0.248333 (Simulation time: 0 hr 19 min 42 sec) 
Heartbeat CPU 0 instructions: 370000000 cycles: 1159514563 heartbeat IPC: 0.252484 cumulative IPC: 0.248485 (Simulation time: 0 hr 20 min 19 sec) 
Heartbeat CPU 0 instructions: 380000000 cycles: 1200003639 heartbeat IPC: 0.24698 cumulative IPC: 0.248431 (Simulation time: 0 hr 20 min 56 sec) 
Heartbeat CPU 0 instructions: 390000001 cycles: 1240029284 heartbeat IPC: 0.24984 cumulative IPC: 0.248479 (Simulation time: 0 hr 21 min 33 sec) 
Heartbeat CPU 0 instructions: 400000000 cycles: 1280151356 heartbeat IPC: 0.249239 cumulative IPC: 0.248504 (Simulation time: 0 hr 22 min 11 sec) 
Heartbeat CPU 0 instructions: 410000000 cycles: 1320113214 heartbeat IPC: 0.250239 cumulative IPC: 0.24856 (Simulation time: 0 hr 22 min 48 sec) 
Heartbeat CPU 0 instructions: 420000000 cycles: 1360123895 heartbeat IPC: 0.249933 cumulative IPC: 0.248602 (Simulation time: 0 hr 23 min 25 sec) 
Heartbeat CPU 0 instructions: 430000000 cycles: 1400188536 heartbeat IPC: 0.249597 cumulative IPC: 0.248632 (Simulation time: 0 hr 24 min 2 sec) 
Heartbeat CPU 0 instructions: 440000000 cycles: 1440311782 heartbeat IPC: 0.249232 cumulative IPC: 0.24865 (Simulation time: 0 hr 24 min 39 sec) 
Heartbeat CPU 0 instructions: 450000002 cycles: 1480267311 heartbeat IPC: 0.250278 cumulative IPC: 0.248696 (Simulation time: 0 hr 25 min 17 sec) 
Heartbeat CPU 0 instructions: 460000000 cycles: 1519673081 heartbeat IPC: 0.25377 cumulative IPC: 0.248835 (Simulation time: 0 hr 25 min 54 sec) 
Heartbeat CPU 0 instructions: 470000000 cycles: 1559932733 heartbeat IPC: 0.248388 cumulative IPC: 0.248822 (Simulation time: 0 hr 26 min 31 sec) 
Heartbeat CPU 0 instructions: 480000000 cycles: 1599838493 heartbeat IPC: 0.25059 cumulative IPC: 0.248869 (Simulation time: 0 hr 27 min 8 sec) 
Heartbeat CPU 0 instructions: 490000001 cycles: 1639897135 heartbeat IPC: 0.249634 cumulative IPC: 0.248888 (Simulation time: 0 hr 27 min 46 sec) 
Heartbeat CPU 0 instructions: 500000000 cycles: 1680155349 heartbeat IPC: 0.248396 cumulative IPC: 0.248876 (Simulation time: 0 hr 28 min 22 sec) 
Heartbeat CPU 0 instructions: 510000000 cycles: 1719879086 heartbeat IPC: 0.251739 cumulative IPC: 0.248945 (Simulation time: 0 hr 28 min 59 sec) 
Heartbeat CPU 0 instructions: 520000000 cycles: 1760345270 heartbeat IPC: 0.24712 cumulative IPC: 0.248901 (Simulation time: 0 hr 29 min 35 sec) 
Heartbeat CPU 0 instructions: 530000000 cycles: 1800269665 heartbeat IPC: 0.250473 cumulative IPC: 0.248937 (Simulation time: 0 hr 30 min 10 sec) 
Heartbeat CPU 0 instructions: 540000000 cycles: 1839960128 heartbeat IPC: 0.25195 cumulative IPC: 0.249005 (Simulation time: 0 hr 30 min 45 sec) 
Heartbeat CPU 0 instructions: 550000001 cycles: 1880383308 heartbeat IPC: 0.247383 cumulative IPC: 0.248969 (Simulation time: 0 hr 31 min 20 sec) 
Heartbeat CPU 0 instructions: 560000000 cycles: 1920897600 heartbeat IPC: 0.246826 cumulative IPC: 0.248922 (Simulation time: 0 hr 31 min 55 sec) 
Heartbeat CPU 0 instructions: 570000003 cycles: 1961386395 heartbeat IPC: 0.246982 cumulative IPC: 0.24888 (Simulation time: 0 hr 32 min 30 sec) 
Heartbeat CPU 0 instructions: 580000000 cycles: 2001706709 heartbeat IPC: 0.248014 cumulative IPC: 0.248862 (Simulation time: 0 hr 33 min 6 sec) 
Heartbeat CPU 0 instructions: 590000001 cycles: 2042442714 heartbeat IPC: 0.245483 cumulative IPC: 0.248792 (Simulation time: 0 hr 33 min 41 sec) 
Heartbeat CPU 0 instructions: 600000000 cycles: 2082912208 heartbeat IPC: 0.2471 cumulative IPC: 0.248758 (Simulation time: 0 hr 34 min 16 sec) 
Finished CPU 0 instructions: 500000000 cycles: 2009983797 cumulative IPC: 0.248758 (Simulation time: 0 hr 34 min 16 sec) 

CPU 0 Branch Prediction Accuracy: 96.2429% MPKI: 5.85335
Number of Branches: 77897976 Number of Mispredictions: 2926674
Number of LOAD Instructions: 193081861
Number of LOAD Instructions (ROI): 193081861
Number of STORE Instructions: 97310749
Number of STORE Instructions (ROI): 97310749
Total Destination Memory Operands: 106368027
Total Destination Memory Operands (ROI): 106368027
Total Source Memory Operands: 193081861
Total Source Memory Operands (ROI): 193081861
Number of DEPENDED LOADS: 6432972
Number of DEPENDED LOADS (ROI): 6432972
Number of SQ_ADDED: 106367982
Number of SQ_ADDED (ROI): 106367982
Number of LQ_ADDED: 427656221
Number of LQ_ADDED (ROI): 427656221
Number of Instructions read from trace: 600000256

ChampSim completed all CPUs

Region of Interest Statistics

CPU 0 cumulative IPC: 0.248758 instructions: 500000000 cycles: 2009983797
ITLB TOTAL     ACCESS:  151305195  HIT:  151289364  MISS:      15831
ITLB LOAD      ACCESS:  151305195  HIT:  151289364  MISS:      15831
ITLB RFO       ACCESS:          0  HIT:          0  MISS:          0
ITLB PREFETCH  ACCESS:          0  HIT:          0  MISS:          0
ITLB WRITEBACK ACCESS:          0  HIT:          0  MISS:          0
ITLB PREFETCH  REQUESTED:          0  ISSUED:          0  USEFUL:          0  USELESS:          0
ITLB TOTAL MSHR MERGED:      17525
ITLB LOAD MSHR MERGED:      17525
ITLB RFO MSHR MERGED:          0
ITLB PREFETCH MSHR MERGED:          0
ITLB WRITEBACK MSHR MERGED:          0
ITLB TOTAL ACCESSES:  151322720 HITS:  151289364 MISSES:      33356
ITLB LOAD ACCESSES:  151322720 HITS:  151289364 MISSES:      33356
ITLB RFO ACCESSES:          0 HITS:          0 MISSES:          0
ITLB PREFETCH ACCESSES:          0 HITS:          0 MISSES:          0
ITLB WRITEBACK ACCESSES:          0 HITS:          0 MISSES:          0
ITLB RQ ACCESS:  500000242
ITLB RQ TO_CACHE:  151322720
ITLB RQ MERGED:  348677522
ITLB RQ FORWARD:          0
ITLB WQ ACCESS:          0
ITLB WQ TO_CACHE:          0
ITLB WQ MERGED:          0
ITLB WQ FORWARD:          0
DTLB TOTAL     ACCESS:  199570189  HIT:  194191129  MISS:    5379060
DTLB LOAD      ACCESS:  123143880  HIT:  118125301  MISS:    5018579
DTLB RFO       ACCESS:   76426309  HIT:   76065828  MISS:     360481
DTLB PREFETCH  ACCESS:          0  HIT:          0  MISS:          0
DTLB WRITEBACK ACCESS:          0  HIT:          0  MISS:          0
DTLB PREFETCH  REQUESTED:          0  ISSUED:          0  USEFUL:          0  USELESS:          0
DTLB TOTAL MSHR MERGED:     917352
DTLB LOAD MSHR MERGED:     807432
DTLB RFO MSHR MERGED:     109920
DTLB PREFETCH MSHR MERGED:          0
DTLB WRITEBACK MSHR MERGED:          0
DTLB TOTAL ACCESSES:  200487541 HITS:  194191129 MISSES:    6296412
DTLB LOAD ACCESSES:  123951312 HITS:  118125301 MISSES:    5826011
DTLB RFO ACCESSES:   76536229 HITS:   76065828 MISSES:     470401
DTLB PREFETCH ACCESSES:          0 HITS:          0 MISSES:          0
DTLB WRITEBACK ACCESSES:          0 HITS:          0 MISSES:          0
DTLB RQ ACCESS:  243892550
DTLB RQ TO_CACHE:  200487541
DTLB RQ MERGED:   43405009
DTLB RQ FORWARD:          0
DTLB WQ ACCESS:          0
DTLB WQ TO_CACHE:          0
DTLB WQ MERGED:          0
DTLB WQ FORWARD:          0
L1D TOTAL     ACCESS:  335648266  HIT:  317552118  MISS:   18096148
L1D LOAD      ACCESS:  127708530  HIT:  118766841  MISS:    8941689
L1D RFO       ACCESS:   87085465  HIT:   86306546  MISS:     778919
L1D PREFETCH  ACCESS:  120854271  HIT:  112478731  MISS:    8375540
L1D WRITEBACK ACCESS:          0  HIT:          0  MISS:          0
L1D PREFETCH  REQUESTED:  128485035  ISSUED:  126887056  USEFUL:    1744377  USELESS:    6631175
L1D TOTAL MSHR MERGED:    3824389
L1D LOAD MSHR MERGED:     938987
L1D RFO MSHR MERGED:    1058116
L1D PREFETCH MSHR MERGED:    1827286
L1D WRITEBACK MSHR MERGED:          0
L1D TOTAL ACCESSES:  339559488 HITS:  317638951 MISSES:   21920537
L1D LOAD ACCESSES:  128485486 HITS:  118767292 MISSES:    9718194
L1D RFO ACCESSES:   88085051 HITS:   86306546 MISSES:    1778505
L1D PREFETCH ACCESSES:  122988951 HITS:  112565113 MISSES:   10423838
L1D WRITEBACK ACCESSES:          0 HITS:          0 MISSES:          0
L1D RQ ACCESS:  155261165
L1D RQ TO_CACHE:  128485035
L1D RQ MERGED:   26775679
L1D RQ FORWARD:          0
L1D WQ ACCESS:   88631385
L1D WQ TO_CACHE:   88085050
L1D WQ MERGED:     546335
L1D WQ FORWARD:      86833
L1I TOTAL     ACCESS:  175604710  HIT:  175338244  MISS:     266466
L1I LOAD      ACCESS:  175604710  HIT:  175338244  MISS:     266466
L1I RFO       ACCESS:          0  HIT:          0  MISS:          0
L1I PREFETCH  ACCESS:          0  HIT:          0  MISS:          0
L1I WRITEBACK ACCESS:          0  HIT:          0  MISS:          0
L1I PREFETCH  REQUESTED:          0  ISSUED:          0  USEFUL:          0  USELESS:          0
L1I TOTAL MSHR MERGED:     213137
L1I LOAD MSHR MERGED:     213137
L1I RFO MSHR MERGED:          0
L1I PREFETCH MSHR MERGED:          0
L1I WRITEBACK MSHR MERGED:          0
L1I TOTAL ACCESSES:  175817847 HITS:  175338244 MISSES:     479603
L1I LOAD ACCESSES:  175817847 HITS:  175338244 MISSES:     479603
L1I RFO ACCESSES:          0 HITS:          0 MISSES:          0
L1I PREFETCH ACCESSES:          0 HITS:          0 MISSES:          0
L1I WRITEBACK ACCESSES:          0 HITS:          0 MISSES:          0
L1I RQ ACCESS:  500000242
L1I RQ TO_CACHE:  175817847
L1I RQ MERGED:  324182395
L1I RQ FORWARD:          0
L1I WQ ACCESS:          0
L1I WQ TO_CACHE:          0
L1I WQ MERGED:          0
L1I WQ FORWARD:          0
L2C TOTAL     ACCESS:   23738705  HIT:   12112921  MISS:   11625784
L2C LOAD      ACCESS:    9044495  HIT:    3564918  MISS:    5479577
L2C RFO       ACCESS:     720330  HIT:     130160  MISS:     590170
L2C PREFETCH  ACCESS:    8613543  HIT:    3086203  MISS:    5527340
L2C WRITEBACK ACCESS:    5360337  HIT:    5331640  MISS:      28697
L2C PREFETCH  REQUESTED:      18039  ISSUED:      18039  USEFUL:     323017  USELESS:    5204498
L2C TOTAL MSHR MERGED:         22
L2C LOAD MSHR MERGED:          2
L2C RFO MSHR MERGED:          0
L2C PREFETCH MSHR MERGED:         20
L2C WRITEBACK MSHR MERGED:          0
L2C TOTAL ACCESSES:   23740530 HITS:   12114718 MISSES:   11625812
L2C LOAD ACCESSES:    9045673 HITS:    3566096 MISSES:    5479577
L2C RFO ACCESSES:     720389 HITS:     130219 MISSES:     590170
L2C PREFETCH ACCESSES:    8614131 HITS:    3086763 MISSES:    5527368
L2C WRITEBACK ACCESSES:    5360337 HITS:    5331640 MISSES:      28697
L2C RQ ACCESS:    9766062
L2C RQ TO_CACHE:    9764825
L2C RQ MERGED:          0
L2C RQ FORWARD:          0
L2C WQ ACCESS:    5360337
L2C WQ TO_CACHE:    5360337
L2C WQ MERGED:          0
L2C WQ FORWARD:       1797
LLC TOTAL     ACCESS:   15448712  HIT:    6553246  MISS:    8895466
LLC LOAD      ACCESS:    5479545  HIT:    2050878  MISS:    3428667
LLC RFO       ACCESS:     590168  HIT:     292589  MISS:     297579
LLC PREFETCH  ACCESS:    5527331  HIT:    1110349  MISS:    4416982
LLC WRITEBACK ACCESS:    3851668  HIT:    3099430  MISS:     752238
LLC PREFETCH  REQUESTED:          0  ISSUED:          0  USEFUL:      24845  USELESS:    4392662
LLC TOTAL MSHR MERGED:          0
LLC LOAD MSHR MERGED:          0
LLC RFO MSHR MERGED:          0
LLC PREFETCH MSHR MERGED:          0
LLC WRITEBACK MSHR MERGED:          0
LLC TOTAL ACCESSES:   15448761 HITS:    6553295 MISSES:    8895466
LLC LOAD ACCESSES:    5479575 HITS:    2050908 MISSES:    3428667
LLC RFO ACCESSES:     590170 HITS:     292591 MISSES:     297579
LLC PREFETCH ACCESSES:    5527348 HITS:    1110366 MISSES:    4416982
LLC WRITEBACK ACCESSES:    3851668 HITS:    3099430 MISSES:     752238
LLC 0 RQ ACCESS:    6069745
LLC 0 RQ TO_CACHE:    6069713
LLC 0 RQ MERGED:          0
LLC 0 RQ FORWARD:          0
LLC WQ ACCESS:    3851668
LLC WQ TO_CACHE:    3851668
LLC WQ MERGED:          0
LLC WQ FORWARD:         49
Major fault: 0 Minor fault: 44814
CPU 0 L1D next line prefetcher final stats
CPU 0 L2C PC-based stride prefetcher final stats
All Misses: 10762938
All Hits: 7858277
SD Algo Stats - Switches: 0 SRR-Repls: 3911561 BRR-Repls: 0

DRAM Statistics
 CHANNEL 0
 RQ ROW_BUFFER_HIT:    1447079  ROW_BUFFER_MISS:    6694998
 DBUS_CONGESTED:    5400191
 WQ ROW_BUFFER_HIT:     164399  ROW_BUFFER_MISS:    2026114  FULL:          0

 AVG_CONGESTED_CYCLE: 13
LOADS RETIRED: 160808997
INSTR RETIRED: 500000000
