
*** ChampSim Multicore Out-of-Order Simulator ***

Warmup Instructions: 100000000
Simulation Instructions: 500000000
Number of CPUs: 1
LLC sets: 2048
LLC ways: 16
Clean RRIP Policies: 1213230112132301 Dirty RRIP Policies: 2213130122131301 PSEL Width: 10 Track Set: 4294967295 PSEL Mask: 1 Demote Mask: 40100000401000DS Algo: 0Window size: 0
Off-chip DRAM Size: 4096 MB Channels: 1 Width: 64-bit Data Rate: 1600 MT/s

CPU 0 runs /mnt/beegfs/iconst01/spec2017/Lbm.trace.gz
NOT SORTED
TRACE STRING: /mnt/beegfs/iconst01/spec2017/Lbm.trace.gz
SORTED
TRACE STRING: /mnt/beegfs/iconst01/spec2017/Lbm.trace.gz
INITIAL
TRACE STRING: /mnt/beegfs/iconst01/spec2017/Lbm.trace.gz

champsim_seed used: 283

CPU 0 L1D next line prefetcher
CPU 0 L2C IP-based stride prefetcher
Initialize DRRIP state
Assign rand_sets[0]: 454  LLC: 2048
rand_sets[0]: 454
Assign rand_sets[1]: 1662  LLC: 2048
rand_sets[1]: 1662
Assign rand_sets[2]: 1921  LLC: 2048
rand_sets[2]: 1921
Assign rand_sets[3]: 1131  LLC: 2048
rand_sets[3]: 1131
Assign rand_sets[4]: 331  LLC: 2048
rand_sets[4]: 331
Assign rand_sets[5]: 1531  LLC: 2048
rand_sets[5]: 1531
Assign rand_sets[6]: 482  LLC: 2048
rand_sets[6]: 482
Assign rand_sets[7]: 1275  LLC: 2048
rand_sets[7]: 1275
Assign rand_sets[8]: 1876  LLC: 2048
rand_sets[8]: 1876
Assign rand_sets[9]: 2038  LLC: 2048
rand_sets[9]: 2038
Assign rand_sets[10]: 701  LLC: 2048
rand_sets[10]: 701
Assign rand_sets[11]: 479  LLC: 2048
rand_sets[11]: 479
Assign rand_sets[12]: 892  LLC: 2048
rand_sets[12]: 892
Assign rand_sets[13]: 1820  LLC: 2048
rand_sets[13]: 1820
Assign rand_sets[14]: 1505  LLC: 2048
rand_sets[14]: 1505
Assign rand_sets[15]: 1159  LLC: 2048
rand_sets[15]: 1159
Assign rand_sets[16]: 513  LLC: 2048
rand_sets[16]: 513
Assign rand_sets[17]: 703  LLC: 2048
rand_sets[17]: 703
Assign rand_sets[18]: 561  LLC: 2048
rand_sets[18]: 561
Assign rand_sets[19]: 990  LLC: 2048
rand_sets[19]: 990
Assign rand_sets[20]: 342  LLC: 2048
rand_sets[20]: 342
Assign rand_sets[21]: 882  LLC: 2048
rand_sets[21]: 882
Assign rand_sets[22]: 15  LLC: 2048
rand_sets[22]: 15
Assign rand_sets[23]: 71  LLC: 2048
rand_sets[23]: 71
Assign rand_sets[24]: 1127  LLC: 2048
rand_sets[24]: 1127
Assign rand_sets[25]: 1382  LLC: 2048
rand_sets[25]: 1382
Assign rand_sets[26]: 647  LLC: 2048
rand_sets[26]: 647
Assign rand_sets[27]: 857  LLC: 2048
rand_sets[27]: 857
Assign rand_sets[28]: 1450  LLC: 2048
rand_sets[28]: 1450
Assign rand_sets[29]: 1160  LLC: 2048
rand_sets[29]: 1160
Assign rand_sets[30]: 1852  LLC: 2048
rand_sets[30]: 1852
Assign rand_sets[31]: 1881  LLC: 2048
rand_sets[31]: 1881
Assign rand_sets[32]: 1770  LLC: 2048
rand_sets[32]: 1770
Assign rand_sets[33]: 1622  LLC: 2048
rand_sets[33]: 1622
Assign rand_sets[34]: 275  LLC: 2048
rand_sets[34]: 275
Assign rand_sets[35]: 635  LLC: 2048
rand_sets[35]: 635
Assign rand_sets[36]: 466  LLC: 2048
rand_sets[36]: 466
Assign rand_sets[37]: 1413  LLC: 2048
rand_sets[37]: 1413
Assign rand_sets[38]: 417  LLC: 2048
rand_sets[38]: 417
Assign rand_sets[39]: 472  LLC: 2048
rand_sets[39]: 472
Assign rand_sets[40]: 1340  LLC: 2048
rand_sets[40]: 1340
Assign rand_sets[41]: 852  LLC: 2048
rand_sets[41]: 852
Assign rand_sets[42]: 1365  LLC: 2048
rand_sets[42]: 1365
Assign rand_sets[43]: 47  LLC: 2048
rand_sets[43]: 47
Assign rand_sets[44]: 823  LLC: 2048
rand_sets[44]: 823
Assign rand_sets[45]: 686  LLC: 2048
rand_sets[45]: 686
Assign rand_sets[46]: 1637  LLC: 2048
rand_sets[46]: 1637
Assign rand_sets[47]: 1115  LLC: 2048
rand_sets[47]: 1115
Assign rand_sets[48]: 986  LLC: 2048
rand_sets[48]: 986
Assign rand_sets[49]: 258  LLC: 2048
rand_sets[49]: 258
Assign rand_sets[50]: 633  LLC: 2048
rand_sets[50]: 633
Assign rand_sets[51]: 920  LLC: 2048
rand_sets[51]: 920
Assign rand_sets[52]: 204  LLC: 2048
rand_sets[52]: 204
Assign rand_sets[53]: 227  LLC: 2048
rand_sets[53]: 227
Assign rand_sets[54]: 1818  LLC: 2048
rand_sets[54]: 1818
Assign rand_sets[55]: 886  LLC: 2048
rand_sets[55]: 886
Assign rand_sets[56]: 1422  LLC: 2048
rand_sets[56]: 1422
Assign rand_sets[57]: 607  LLC: 2048
rand_sets[57]: 607
Assign rand_sets[58]: 217  LLC: 2048
rand_sets[58]: 217
Assign rand_sets[59]: 1945  LLC: 2048
rand_sets[59]: 1945
Assign rand_sets[60]: 143  LLC: 2048
rand_sets[60]: 143
Assign rand_sets[61]: 1311  LLC: 2048
rand_sets[61]: 1311
Assign rand_sets[62]: 319  LLC: 2048
rand_sets[62]: 319
Assign rand_sets[63]: 1846  LLC: 2048
rand_sets[63]: 1846
 CLEAN-RRIP-POLICY-1: 1-2-1-3-2-3-0-1- CLEAN-RRIP-POLICY-2: 1-2-1-3-2-3-0-1-
 DIRTY-RRIP-POLICY-1: 2-2-1-3-1-3-0-1- DIRTY-RRIP-POLICY-2: 2-2-1-3-1-3-0-1-
 PSEL width: 10
Heartbeat CPU 0 instructions: 10000000 cycles: 4321555 heartbeat IPC: 2.31398 cumulative IPC: 2.31398 (Simulation time: 0 hr 0 min 18 sec) 
Heartbeat CPU 0 instructions: 20000000 cycles: 8643668 heartbeat IPC: 2.31368 cumulative IPC: 2.31383 (Simulation time: 0 hr 0 min 36 sec) 
Heartbeat CPU 0 instructions: 30000000 cycles: 12965516 heartbeat IPC: 2.31383 cumulative IPC: 2.31383 (Simulation time: 0 hr 0 min 53 sec) 
Heartbeat CPU 0 instructions: 40000000 cycles: 17291396 heartbeat IPC: 2.31167 cumulative IPC: 2.31329 (Simulation time: 0 hr 1 min 11 sec) 
Heartbeat CPU 0 instructions: 50000000 cycles: 21613406 heartbeat IPC: 2.31374 cumulative IPC: 2.31338 (Simulation time: 0 hr 1 min 29 sec) 
Heartbeat CPU 0 instructions: 60000000 cycles: 25935351 heartbeat IPC: 2.31377 cumulative IPC: 2.31344 (Simulation time: 0 hr 1 min 47 sec) 
Heartbeat CPU 0 instructions: 70000000 cycles: 30256936 heartbeat IPC: 2.31397 cumulative IPC: 2.31352 (Simulation time: 0 hr 2 min 5 sec) 
Heartbeat CPU 0 instructions: 80000000 cycles: 34583204 heartbeat IPC: 2.31146 cumulative IPC: 2.31326 (Simulation time: 0 hr 2 min 22 sec) 
Heartbeat CPU 0 instructions: 90000003 cycles: 38905345 heartbeat IPC: 2.31367 cumulative IPC: 2.31331 (Simulation time: 0 hr 2 min 40 sec) 
Heartbeat CPU 0 instructions: 100000000 cycles: 43226927 heartbeat IPC: 2.31397 cumulative IPC: 2.31337 (Simulation time: 0 hr 2 min 58 sec) 

Warmup complete CPU 0 instructions: 100000001 cycles: 43226928 (Simulation time: 0 hr 2 min 58 sec) 

Heartbeat CPU 0 instructions: 110000000 cycles: 57867594 heartbeat IPC: 0.683029 cumulative IPC: 0.683029 (Simulation time: 0 hr 3 min 24 sec) 
Heartbeat CPU 0 instructions: 120000000 cycles: 72797976 heartbeat IPC: 0.669775 cumulative IPC: 0.676337 (Simulation time: 0 hr 3 min 50 sec) 
Heartbeat CPU 0 instructions: 130000000 cycles: 87533139 heartbeat IPC: 0.678649 cumulative IPC: 0.677106 (Simulation time: 0 hr 4 min 16 sec) 
Heartbeat CPU 0 instructions: 140000000 cycles: 102220274 heartbeat IPC: 0.680868 cumulative IPC: 0.678043 (Simulation time: 0 hr 4 min 41 sec) 
Heartbeat CPU 0 instructions: 150000003 cycles: 116529566 heartbeat IPC: 0.698847 cumulative IPC: 0.682104 (Simulation time: 0 hr 5 min 7 sec) 
Heartbeat CPU 0 instructions: 160000000 cycles: 130629563 heartbeat IPC: 0.70922 cumulative IPC: 0.686478 (Simulation time: 0 hr 5 min 32 sec) 
Heartbeat CPU 0 instructions: 170000002 cycles: 145363023 heartbeat IPC: 0.678727 cumulative IPC: 0.68536 (Simulation time: 0 hr 5 min 58 sec) 
Heartbeat CPU 0 instructions: 180000000 cycles: 159870900 heartbeat IPC: 0.689281 cumulative IPC: 0.685848 (Simulation time: 0 hr 6 min 24 sec) 
Heartbeat CPU 0 instructions: 190000003 cycles: 177591324 heartbeat IPC: 0.564321 cumulative IPC: 0.66982 (Simulation time: 0 hr 6 min 52 sec) 
Heartbeat CPU 0 instructions: 200000000 cycles: 198653097 heartbeat IPC: 0.474794 cumulative IPC: 0.643392 (Simulation time: 0 hr 7 min 24 sec) 
Heartbeat CPU 0 instructions: 210000001 cycles: 213124704 heartbeat IPC: 0.691008 cumulative IPC: 0.647448 (Simulation time: 0 hr 7 min 50 sec) 
Heartbeat CPU 0 instructions: 220000000 cycles: 227503079 heartbeat IPC: 0.695489 cumulative IPC: 0.651197 (Simulation time: 0 hr 8 min 15 sec) 
Heartbeat CPU 0 instructions: 230000001 cycles: 242273943 heartbeat IPC: 0.677009 cumulative IPC: 0.653112 (Simulation time: 0 hr 8 min 41 sec) 
Heartbeat CPU 0 instructions: 240000000 cycles: 257044000 heartbeat IPC: 0.677045 cumulative IPC: 0.654765 (Simulation time: 0 hr 9 min 7 sec) 
Heartbeat CPU 0 instructions: 250000000 cycles: 272055324 heartbeat IPC: 0.666164 cumulative IPC: 0.655513 (Simulation time: 0 hr 9 min 33 sec) 
Heartbeat CPU 0 instructions: 260000000 cycles: 287144366 heartbeat IPC: 0.662733 cumulative IPC: 0.65596 (Simulation time: 0 hr 9 min 59 sec) 
Heartbeat CPU 0 instructions: 270000002 cycles: 302547905 heartbeat IPC: 0.649202 cumulative IPC: 0.655558 (Simulation time: 0 hr 10 min 26 sec) 
Heartbeat CPU 0 instructions: 280000000 cycles: 318244720 heartbeat IPC: 0.637072 cumulative IPC: 0.654503 (Simulation time: 0 hr 10 min 52 sec) 
Heartbeat CPU 0 instructions: 290000003 cycles: 334405868 heartbeat IPC: 0.618768 cumulative IPC: 0.65252 (Simulation time: 0 hr 11 min 19 sec) 
Heartbeat CPU 0 instructions: 300000000 cycles: 349683373 heartbeat IPC: 0.654557 cumulative IPC: 0.652621 (Simulation time: 0 hr 11 min 46 sec) 
Heartbeat CPU 0 instructions: 310000000 cycles: 366201160 heartbeat IPC: 0.605408 cumulative IPC: 0.650207 (Simulation time: 0 hr 12 min 13 sec) 
Heartbeat CPU 0 instructions: 320000000 cycles: 382464515 heartbeat IPC: 0.614879 cumulative IPC: 0.648513 (Simulation time: 0 hr 12 min 40 sec) 
Heartbeat CPU 0 instructions: 330000002 cycles: 398047716 heartbeat IPC: 0.641717 cumulative IPC: 0.648215 (Simulation time: 0 hr 13 min 7 sec) 
Heartbeat CPU 0 instructions: 340000000 cycles: 414588421 heartbeat IPC: 0.604569 cumulative IPC: 0.646271 (Simulation time: 0 hr 13 min 34 sec) 
Heartbeat CPU 0 instructions: 350000001 cycles: 430115442 heartbeat IPC: 0.644039 cumulative IPC: 0.646181 (Simulation time: 0 hr 14 min 1 sec) 
Heartbeat CPU 0 instructions: 360000000 cycles: 446029164 heartbeat IPC: 0.628388 cumulative IPC: 0.645478 (Simulation time: 0 hr 14 min 27 sec) 
Heartbeat CPU 0 instructions: 370000000 cycles: 461323652 heartbeat IPC: 0.65383 cumulative IPC: 0.645784 (Simulation time: 0 hr 14 min 54 sec) 
Heartbeat CPU 0 instructions: 380000000 cycles: 476792133 heartbeat IPC: 0.646476 cumulative IPC: 0.645808 (Simulation time: 0 hr 15 min 20 sec) 
Heartbeat CPU 0 instructions: 390000000 cycles: 491720185 heartbeat IPC: 0.66988 cumulative IPC: 0.646609 (Simulation time: 0 hr 15 min 46 sec) 
Heartbeat CPU 0 instructions: 400000000 cycles: 506705185 heartbeat IPC: 0.667334 cumulative IPC: 0.64728 (Simulation time: 0 hr 16 min 12 sec) 
Heartbeat CPU 0 instructions: 410000000 cycles: 521497550 heartbeat IPC: 0.676024 cumulative IPC: 0.648169 (Simulation time: 0 hr 16 min 38 sec) 
Heartbeat CPU 0 instructions: 420000000 cycles: 536220438 heartbeat IPC: 0.679215 cumulative IPC: 0.649096 (Simulation time: 0 hr 17 min 4 sec) 
Heartbeat CPU 0 instructions: 430000002 cycles: 550587666 heartbeat IPC: 0.696029 cumulative IPC: 0.650425 (Simulation time: 0 hr 17 min 30 sec) 
Heartbeat CPU 0 instructions: 440000000 cycles: 564825089 heartbeat IPC: 0.702374 cumulative IPC: 0.651843 (Simulation time: 0 hr 17 min 55 sec) 
Heartbeat CPU 0 instructions: 450000000 cycles: 579519651 heartbeat IPC: 0.680524 cumulative IPC: 0.652629 (Simulation time: 0 hr 18 min 21 sec) 
Heartbeat CPU 0 instructions: 460000000 cycles: 594535784 heartbeat IPC: 0.66595 cumulative IPC: 0.652992 (Simulation time: 0 hr 18 min 47 sec) 
Heartbeat CPU 0 instructions: 470000000 cycles: 609184444 heartbeat IPC: 0.682656 cumulative IPC: 0.653759 (Simulation time: 0 hr 19 min 13 sec) 
Heartbeat CPU 0 instructions: 480000000 cycles: 623450826 heartbeat IPC: 0.700949 cumulative IPC: 0.65492 (Simulation time: 0 hr 19 min 38 sec) 
Heartbeat CPU 0 instructions: 490000001 cycles: 638346082 heartbeat IPC: 0.671355 cumulative IPC: 0.655331 (Simulation time: 0 hr 20 min 4 sec) 
Heartbeat CPU 0 instructions: 500000000 cycles: 652877123 heartbeat IPC: 0.688182 cumulative IPC: 0.656114 (Simulation time: 0 hr 20 min 30 sec) 
Heartbeat CPU 0 instructions: 510000002 cycles: 667334919 heartbeat IPC: 0.691669 cumulative IPC: 0.656938 (Simulation time: 0 hr 20 min 55 sec) 
Heartbeat CPU 0 instructions: 520000000 cycles: 681317645 heartbeat IPC: 0.715168 cumulative IPC: 0.658214 (Simulation time: 0 hr 21 min 20 sec) 
Heartbeat CPU 0 instructions: 530000001 cycles: 695819690 heartbeat IPC: 0.689558 cumulative IPC: 0.65891 (Simulation time: 0 hr 21 min 46 sec) 
Heartbeat CPU 0 instructions: 540000000 cycles: 710333816 heartbeat IPC: 0.688984 cumulative IPC: 0.659564 (Simulation time: 0 hr 22 min 12 sec) 
Heartbeat CPU 0 instructions: 550000003 cycles: 724729262 heartbeat IPC: 0.694664 cumulative IPC: 0.660306 (Simulation time: 0 hr 22 min 37 sec) 
Heartbeat CPU 0 instructions: 560000000 cycles: 739779108 heartbeat IPC: 0.664458 cumulative IPC: 0.660396 (Simulation time: 0 hr 23 min 3 sec) 
Heartbeat CPU 0 instructions: 570000001 cycles: 754381438 heartbeat IPC: 0.684822 cumulative IPC: 0.660897 (Simulation time: 0 hr 23 min 29 sec) 
Heartbeat CPU 0 instructions: 580000000 cycles: 768689066 heartbeat IPC: 0.698928 cumulative IPC: 0.661647 (Simulation time: 0 hr 23 min 55 sec) 
Heartbeat CPU 0 instructions: 590000003 cycles: 782497480 heartbeat IPC: 0.724196 cumulative IPC: 0.662816 (Simulation time: 0 hr 24 min 20 sec) 
Heartbeat CPU 0 instructions: 600000000 cycles: 796989511 heartbeat IPC: 0.690034 cumulative IPC: 0.663339 (Simulation time: 0 hr 24 min 45 sec) 
Finished CPU 0 instructions: 500000000 cycles: 753762591 cumulative IPC: 0.663339 (Simulation time: 0 hr 24 min 45 sec) 

CPU 0 Branch Prediction Accuracy: 99.5915% MPKI: 0.037126
Number of Branches: 4544106 Number of Mispredictions: 18563
Number of LOAD Instructions: 149787067
Number of LOAD Instructions (ROI): 149787067
Number of STORE Instructions: 77239062
Number of STORE Instructions (ROI): 77239062
Total Destination Memory Operands: 77239062
Total Destination Memory Operands (ROI): 77239062
Total Source Memory Operands: 149787067
Total Source Memory Operands (ROI): 149787067
Number of DEPENDED LOADS: 19252251
Number of DEPENDED LOADS (ROI): 19252251
Number of SQ_ADDED: 77239036
Number of SQ_ADDED (ROI): 77239036
Number of LQ_ADDED: 149787020
Number of LQ_ADDED (ROI): 149787020
Number of Instructions read from trace: 600000256

ChampSim completed all CPUs

Region of Interest Statistics

CPU 0 cumulative IPC: 0.663339 instructions: 500000000 cycles: 753762591
ITLB TOTAL     ACCESS:   86444564  HIT:   86444563  MISS:          1
ITLB LOAD      ACCESS:   86444564  HIT:   86444563  MISS:          1
ITLB RFO       ACCESS:          0  HIT:          0  MISS:          0
ITLB PREFETCH  ACCESS:          0  HIT:          0  MISS:          0
ITLB WRITEBACK ACCESS:          0  HIT:          0  MISS:          0
ITLB PREFETCH  REQUESTED:          0  ISSUED:          0  USEFUL:          0  USELESS:          0
ITLB TOTAL MSHR MERGED:          1
ITLB LOAD MSHR MERGED:          1
ITLB RFO MSHR MERGED:          0
ITLB PREFETCH MSHR MERGED:          0
ITLB WRITEBACK MSHR MERGED:          0
ITLB TOTAL ACCESSES:   86444565 HITS:   86444563 MISSES:          2
ITLB LOAD ACCESSES:   86444565 HITS:   86444563 MISSES:          2
ITLB RFO ACCESSES:          0 HITS:          0 MISSES:          0
ITLB PREFETCH ACCESSES:          0 HITS:          0 MISSES:          0
ITLB WRITEBACK ACCESSES:          0 HITS:          0 MISSES:          0
ITLB RQ ACCESS:  500000002
ITLB RQ TO_CACHE:   86444565
ITLB RQ MERGED:  413555437
ITLB RQ FORWARD:          0
ITLB WQ ACCESS:          0
ITLB WQ TO_CACHE:          0
ITLB WQ MERGED:          0
ITLB WQ FORWARD:          0
DTLB TOTAL     ACCESS:   98096844  HIT:   97911583  MISS:     185261
DTLB LOAD      ACCESS:   55037014  HIT:   54990703  MISS:      46311
DTLB RFO       ACCESS:   43059830  HIT:   42920880  MISS:     138950
DTLB PREFETCH  ACCESS:          0  HIT:          0  MISS:          0
DTLB WRITEBACK ACCESS:          0  HIT:          0  MISS:          0
DTLB PREFETCH  REQUESTED:          0  ISSUED:          0  USEFUL:          0  USELESS:          0
DTLB TOTAL MSHR MERGED:      83604
DTLB LOAD MSHR MERGED:      83597
DTLB RFO MSHR MERGED:          7
DTLB PREFETCH MSHR MERGED:          0
DTLB WRITEBACK MSHR MERGED:          0
DTLB TOTAL ACCESSES:   98180448 HITS:   97911583 MISSES:     268865
DTLB LOAD ACCESSES:   55120611 HITS:   54990703 MISSES:     129908
DTLB RFO ACCESSES:   43059837 HITS:   42920880 MISSES:     138957
DTLB PREFETCH ACCESSES:          0 HITS:          0 MISSES:          0
DTLB WRITEBACK ACCESSES:          0 HITS:          0 MISSES:          0
DTLB RQ ACCESS:  173630276
DTLB RQ TO_CACHE:   98180448
DTLB RQ MERGED:   75449828
DTLB RQ FORWARD:          0
DTLB WQ ACCESS:          0
DTLB WQ TO_CACHE:          0
DTLB WQ MERGED:          0
DTLB WQ FORWARD:          0
L1D TOTAL     ACCESS:  164469070  HIT:  144896505  MISS:   19572565
L1D LOAD      ACCESS:   60453872  HIT:   58602356  MISS:    1851516
L1D RFO       ACCESS:   64512781  HIT:   47910643  MISS:   16602138
L1D PREFETCH  ACCESS:   39502417  HIT:   38383506  MISS:    1118911
L1D WRITEBACK ACCESS:          0  HIT:          0  MISS:          0
L1D PREFETCH  REQUESTED:   61586522  ISSUED:   61295337  USEFUL:    1116994  USELESS:       1918
L1D TOTAL MSHR MERGED:    3462715
L1D LOAD MSHR MERGED:    1202444
L1D RFO MSHR MERGED:      11228
L1D PREFETCH MSHR MERGED:    2249043
L1D WRITEBACK MSHR MERGED:          0
L1D TOTAL ACCESSES:  168519818 HITS:  145484538 MISSES:   23035280
L1D LOAD ACCESSES:   61867991 HITS:   58883825 MISSES:    2984166
L1D RFO ACCESSES:   64523972 HITS:   47910643 MISSES:   16613329
L1D PREFETCH ACCESSES:   42127855 HITS:   38690070 MISSES:    3437785
L1D WRITEBACK ACCESSES:          0 HITS:          0 MISSES:          0
L1D RQ ACCESS:  109088961
L1D RQ TO_CACHE:   61586522
L1D RQ MERGED:   47220970
L1D RQ FORWARD:          0
L1D WQ ACCESS:   64541313
L1D WQ TO_CACHE:   64523973
L1D WQ MERGED:      17340
L1D WQ FORWARD:     588033
L1I TOTAL     ACCESS:  107753206  HIT:  107753198  MISS:          8
L1I LOAD      ACCESS:  107753206  HIT:  107753198  MISS:          8
L1I RFO       ACCESS:          0  HIT:          0  MISS:          0
L1I PREFETCH  ACCESS:          0  HIT:          0  MISS:          0
L1I WRITEBACK ACCESS:          0  HIT:          0  MISS:          0
L1I PREFETCH  REQUESTED:          0  ISSUED:          0  USEFUL:          0  USELESS:          0
L1I TOTAL MSHR MERGED:          3
L1I LOAD MSHR MERGED:          3
L1I RFO MSHR MERGED:          0
L1I PREFETCH MSHR MERGED:          0
L1I WRITEBACK MSHR MERGED:          0
L1I TOTAL ACCESSES:  107753209 HITS:  107753198 MISSES:         11
L1I LOAD ACCESSES:  107753209 HITS:  107753198 MISSES:         11
L1I RFO ACCESSES:          0 HITS:          0 MISSES:          0
L1I PREFETCH ACCESSES:          0 HITS:          0 MISSES:          0
L1I WRITEBACK ACCESSES:          0 HITS:          0 MISSES:          0
L1I RQ ACCESS:  500000007
L1I RQ TO_CACHE:  107753209
L1I RQ MERGED:  392246798
L1I RQ FORWARD:          0
L1I WQ ACCESS:          0
L1I WQ TO_CACHE:          0
L1I WQ MERGED:          0
L1I WQ FORWARD:          0
L2C TOTAL     ACCESS:   36779079  HIT:   24821493  MISS:   11957586
L2C LOAD      ACCESS:    1781730  HIT:     245167  MISS:    1536563
L2C RFO       ACCESS:   16602100  HIT:    7610726  MISS:    8991374
L2C PREFETCH  ACCESS:    1793059  HIT:     364635  MISS:    1428424
L2C WRITEBACK ACCESS:   16602190  HIT:   16600965  MISS:       1225
L2C PREFETCH  REQUESTED:     814936  ISSUED:     814936  USEFUL:     242835  USELESS:    1185870
L2C TOTAL MSHR MERGED:       2554
L2C LOAD MSHR MERGED:        607
L2C RFO MSHR MERGED:          0
L2C PREFETCH MSHR MERGED:       1947
L2C WRITEBACK MSHR MERGED:          0
L2C TOTAL ACCESSES:   36989621 HITS:   24821495 MISSES:   12168126
L2C LOAD ACCESSES:    1781730 HITS:     245167 MISSES:    1536563
L2C RFO ACCESSES:   16602101 HITS:    7610728 MISSES:    8991373
L2C PREFETCH ACCESSES:    2003600 HITS:     364635 MISSES:    1638965
L2C WRITEBACK ACCESSES:   16602190 HITS:   16600965 MISSES:       1225
L2C RQ ACCESS:   18383831
L2C RQ TO_CACHE:   18383829
L2C RQ MERGED:          0
L2C RQ FORWARD:          0
L2C WQ ACCESS:   16602190
L2C WQ TO_CACHE:   16602190
L2C WQ MERGED:          0
L2C WQ FORWARD:          2
LLC TOTAL     ACCESS:   21153035  HIT:     585616  MISS:   20567419
LLC LOAD      ACCESS:    1535956  HIT:      75063  MISS:    1460893
LLC RFO       ACCESS:    8991356  HIT:     125992  MISS:    8865364
LLC PREFETCH  ACCESS:    1633527  HIT:     129088  MISS:    1504439
LLC WRITEBACK ACCESS:    8992196  HIT:     255473  MISS:    8736723
LLC PREFETCH  REQUESTED:          0  ISSUED:          0  USEFUL:      74827  USELESS:    1429421
LLC TOTAL MSHR MERGED:       3085
LLC LOAD MSHR MERGED:        270
LLC RFO MSHR MERGED:          0
LLC PREFETCH MSHR MERGED:       2815
LLC WRITEBACK MSHR MERGED:          0
LLC TOTAL ACCESSES:   21156138 HITS:     585634 MISSES:   20570504
LLC LOAD ACCESSES:    1535956 HITS:      75063 MISSES:    1460893
LLC RFO ACCESSES:    8991373 HITS:     126010 MISSES:    8865363
LLC PREFETCH ACCESSES:    1636613 HITS:     129088 MISSES:    1507525
LLC WRITEBACK ACCESSES:    8992196 HITS:     255473 MISSES:    8736723
LLC 0 RQ ACCESS:   10527329
LLC 0 RQ TO_CACHE:   10527311
LLC 0 RQ MERGED:          0
LLC 0 RQ FORWARD:          0
LLC WQ ACCESS:    8992196
LLC WQ TO_CACHE:    8992196
LLC WQ MERGED:          0
LLC WQ FORWARD:         18
Major fault: 0 Minor fault: 102360
CPU 0 L1D next line prefetcher final stats
CPU 0 L2C PC-based stride prefetcher final stats
All Misses: 24459889
All Hits: 668657
SD Algo Stats - Switches: 0 SRR-Repls: 1639423 BRR-Repls: 0

DRAM Statistics
 CHANNEL 0
 RQ ROW_BUFFER_HIT:    3728037  ROW_BUFFER_MISS:    8102382
 DBUS_CONGESTED:   14277176
 WQ ROW_BUFFER_HIT:    1049539  ROW_BUFFER_MISS:    7814727  FULL:          0

 AVG_CONGESTED_CYCLE: 13
LOADS RETIRED: 124982196
INSTR RETIRED: 500000000
