
*** ChampSim Multicore Out-of-Order Simulator ***

Warmup Instructions: 100000000
Simulation Instructions: 500000000
Number of CPUs: 1
LLC sets: 2048
LLC ways: 16
Clean RRIP Policies: 1213230112132301 Dirty RRIP Policies: 2213130122131301 PSEL Width: 10 Track Set: 4294967295 PSEL Mask: 1 Demote Mask: 40100000401000DS Algo: 0Window size: 0
Off-chip DRAM Size: 4096 MB Channels: 1 Width: 64-bit Data Rate: 1600 MT/s

CPU 0 runs /mnt/beegfs/iconst01/spec2017/Omnetpp.trace.gz
NOT SORTED
TRACE STRING: /mnt/beegfs/iconst01/spec2017/Omnetpp.trace.gz
SORTED
TRACE STRING: /mnt/beegfs/iconst01/spec2017/Omnetpp.trace.gz
INITIAL
TRACE STRING: /mnt/beegfs/iconst01/spec2017/Omnetpp.trace.gz

champsim_seed used: 739

CPU 0 L1D next line prefetcher
CPU 0 L2C IP-based stride prefetcher
Initialize DRRIP state
Assign rand_sets[0]: 454  LLC: 2048
rand_sets[0]: 454
Assign rand_sets[1]: 1662  LLC: 2048
rand_sets[1]: 1662
Assign rand_sets[2]: 1921  LLC: 2048
rand_sets[2]: 1921
Assign rand_sets[3]: 1131  LLC: 2048
rand_sets[3]: 1131
Assign rand_sets[4]: 331  LLC: 2048
rand_sets[4]: 331
Assign rand_sets[5]: 1531  LLC: 2048
rand_sets[5]: 1531
Assign rand_sets[6]: 482  LLC: 2048
rand_sets[6]: 482
Assign rand_sets[7]: 1275  LLC: 2048
rand_sets[7]: 1275
Assign rand_sets[8]: 1876  LLC: 2048
rand_sets[8]: 1876
Assign rand_sets[9]: 2038  LLC: 2048
rand_sets[9]: 2038
Assign rand_sets[10]: 701  LLC: 2048
rand_sets[10]: 701
Assign rand_sets[11]: 479  LLC: 2048
rand_sets[11]: 479
Assign rand_sets[12]: 892  LLC: 2048
rand_sets[12]: 892
Assign rand_sets[13]: 1820  LLC: 2048
rand_sets[13]: 1820
Assign rand_sets[14]: 1505  LLC: 2048
rand_sets[14]: 1505
Assign rand_sets[15]: 1159  LLC: 2048
rand_sets[15]: 1159
Assign rand_sets[16]: 513  LLC: 2048
rand_sets[16]: 513
Assign rand_sets[17]: 703  LLC: 2048
rand_sets[17]: 703
Assign rand_sets[18]: 561  LLC: 2048
rand_sets[18]: 561
Assign rand_sets[19]: 990  LLC: 2048
rand_sets[19]: 990
Assign rand_sets[20]: 342  LLC: 2048
rand_sets[20]: 342
Assign rand_sets[21]: 882  LLC: 2048
rand_sets[21]: 882
Assign rand_sets[22]: 15  LLC: 2048
rand_sets[22]: 15
Assign rand_sets[23]: 71  LLC: 2048
rand_sets[23]: 71
Assign rand_sets[24]: 1127  LLC: 2048
rand_sets[24]: 1127
Assign rand_sets[25]: 1382  LLC: 2048
rand_sets[25]: 1382
Assign rand_sets[26]: 647  LLC: 2048
rand_sets[26]: 647
Assign rand_sets[27]: 857  LLC: 2048
rand_sets[27]: 857
Assign rand_sets[28]: 1450  LLC: 2048
rand_sets[28]: 1450
Assign rand_sets[29]: 1160  LLC: 2048
rand_sets[29]: 1160
Assign rand_sets[30]: 1852  LLC: 2048
rand_sets[30]: 1852
Assign rand_sets[31]: 1881  LLC: 2048
rand_sets[31]: 1881
Assign rand_sets[32]: 1770  LLC: 2048
rand_sets[32]: 1770
Assign rand_sets[33]: 1622  LLC: 2048
rand_sets[33]: 1622
Assign rand_sets[34]: 275  LLC: 2048
rand_sets[34]: 275
Assign rand_sets[35]: 635  LLC: 2048
rand_sets[35]: 635
Assign rand_sets[36]: 466  LLC: 2048
rand_sets[36]: 466
Assign rand_sets[37]: 1413  LLC: 2048
rand_sets[37]: 1413
Assign rand_sets[38]: 417  LLC: 2048
rand_sets[38]: 417
Assign rand_sets[39]: 472  LLC: 2048
rand_sets[39]: 472
Assign rand_sets[40]: 1340  LLC: 2048
rand_sets[40]: 1340
Assign rand_sets[41]: 852  LLC: 2048
rand_sets[41]: 852
Assign rand_sets[42]: 1365  LLC: 2048
rand_sets[42]: 1365
Assign rand_sets[43]: 47  LLC: 2048
rand_sets[43]: 47
Assign rand_sets[44]: 823  LLC: 2048
rand_sets[44]: 823
Assign rand_sets[45]: 686  LLC: 2048
rand_sets[45]: 686
Assign rand_sets[46]: 1637  LLC: 2048
rand_sets[46]: 1637
Assign rand_sets[47]: 1115  LLC: 2048
rand_sets[47]: 1115
Assign rand_sets[48]: 986  LLC: 2048
rand_sets[48]: 986
Assign rand_sets[49]: 258  LLC: 2048
rand_sets[49]: 258
Assign rand_sets[50]: 633  LLC: 2048
rand_sets[50]: 633
Assign rand_sets[51]: 920  LLC: 2048
rand_sets[51]: 920
Assign rand_sets[52]: 204  LLC: 2048
rand_sets[52]: 204
Assign rand_sets[53]: 227  LLC: 2048
rand_sets[53]: 227
Assign rand_sets[54]: 1818  LLC: 2048
rand_sets[54]: 1818
Assign rand_sets[55]: 886  LLC: 2048
rand_sets[55]: 886
Assign rand_sets[56]: 1422  LLC: 2048
rand_sets[56]: 1422
Assign rand_sets[57]: 607  LLC: 2048
rand_sets[57]: 607
Assign rand_sets[58]: 217  LLC: 2048
rand_sets[58]: 217
Assign rand_sets[59]: 1945  LLC: 2048
rand_sets[59]: 1945
Assign rand_sets[60]: 143  LLC: 2048
rand_sets[60]: 143
Assign rand_sets[61]: 1311  LLC: 2048
rand_sets[61]: 1311
Assign rand_sets[62]: 319  LLC: 2048
rand_sets[62]: 319
Assign rand_sets[63]: 1846  LLC: 2048
rand_sets[63]: 1846
 CLEAN-RRIP-POLICY-1: 1-2-1-3-2-3-0-1- CLEAN-RRIP-POLICY-2: 1-2-1-3-2-3-0-1-
 DIRTY-RRIP-POLICY-1: 2-2-1-3-1-3-0-1- DIRTY-RRIP-POLICY-2: 2-2-1-3-1-3-0-1-
 PSEL width: 10
Heartbeat CPU 0 instructions: 10000000 cycles: 7319866 heartbeat IPC: 1.36615 cumulative IPC: 1.36615 (Simulation time: 0 hr 0 min 20 sec) 
Heartbeat CPU 0 instructions: 20000000 cycles: 14623552 heartbeat IPC: 1.36917 cumulative IPC: 1.36766 (Simulation time: 0 hr 0 min 39 sec) 
Heartbeat CPU 0 instructions: 30000003 cycles: 21924920 heartbeat IPC: 1.36961 cumulative IPC: 1.36831 (Simulation time: 0 hr 0 min 59 sec) 
Heartbeat CPU 0 instructions: 40000000 cycles: 29213120 heartbeat IPC: 1.37208 cumulative IPC: 1.36925 (Simulation time: 0 hr 1 min 18 sec) 
Heartbeat CPU 0 instructions: 50000000 cycles: 36489515 heartbeat IPC: 1.37431 cumulative IPC: 1.37026 (Simulation time: 0 hr 1 min 38 sec) 
Heartbeat CPU 0 instructions: 60000000 cycles: 43769547 heartbeat IPC: 1.37362 cumulative IPC: 1.37082 (Simulation time: 0 hr 1 min 57 sec) 
Heartbeat CPU 0 instructions: 70000001 cycles: 51054892 heartbeat IPC: 1.37262 cumulative IPC: 1.37107 (Simulation time: 0 hr 2 min 17 sec) 
Heartbeat CPU 0 instructions: 80000000 cycles: 58329994 heartbeat IPC: 1.37455 cumulative IPC: 1.37151 (Simulation time: 0 hr 2 min 37 sec) 
Heartbeat CPU 0 instructions: 90000000 cycles: 65636370 heartbeat IPC: 1.36867 cumulative IPC: 1.37119 (Simulation time: 0 hr 2 min 56 sec) 
Heartbeat CPU 0 instructions: 100000000 cycles: 72928498 heartbeat IPC: 1.37134 cumulative IPC: 1.37121 (Simulation time: 0 hr 3 min 16 sec) 

Warmup complete CPU 0 instructions: 100000002 cycles: 72928499 (Simulation time: 0 hr 3 min 16 sec) 

Heartbeat CPU 0 instructions: 110000002 cycles: 113343959 heartbeat IPC: 0.24743 cumulative IPC: 0.24743 (Simulation time: 0 hr 3 min 55 sec) 
Heartbeat CPU 0 instructions: 120000000 cycles: 153467975 heartbeat IPC: 0.249227 cumulative IPC: 0.248325 (Simulation time: 0 hr 4 min 34 sec) 
Heartbeat CPU 0 instructions: 130000002 cycles: 193837913 heartbeat IPC: 0.247709 cumulative IPC: 0.24812 (Simulation time: 0 hr 5 min 13 sec) 
Heartbeat CPU 0 instructions: 140000000 cycles: 234299029 heartbeat IPC: 0.247151 cumulative IPC: 0.247877 (Simulation time: 0 hr 5 min 52 sec) 
Heartbeat CPU 0 instructions: 150000002 cycles: 274348108 heartbeat IPC: 0.249694 cumulative IPC: 0.248238 (Simulation time: 0 hr 6 min 31 sec) 
Heartbeat CPU 0 instructions: 160000000 cycles: 314444885 heartbeat IPC: 0.249397 cumulative IPC: 0.24843 (Simulation time: 0 hr 7 min 10 sec) 
Heartbeat CPU 0 instructions: 170000001 cycles: 353786943 heartbeat IPC: 0.254181 cumulative IPC: 0.249236 (Simulation time: 0 hr 7 min 49 sec) 
Heartbeat CPU 0 instructions: 180000000 cycles: 393891699 heartbeat IPC: 0.249347 cumulative IPC: 0.24925 (Simulation time: 0 hr 8 min 28 sec) 
Heartbeat CPU 0 instructions: 190000002 cycles: 433969888 heartbeat IPC: 0.249512 cumulative IPC: 0.249279 (Simulation time: 0 hr 9 min 6 sec) 
Heartbeat CPU 0 instructions: 200000000 cycles: 475190156 heartbeat IPC: 0.242599 cumulative IPC: 0.248594 (Simulation time: 0 hr 9 min 46 sec) 
Heartbeat CPU 0 instructions: 210000003 cycles: 515273603 heartbeat IPC: 0.24948 cumulative IPC: 0.248675 (Simulation time: 0 hr 10 min 25 sec) 
Heartbeat CPU 0 instructions: 220000000 cycles: 555577367 heartbeat IPC: 0.248116 cumulative IPC: 0.248628 (Simulation time: 0 hr 11 min 4 sec) 
Heartbeat CPU 0 instructions: 230000000 cycles: 595862139 heartbeat IPC: 0.248233 cumulative IPC: 0.248598 (Simulation time: 0 hr 11 min 43 sec) 
Heartbeat CPU 0 instructions: 240000000 cycles: 635898027 heartbeat IPC: 0.249776 cumulative IPC: 0.248681 (Simulation time: 0 hr 12 min 22 sec) 
Heartbeat CPU 0 instructions: 250000000 cycles: 675966233 heartbeat IPC: 0.249574 cumulative IPC: 0.248741 (Simulation time: 0 hr 13 min 1 sec) 
Heartbeat CPU 0 instructions: 260000000 cycles: 716145968 heartbeat IPC: 0.248882 cumulative IPC: 0.248749 (Simulation time: 0 hr 13 min 40 sec) 
Heartbeat CPU 0 instructions: 270000000 cycles: 756396600 heartbeat IPC: 0.248443 cumulative IPC: 0.248731 (Simulation time: 0 hr 14 min 19 sec) 
Heartbeat CPU 0 instructions: 280000000 cycles: 796970787 heartbeat IPC: 0.246462 cumulative IPC: 0.248604 (Simulation time: 0 hr 14 min 58 sec) 
Heartbeat CPU 0 instructions: 290000001 cycles: 836783690 heartbeat IPC: 0.251175 cumulative IPC: 0.248738 (Simulation time: 0 hr 15 min 37 sec) 
Heartbeat CPU 0 instructions: 300000000 cycles: 877249496 heartbeat IPC: 0.247122 cumulative IPC: 0.248657 (Simulation time: 0 hr 16 min 16 sec) 
Heartbeat CPU 0 instructions: 310000000 cycles: 917669577 heartbeat IPC: 0.247402 cumulative IPC: 0.248597 (Simulation time: 0 hr 16 min 55 sec) 
Heartbeat CPU 0 instructions: 320000000 cycles: 957763661 heartbeat IPC: 0.249413 cumulative IPC: 0.248634 (Simulation time: 0 hr 17 min 34 sec) 
Heartbeat CPU 0 instructions: 330000000 cycles: 997872278 heartbeat IPC: 0.249323 cumulative IPC: 0.248664 (Simulation time: 0 hr 18 min 14 sec) 
Heartbeat CPU 0 instructions: 340000000 cycles: 1038565305 heartbeat IPC: 0.245742 cumulative IPC: 0.248541 (Simulation time: 0 hr 18 min 53 sec) 
Heartbeat CPU 0 instructions: 350000001 cycles: 1078751092 heartbeat IPC: 0.248844 cumulative IPC: 0.248553 (Simulation time: 0 hr 19 min 32 sec) 
Heartbeat CPU 0 instructions: 360000000 cycles: 1119221958 heartbeat IPC: 0.247091 cumulative IPC: 0.248496 (Simulation time: 0 hr 20 min 11 sec) 
Heartbeat CPU 0 instructions: 370000000 cycles: 1158805855 heartbeat IPC: 0.252628 cumulative IPC: 0.248647 (Simulation time: 0 hr 20 min 49 sec) 
Heartbeat CPU 0 instructions: 380000000 cycles: 1199281657 heartbeat IPC: 0.247061 cumulative IPC: 0.24859 (Simulation time: 0 hr 21 min 29 sec) 
Heartbeat CPU 0 instructions: 390000001 cycles: 1239303838 heartbeat IPC: 0.249861 cumulative IPC: 0.248634 (Simulation time: 0 hr 22 min 7 sec) 
Heartbeat CPU 0 instructions: 400000000 cycles: 1279430041 heartbeat IPC: 0.249214 cumulative IPC: 0.248653 (Simulation time: 0 hr 22 min 46 sec) 
Heartbeat CPU 0 instructions: 410000000 cycles: 1319408666 heartbeat IPC: 0.250134 cumulative IPC: 0.2487 (Simulation time: 0 hr 23 min 25 sec) 
Heartbeat CPU 0 instructions: 420000000 cycles: 1359391395 heartbeat IPC: 0.250108 cumulative IPC: 0.248744 (Simulation time: 0 hr 24 min 4 sec) 
Heartbeat CPU 0 instructions: 430000000 cycles: 1399438953 heartbeat IPC: 0.249703 cumulative IPC: 0.248773 (Simulation time: 0 hr 24 min 43 sec) 
Heartbeat CPU 0 instructions: 440000000 cycles: 1439565351 heartbeat IPC: 0.249213 cumulative IPC: 0.248786 (Simulation time: 0 hr 25 min 21 sec) 
Heartbeat CPU 0 instructions: 450000002 cycles: 1479551516 heartbeat IPC: 0.250087 cumulative IPC: 0.248823 (Simulation time: 0 hr 26 min 0 sec) 
Heartbeat CPU 0 instructions: 460000000 cycles: 1518970126 heartbeat IPC: 0.253687 cumulative IPC: 0.248955 (Simulation time: 0 hr 26 min 39 sec) 
Heartbeat CPU 0 instructions: 470000000 cycles: 1559227010 heartbeat IPC: 0.248405 cumulative IPC: 0.248941 (Simulation time: 0 hr 27 min 18 sec) 
Heartbeat CPU 0 instructions: 480000000 cycles: 1599089259 heartbeat IPC: 0.250864 cumulative IPC: 0.248991 (Simulation time: 0 hr 27 min 57 sec) 
Heartbeat CPU 0 instructions: 490000001 cycles: 1639125769 heartbeat IPC: 0.249772 cumulative IPC: 0.249011 (Simulation time: 0 hr 28 min 36 sec) 
Heartbeat CPU 0 instructions: 500000000 cycles: 1679388589 heartbeat IPC: 0.248368 cumulative IPC: 0.248995 (Simulation time: 0 hr 29 min 14 sec) 
Heartbeat CPU 0 instructions: 510000000 cycles: 1719095943 heartbeat IPC: 0.251843 cumulative IPC: 0.249063 (Simulation time: 0 hr 29 min 53 sec) 
Heartbeat CPU 0 instructions: 520000000 cycles: 1759547710 heartbeat IPC: 0.247208 cumulative IPC: 0.249019 (Simulation time: 0 hr 30 min 32 sec) 
Heartbeat CPU 0 instructions: 530000000 cycles: 1799455102 heartbeat IPC: 0.25058 cumulative IPC: 0.249055 (Simulation time: 0 hr 31 min 11 sec) 
Heartbeat CPU 0 instructions: 540000000 cycles: 1839124384 heartbeat IPC: 0.252084 cumulative IPC: 0.249123 (Simulation time: 0 hr 31 min 50 sec) 
Heartbeat CPU 0 instructions: 550000001 cycles: 1879503594 heartbeat IPC: 0.247652 cumulative IPC: 0.24909 (Simulation time: 0 hr 32 min 29 sec) 
Heartbeat CPU 0 instructions: 560000000 cycles: 1920007555 heartbeat IPC: 0.246889 cumulative IPC: 0.249042 (Simulation time: 0 hr 33 min 8 sec) 
Heartbeat CPU 0 instructions: 570000003 cycles: 1960487644 heartbeat IPC: 0.247035 cumulative IPC: 0.248999 (Simulation time: 0 hr 33 min 47 sec) 
Heartbeat CPU 0 instructions: 580000000 cycles: 2000763696 heartbeat IPC: 0.248286 cumulative IPC: 0.248984 (Simulation time: 0 hr 34 min 26 sec) 
Heartbeat CPU 0 instructions: 590000001 cycles: 2041420034 heartbeat IPC: 0.245964 cumulative IPC: 0.248922 (Simulation time: 0 hr 35 min 6 sec) 
Heartbeat CPU 0 instructions: 600000000 cycles: 2081868597 heartbeat IPC: 0.247228 cumulative IPC: 0.248887 (Simulation time: 0 hr 35 min 45 sec) 
Finished CPU 0 instructions: 500000000 cycles: 2008940106 cumulative IPC: 0.248887 (Simulation time: 0 hr 35 min 45 sec) 

CPU 0 Branch Prediction Accuracy: 96.2429% MPKI: 5.85335
Number of Branches: 77897976 Number of Mispredictions: 2926674
Number of LOAD Instructions: 193081861
Number of LOAD Instructions (ROI): 193081861
Number of STORE Instructions: 97310749
Number of STORE Instructions (ROI): 97310749
Total Destination Memory Operands: 106368027
Total Destination Memory Operands (ROI): 106368027
Total Source Memory Operands: 193081861
Total Source Memory Operands (ROI): 193081861
Number of DEPENDED LOADS: 6452310
Number of DEPENDED LOADS (ROI): 6452310
Number of SQ_ADDED: 106367982
Number of SQ_ADDED (ROI): 106367982
Number of LQ_ADDED: 426696186
Number of LQ_ADDED (ROI): 426696186
Number of Instructions read from trace: 600000256

ChampSim completed all CPUs

Region of Interest Statistics

CPU 0 cumulative IPC: 0.248887 instructions: 500000000 cycles: 2008940106
ITLB TOTAL     ACCESS:  151183921  HIT:  151168090  MISS:      15831
ITLB LOAD      ACCESS:  151183921  HIT:  151168090  MISS:      15831
ITLB RFO       ACCESS:          0  HIT:          0  MISS:          0
ITLB PREFETCH  ACCESS:          0  HIT:          0  MISS:          0
ITLB WRITEBACK ACCESS:          0  HIT:          0  MISS:          0
ITLB PREFETCH  REQUESTED:          0  ISSUED:          0  USEFUL:          0  USELESS:          0
ITLB TOTAL MSHR MERGED:      17788
ITLB LOAD MSHR MERGED:      17788
ITLB RFO MSHR MERGED:          0
ITLB PREFETCH MSHR MERGED:          0
ITLB WRITEBACK MSHR MERGED:          0
ITLB TOTAL ACCESSES:  151201709 HITS:  151168090 MISSES:      33619
ITLB LOAD ACCESSES:  151201709 HITS:  151168090 MISSES:      33619
ITLB RFO ACCESSES:          0 HITS:          0 MISSES:          0
ITLB PREFETCH ACCESSES:          0 HITS:          0 MISSES:          0
ITLB WRITEBACK ACCESSES:          0 HITS:          0 MISSES:          0
ITLB RQ ACCESS:  500000242
ITLB RQ TO_CACHE:  151201709
ITLB RQ MERGED:  348798533
ITLB RQ FORWARD:          0
ITLB WQ ACCESS:          0
ITLB WQ TO_CACHE:          0
ITLB WQ MERGED:          0
ITLB WQ FORWARD:          0
DTLB TOTAL     ACCESS:  199551353  HIT:  194172375  MISS:    5378978
DTLB LOAD      ACCESS:  123121858  HIT:  118103366  MISS:    5018492
DTLB RFO       ACCESS:   76429495  HIT:   76069009  MISS:     360486
DTLB PREFETCH  ACCESS:          0  HIT:          0  MISS:          0
DTLB WRITEBACK ACCESS:          0  HIT:          0  MISS:          0
DTLB PREFETCH  REQUESTED:          0  ISSUED:          0  USEFUL:          0  USELESS:          0
DTLB TOTAL MSHR MERGED:     916646
DTLB LOAD MSHR MERGED:     807133
DTLB RFO MSHR MERGED:     109513
DTLB PREFETCH MSHR MERGED:          0
DTLB WRITEBACK MSHR MERGED:          0
DTLB TOTAL ACCESSES:  200467999 HITS:  194172375 MISSES:    6295624
DTLB LOAD ACCESSES:  123928991 HITS:  118103366 MISSES:    5825625
DTLB RFO ACCESSES:   76539008 HITS:   76069009 MISSES:     469999
DTLB PREFETCH ACCESSES:          0 HITS:          0 MISSES:          0
DTLB WRITEBACK ACCESSES:          0 HITS:          0 MISSES:          0
DTLB RQ ACCESS:  243873218
DTLB RQ TO_CACHE:  200467999
DTLB RQ MERGED:   43405219
DTLB RQ FORWARD:          0
DTLB WQ ACCESS:          0
DTLB WQ TO_CACHE:          0
DTLB WQ MERGED:          0
DTLB WQ FORWARD:          0
L1D TOTAL     ACCESS:  335563805  HIT:  317467795  MISS:   18096010
L1D LOAD      ACCESS:  127680660  HIT:  118735977  MISS:    8944683
L1D RFO       ACCESS:   87080800  HIT:   86290735  MISS:     790065
L1D PREFETCH  ACCESS:  120802345  HIT:  112441083  MISS:    8361262
L1D WRITEBACK ACCESS:          0  HIT:          0  MISS:          0
L1D PREFETCH  REQUESTED:  128464360  ISSUED:  126866382  USEFUL:    1740149  USELESS:    6621125
L1D TOTAL MSHR MERGED:    3869351
L1D LOAD MSHR MERGED:     949515
L1D RFO MSHR MERGED:    1072870
L1D PREFETCH MSHR MERGED:    1846966
L1D WRITEBACK MSHR MERGED:          0
L1D TOTAL ACCESSES:  339518057 HITS:  317552696 MISSES:   21965361
L1D LOAD ACCESSES:  128464796 HITS:  118736413 MISSES:    9728383
L1D RFO ACCESSES:   88084348 HITS:   86290735 MISSES:    1793613
L1D PREFETCH ACCESSES:  122968913 HITS:  112525548 MISSES:   10443365
L1D WRITEBACK ACCESSES:          0 HITS:          0 MISSES:          0
L1D RQ ACCESS:  155241833
L1D RQ TO_CACHE:  128464360
L1D RQ MERGED:   26777037
L1D RQ FORWARD:          0
L1D WQ ACCESS:   88631385
L1D WQ TO_CACHE:   88084347
L1D WQ MERGED:     547038
L1D WQ FORWARD:      84901
L1I TOTAL     ACCESS:  175494647  HIT:  175228175  MISS:     266472
L1I LOAD      ACCESS:  175494647  HIT:  175228175  MISS:     266472
L1I RFO       ACCESS:          0  HIT:          0  MISS:          0
L1I PREFETCH  ACCESS:          0  HIT:          0  MISS:          0
L1I WRITEBACK ACCESS:          0  HIT:          0  MISS:          0
L1I PREFETCH  REQUESTED:          0  ISSUED:          0  USEFUL:          0  USELESS:          0
L1I TOTAL MSHR MERGED:     213096
L1I LOAD MSHR MERGED:     213096
L1I RFO MSHR MERGED:          0
L1I PREFETCH MSHR MERGED:          0
L1I WRITEBACK MSHR MERGED:          0
L1I TOTAL ACCESSES:  175707743 HITS:  175228175 MISSES:     479568
L1I LOAD ACCESSES:  175707743 HITS:  175228175 MISSES:     479568
L1I RFO ACCESSES:          0 HITS:          0 MISSES:          0
L1I PREFETCH ACCESSES:          0 HITS:          0 MISSES:          0
L1I WRITEBACK ACCESSES:          0 HITS:          0 MISSES:          0
L1I RQ ACCESS:  500000242
L1I RQ TO_CACHE:  175707743
L1I RQ MERGED:  324292499
L1I RQ FORWARD:          0
L1I WQ ACCESS:          0
L1I WQ TO_CACHE:          0
L1I WQ MERGED:          0
L1I WQ FORWARD:          0
L2C TOTAL     ACCESS:   23738569  HIT:   12112924  MISS:   11625645
L2C LOAD      ACCESS:    9044160  HIT:    3564753  MISS:    5479407
L2C RFO       ACCESS:     720688  HIT:     130418  MISS:     590270
L2C PREFETCH  ACCESS:    8613394  HIT:    3086124  MISS:    5527270
L2C WRITEBACK ACCESS:    5360327  HIT:    5331629  MISS:      28698
L2C PREFETCH  REQUESTED:      18045  ISSUED:      18045  USEFUL:     323043  USELESS:    5204402
L2C TOTAL MSHR MERGED:         25
L2C LOAD MSHR MERGED:          3
L2C RFO MSHR MERGED:          0
L2C PREFETCH MSHR MERGED:         22
L2C WRITEBACK MSHR MERGED:          0
L2C TOTAL ACCESSES:   23740393 HITS:   12114715 MISSES:   11625678
L2C LOAD ACCESSES:    9045340 HITS:    3565933 MISSES:    5479407
L2C RFO ACCESSES:     720743 HITS:     130473 MISSES:     590270
L2C PREFETCH ACCESSES:    8613983 HITS:    3086680 MISSES:    5527303
L2C WRITEBACK ACCESSES:    5360327 HITS:    5331629 MISSES:      28698
L2C RQ ACCESS:    9766083
L2C RQ TO_CACHE:    9764848
L2C RQ MERGED:          0
L2C RQ FORWARD:          0
L2C WQ ACCESS:    5360327
L2C WQ TO_CACHE:    5360327
L2C WQ MERGED:          0
L2C WQ FORWARD:       1791
LLC TOTAL     ACCESS:   15448580  HIT:    6407844  MISS:    9040736
LLC LOAD      ACCESS:    5479375  HIT:    2064226  MISS:    3415149
LLC RFO       ACCESS:     590268  HIT:     275814  MISS:     314454
LLC PREFETCH  ACCESS:    5527266  HIT:    1006883  MISS:    4520383
LLC WRITEBACK ACCESS:    3851671  HIT:    3060921  MISS:     790750
LLC PREFETCH  REQUESTED:          0  ISSUED:          0  USEFUL:      25102  USELESS:    4495839
LLC TOTAL MSHR MERGED:          0
LLC LOAD MSHR MERGED:          0
LLC RFO MSHR MERGED:          0
LLC PREFETCH MSHR MERGED:          0
LLC WRITEBACK MSHR MERGED:          0
LLC TOTAL ACCESSES:   15448626 HITS:    6407890 MISSES:    9040736
LLC LOAD ACCESSES:    5479404 HITS:    2064255 MISSES:    3415149
LLC RFO ACCESSES:     590270 HITS:     275816 MISSES:     314454
LLC PREFETCH ACCESSES:    5527281 HITS:    1006898 MISSES:    4520383
LLC WRITEBACK ACCESSES:    3851671 HITS:    3060921 MISSES:     790750
LLC 0 RQ ACCESS:    6069674
LLC 0 RQ TO_CACHE:    6069643
LLC 0 RQ MERGED:          0
LLC 0 RQ FORWARD:          0
LLC WQ ACCESS:    3851671
LLC WQ TO_CACHE:    3851671
LLC WQ MERGED:          0
LLC WQ FORWARD:         46
Major fault: 0 Minor fault: 44814
CPU 0 L1D next line prefetcher final stats
CPU 0 L2C PC-based stride prefetcher final stats
All Misses: 10935361
All Hits: 7685694
SD Algo Stats - Switches: 0 SRR-Repls: 3897443 BRR-Repls: 0

DRAM Statistics
 CHANNEL 0
 RQ ROW_BUFFER_HIT:    1441061  ROW_BUFFER_MISS:    6807118
 DBUS_CONGESTED:    5544946
 WQ ROW_BUFFER_HIT:     181312  ROW_BUFFER_MISS:    2123066  FULL:          0

 AVG_CONGESTED_CYCLE: 13
LOADS RETIRED: 160808997
INSTR RETIRED: 500000000
