
*** ChampSim Multicore Out-of-Order Simulator ***

Warmup Instructions: 100000000
Simulation Instructions: 500000000
Number of CPUs: 1
LLC sets: 2048
LLC ways: 16
Clean RRIP Policies: 1213230212132302 Dirty RRIP Policies: 1203130212031302 PSEL Width: 10 Track Set: 4294967295 PSEL Mask: 1 Demote Mask: 1040100010401000DS Algo: 0Window size: 0
Off-chip DRAM Size: 4096 MB Channels: 1 Width: 64-bit Data Rate: 1600 MT/s

CPU 0 runs /mnt/beegfs/iconst01/spec2017/x264.trace.gz
NOT SORTED
TRACE STRING: /mnt/beegfs/iconst01/spec2017/x264.trace.gz
SORTED
TRACE STRING: /mnt/beegfs/iconst01/spec2017/x264.trace.gz
INITIAL
TRACE STRING: /mnt/beegfs/iconst01/spec2017/x264.trace.gz

champsim_seed used: 276

CPU 0 L1D next line prefetcher
CPU 0 L2C IP-based stride prefetcher
Initialize DRRIP state
Assign rand_sets[0]: 454  LLC: 2048
rand_sets[0]: 454
Assign rand_sets[1]: 1662  LLC: 2048
rand_sets[1]: 1662
Assign rand_sets[2]: 1921  LLC: 2048
rand_sets[2]: 1921
Assign rand_sets[3]: 1131  LLC: 2048
rand_sets[3]: 1131
Assign rand_sets[4]: 331  LLC: 2048
rand_sets[4]: 331
Assign rand_sets[5]: 1531  LLC: 2048
rand_sets[5]: 1531
Assign rand_sets[6]: 482  LLC: 2048
rand_sets[6]: 482
Assign rand_sets[7]: 1275  LLC: 2048
rand_sets[7]: 1275
Assign rand_sets[8]: 1876  LLC: 2048
rand_sets[8]: 1876
Assign rand_sets[9]: 2038  LLC: 2048
rand_sets[9]: 2038
Assign rand_sets[10]: 701  LLC: 2048
rand_sets[10]: 701
Assign rand_sets[11]: 479  LLC: 2048
rand_sets[11]: 479
Assign rand_sets[12]: 892  LLC: 2048
rand_sets[12]: 892
Assign rand_sets[13]: 1820  LLC: 2048
rand_sets[13]: 1820
Assign rand_sets[14]: 1505  LLC: 2048
rand_sets[14]: 1505
Assign rand_sets[15]: 1159  LLC: 2048
rand_sets[15]: 1159
Assign rand_sets[16]: 513  LLC: 2048
rand_sets[16]: 513
Assign rand_sets[17]: 703  LLC: 2048
rand_sets[17]: 703
Assign rand_sets[18]: 561  LLC: 2048
rand_sets[18]: 561
Assign rand_sets[19]: 990  LLC: 2048
rand_sets[19]: 990
Assign rand_sets[20]: 342  LLC: 2048
rand_sets[20]: 342
Assign rand_sets[21]: 882  LLC: 2048
rand_sets[21]: 882
Assign rand_sets[22]: 15  LLC: 2048
rand_sets[22]: 15
Assign rand_sets[23]: 71  LLC: 2048
rand_sets[23]: 71
Assign rand_sets[24]: 1127  LLC: 2048
rand_sets[24]: 1127
Assign rand_sets[25]: 1382  LLC: 2048
rand_sets[25]: 1382
Assign rand_sets[26]: 647  LLC: 2048
rand_sets[26]: 647
Assign rand_sets[27]: 857  LLC: 2048
rand_sets[27]: 857
Assign rand_sets[28]: 1450  LLC: 2048
rand_sets[28]: 1450
Assign rand_sets[29]: 1160  LLC: 2048
rand_sets[29]: 1160
Assign rand_sets[30]: 1852  LLC: 2048
rand_sets[30]: 1852
Assign rand_sets[31]: 1881  LLC: 2048
rand_sets[31]: 1881
Assign rand_sets[32]: 1770  LLC: 2048
rand_sets[32]: 1770
Assign rand_sets[33]: 1622  LLC: 2048
rand_sets[33]: 1622
Assign rand_sets[34]: 275  LLC: 2048
rand_sets[34]: 275
Assign rand_sets[35]: 635  LLC: 2048
rand_sets[35]: 635
Assign rand_sets[36]: 466  LLC: 2048
rand_sets[36]: 466
Assign rand_sets[37]: 1413  LLC: 2048
rand_sets[37]: 1413
Assign rand_sets[38]: 417  LLC: 2048
rand_sets[38]: 417
Assign rand_sets[39]: 472  LLC: 2048
rand_sets[39]: 472
Assign rand_sets[40]: 1340  LLC: 2048
rand_sets[40]: 1340
Assign rand_sets[41]: 852  LLC: 2048
rand_sets[41]: 852
Assign rand_sets[42]: 1365  LLC: 2048
rand_sets[42]: 1365
Assign rand_sets[43]: 47  LLC: 2048
rand_sets[43]: 47
Assign rand_sets[44]: 823  LLC: 2048
rand_sets[44]: 823
Assign rand_sets[45]: 686  LLC: 2048
rand_sets[45]: 686
Assign rand_sets[46]: 1637  LLC: 2048
rand_sets[46]: 1637
Assign rand_sets[47]: 1115  LLC: 2048
rand_sets[47]: 1115
Assign rand_sets[48]: 986  LLC: 2048
rand_sets[48]: 986
Assign rand_sets[49]: 258  LLC: 2048
rand_sets[49]: 258
Assign rand_sets[50]: 633  LLC: 2048
rand_sets[50]: 633
Assign rand_sets[51]: 920  LLC: 2048
rand_sets[51]: 920
Assign rand_sets[52]: 204  LLC: 2048
rand_sets[52]: 204
Assign rand_sets[53]: 227  LLC: 2048
rand_sets[53]: 227
Assign rand_sets[54]: 1818  LLC: 2048
rand_sets[54]: 1818
Assign rand_sets[55]: 886  LLC: 2048
rand_sets[55]: 886
Assign rand_sets[56]: 1422  LLC: 2048
rand_sets[56]: 1422
Assign rand_sets[57]: 607  LLC: 2048
rand_sets[57]: 607
Assign rand_sets[58]: 217  LLC: 2048
rand_sets[58]: 217
Assign rand_sets[59]: 1945  LLC: 2048
rand_sets[59]: 1945
Assign rand_sets[60]: 143  LLC: 2048
rand_sets[60]: 143
Assign rand_sets[61]: 1311  LLC: 2048
rand_sets[61]: 1311
Assign rand_sets[62]: 319  LLC: 2048
rand_sets[62]: 319
Assign rand_sets[63]: 1846  LLC: 2048
rand_sets[63]: 1846
 CLEAN-RRIP-POLICY-1: 1-2-1-3-2-3-0-2- CLEAN-RRIP-POLICY-2: 1-2-1-3-2-3-0-2-
 DIRTY-RRIP-POLICY-1: 1-2-0-3-1-3-0-2- DIRTY-RRIP-POLICY-2: 1-2-0-3-1-3-0-2-
 PSEL width: 10
Heartbeat CPU 0 instructions: 10000000 cycles: 4124759 heartbeat IPC: 2.42438 cumulative IPC: 2.42438 (Simulation time: 0 hr 0 min 14 sec) 
Heartbeat CPU 0 instructions: 20000000 cycles: 8233863 heartbeat IPC: 2.43362 cumulative IPC: 2.42899 (Simulation time: 0 hr 0 min 27 sec) 
Heartbeat CPU 0 instructions: 30000003 cycles: 12464696 heartbeat IPC: 2.3636 cumulative IPC: 2.4068 (Simulation time: 0 hr 0 min 40 sec) 
Heartbeat CPU 0 instructions: 40000000 cycles: 16636669 heartbeat IPC: 2.39695 cumulative IPC: 2.40433 (Simulation time: 0 hr 0 min 53 sec) 
Heartbeat CPU 0 instructions: 50000000 cycles: 20699150 heartbeat IPC: 2.46155 cumulative IPC: 2.41556 (Simulation time: 0 hr 1 min 7 sec) 
Heartbeat CPU 0 instructions: 60000000 cycles: 25022635 heartbeat IPC: 2.31295 cumulative IPC: 2.39783 (Simulation time: 0 hr 1 min 20 sec) 
Heartbeat CPU 0 instructions: 70000000 cycles: 29370909 heartbeat IPC: 2.29976 cumulative IPC: 2.38331 (Simulation time: 0 hr 1 min 33 sec) 
Heartbeat CPU 0 instructions: 80000000 cycles: 33721041 heartbeat IPC: 2.29878 cumulative IPC: 2.37241 (Simulation time: 0 hr 1 min 46 sec) 
Heartbeat CPU 0 instructions: 90000002 cycles: 38032023 heartbeat IPC: 2.31966 cumulative IPC: 2.36643 (Simulation time: 0 hr 1 min 59 sec) 
Heartbeat CPU 0 instructions: 100000000 cycles: 42328940 heartbeat IPC: 2.32725 cumulative IPC: 2.36245 (Simulation time: 0 hr 2 min 12 sec) 

Warmup complete CPU 0 instructions: 100000001 cycles: 42328941 (Simulation time: 0 hr 2 min 12 sec) 

Heartbeat CPU 0 instructions: 110000001 cycles: 49384013 heartbeat IPC: 1.41742 cumulative IPC: 1.41742 (Simulation time: 0 hr 2 min 29 sec) 
Heartbeat CPU 0 instructions: 120000000 cycles: 58894609 heartbeat IPC: 1.05146 cumulative IPC: 1.20732 (Simulation time: 0 hr 2 min 48 sec) 
Heartbeat CPU 0 instructions: 130000000 cycles: 63702771 heartbeat IPC: 2.0798 cumulative IPC: 1.40359 (Simulation time: 0 hr 3 min 5 sec) 
Heartbeat CPU 0 instructions: 140000000 cycles: 68618160 heartbeat IPC: 2.03443 cumulative IPC: 1.52154 (Simulation time: 0 hr 3 min 21 sec) 
Heartbeat CPU 0 instructions: 150000002 cycles: 75446591 heartbeat IPC: 1.46447 cumulative IPC: 1.50977 (Simulation time: 0 hr 3 min 39 sec) 
Heartbeat CPU 0 instructions: 160000000 cycles: 83283947 heartbeat IPC: 1.27594 cumulative IPC: 1.46502 (Simulation time: 0 hr 3 min 57 sec) 
Heartbeat CPU 0 instructions: 170000000 cycles: 90685411 heartbeat IPC: 1.35108 cumulative IPC: 1.44758 (Simulation time: 0 hr 4 min 14 sec) 
Heartbeat CPU 0 instructions: 180000000 cycles: 97986871 heartbeat IPC: 1.36959 cumulative IPC: 1.43735 (Simulation time: 0 hr 4 min 31 sec) 
Heartbeat CPU 0 instructions: 190000002 cycles: 105158332 heartbeat IPC: 1.39442 cumulative IPC: 1.43245 (Simulation time: 0 hr 4 min 47 sec) 
Heartbeat CPU 0 instructions: 200000000 cycles: 112396639 heartbeat IPC: 1.38154 cumulative IPC: 1.42719 (Simulation time: 0 hr 5 min 4 sec) 
Heartbeat CPU 0 instructions: 210000000 cycles: 119273317 heartbeat IPC: 1.45419 cumulative IPC: 1.4296 (Simulation time: 0 hr 5 min 21 sec) 
Heartbeat CPU 0 instructions: 220000000 cycles: 126043408 heartbeat IPC: 1.47708 cumulative IPC: 1.43344 (Simulation time: 0 hr 5 min 37 sec) 
Heartbeat CPU 0 instructions: 230000003 cycles: 132771752 heartbeat IPC: 1.48625 cumulative IPC: 1.43737 (Simulation time: 0 hr 5 min 54 sec) 
Heartbeat CPU 0 instructions: 240000000 cycles: 139517141 heartbeat IPC: 1.48249 cumulative IPC: 1.4405 (Simulation time: 0 hr 6 min 10 sec) 
Heartbeat CPU 0 instructions: 250000001 cycles: 146238982 heartbeat IPC: 1.48769 cumulative IPC: 1.44356 (Simulation time: 0 hr 6 min 26 sec) 
Heartbeat CPU 0 instructions: 260000000 cycles: 152944728 heartbeat IPC: 1.49126 cumulative IPC: 1.44645 (Simulation time: 0 hr 6 min 43 sec) 
Heartbeat CPU 0 instructions: 270000001 cycles: 159921250 heartbeat IPC: 1.43338 cumulative IPC: 1.44567 (Simulation time: 0 hr 6 min 59 sec) 
Heartbeat CPU 0 instructions: 280000000 cycles: 167452168 heartbeat IPC: 1.32786 cumulative IPC: 1.43858 (Simulation time: 0 hr 7 min 16 sec) 
Heartbeat CPU 0 instructions: 290000000 cycles: 175371450 heartbeat IPC: 1.26274 cumulative IPC: 1.42812 (Simulation time: 0 hr 7 min 34 sec) 
Heartbeat CPU 0 instructions: 300000000 cycles: 183549957 heartbeat IPC: 1.22272 cumulative IPC: 1.41622 (Simulation time: 0 hr 7 min 52 sec) 
Heartbeat CPU 0 instructions: 310000002 cycles: 191859840 heartbeat IPC: 1.20339 cumulative IPC: 1.40439 (Simulation time: 0 hr 8 min 10 sec) 
Heartbeat CPU 0 instructions: 320000000 cycles: 201851440 heartbeat IPC: 1.00084 cumulative IPC: 1.37912 (Simulation time: 0 hr 8 min 29 sec) 
Heartbeat CPU 0 instructions: 330000002 cycles: 206488201 heartbeat IPC: 2.15668 cumulative IPC: 1.40108 (Simulation time: 0 hr 8 min 46 sec) 
Heartbeat CPU 0 instructions: 340000000 cycles: 211715232 heartbeat IPC: 1.91313 cumulative IPC: 1.41688 (Simulation time: 0 hr 9 min 2 sec) 
Heartbeat CPU 0 instructions: 350000000 cycles: 218928015 heartbeat IPC: 1.38643 cumulative IPC: 1.41564 (Simulation time: 0 hr 9 min 20 sec) 
Heartbeat CPU 0 instructions: 360000000 cycles: 226584075 heartbeat IPC: 1.30615 cumulative IPC: 1.41109 (Simulation time: 0 hr 9 min 37 sec) 
Heartbeat CPU 0 instructions: 370000000 cycles: 233988762 heartbeat IPC: 1.3505 cumulative IPC: 1.40875 (Simulation time: 0 hr 9 min 55 sec) 
Heartbeat CPU 0 instructions: 380000000 cycles: 241260162 heartbeat IPC: 1.37525 cumulative IPC: 1.40752 (Simulation time: 0 hr 10 min 11 sec) 
Heartbeat CPU 0 instructions: 390000000 cycles: 249371385 heartbeat IPC: 1.23286 cumulative IPC: 1.40068 (Simulation time: 0 hr 10 min 29 sec) 
Heartbeat CPU 0 instructions: 400000000 cycles: 257570275 heartbeat IPC: 1.21968 cumulative IPC: 1.39378 (Simulation time: 0 hr 10 min 47 sec) 
Heartbeat CPU 0 instructions: 410000001 cycles: 265393607 heartbeat IPC: 1.27823 cumulative IPC: 1.38973 (Simulation time: 0 hr 11 min 5 sec) 
Heartbeat CPU 0 instructions: 420000000 cycles: 273447705 heartbeat IPC: 1.2416 cumulative IPC: 1.38457 (Simulation time: 0 hr 11 min 22 sec) 
Heartbeat CPU 0 instructions: 430000001 cycles: 281705557 heartbeat IPC: 1.21097 cumulative IPC: 1.37858 (Simulation time: 0 hr 11 min 40 sec) 
Heartbeat CPU 0 instructions: 440000000 cycles: 289746828 heartbeat IPC: 1.24358 cumulative IPC: 1.37419 (Simulation time: 0 hr 11 min 58 sec) 
Heartbeat CPU 0 instructions: 450000001 cycles: 297617569 heartbeat IPC: 1.27053 cumulative IPC: 1.371 (Simulation time: 0 hr 12 min 15 sec) 
Heartbeat CPU 0 instructions: 460000000 cycles: 307564860 heartbeat IPC: 1.0053 cumulative IPC: 1.35728 (Simulation time: 0 hr 12 min 35 sec) 
Heartbeat CPU 0 instructions: 470000002 cycles: 312192250 heartbeat IPC: 2.16105 cumulative IPC: 1.37106 (Simulation time: 0 hr 12 min 52 sec) 
Heartbeat CPU 0 instructions: 480000000 cycles: 317445210 heartbeat IPC: 1.90369 cumulative IPC: 1.38123 (Simulation time: 0 hr 13 min 8 sec) 
Heartbeat CPU 0 instructions: 490000001 cycles: 324758937 heartbeat IPC: 1.36729 cumulative IPC: 1.38087 (Simulation time: 0 hr 13 min 27 sec) 
Heartbeat CPU 0 instructions: 500000000 cycles: 333488607 heartbeat IPC: 1.14552 cumulative IPC: 1.37382 (Simulation time: 0 hr 13 min 47 sec) 
Heartbeat CPU 0 instructions: 510000002 cycles: 342221479 heartbeat IPC: 1.1451 cumulative IPC: 1.36716 (Simulation time: 0 hr 14 min 7 sec) 
Heartbeat CPU 0 instructions: 520000000 cycles: 350950337 heartbeat IPC: 1.14562 cumulative IPC: 1.36089 (Simulation time: 0 hr 14 min 27 sec) 
Heartbeat CPU 0 instructions: 530000000 cycles: 359658042 heartbeat IPC: 1.14841 cumulative IPC: 1.35506 (Simulation time: 0 hr 14 min 47 sec) 
Heartbeat CPU 0 instructions: 540000000 cycles: 367914147 heartbeat IPC: 1.21122 cumulative IPC: 1.35141 (Simulation time: 0 hr 15 min 6 sec) 
Heartbeat CPU 0 instructions: 550000000 cycles: 374953248 heartbeat IPC: 1.42064 cumulative IPC: 1.35288 (Simulation time: 0 hr 15 min 24 sec) 
Heartbeat CPU 0 instructions: 560000000 cycles: 381568102 heartbeat IPC: 1.51175 cumulative IPC: 1.35598 (Simulation time: 0 hr 15 min 41 sec) 
Heartbeat CPU 0 instructions: 570000002 cycles: 388165180 heartbeat IPC: 1.51582 cumulative IPC: 1.35902 (Simulation time: 0 hr 15 min 58 sec) 
Heartbeat CPU 0 instructions: 580000000 cycles: 394815501 heartbeat IPC: 1.50369 cumulative IPC: 1.36175 (Simulation time: 0 hr 16 min 15 sec) 
Heartbeat CPU 0 instructions: 590000002 cycles: 401508500 heartbeat IPC: 1.4941 cumulative IPC: 1.36422 (Simulation time: 0 hr 16 min 32 sec) 
Heartbeat CPU 0 instructions: 600000000 cycles: 408318171 heartbeat IPC: 1.4685 cumulative IPC: 1.36616 (Simulation time: 0 hr 16 min 49 sec) 
Finished CPU 0 instructions: 500000000 cycles: 365989238 cumulative IPC: 1.36616 (Simulation time: 0 hr 16 min 49 sec) 

CPU 0 Branch Prediction Accuracy: 93.4682% MPKI: 2.44079
Number of Branches: 18683822 Number of Mispredictions: 1220394
Number of LOAD Instructions: 142551610
Number of LOAD Instructions (ROI): 142551610
Number of STORE Instructions: 44807454
Number of STORE Instructions (ROI): 44807454
Total Destination Memory Operands: 48357071
Total Destination Memory Operands (ROI): 48357071
Total Source Memory Operands: 142551610
Total Source Memory Operands (ROI): 142551610
Number of DEPENDED LOADS: 7395130
Number of DEPENDED LOADS (ROI): 7395130
Number of SQ_ADDED: 48357051
Number of SQ_ADDED (ROI): 48357051
Number of LQ_ADDED: 157223288
Number of LQ_ADDED (ROI): 157223288
Number of Instructions read from trace: 600000256

ChampSim completed all CPUs

Region of Interest Statistics

CPU 0 cumulative IPC: 1.36616 instructions: 500000000 cycles: 365989238
ITLB TOTAL     ACCESS:   88176531  HIT:   88176462  MISS:         69
ITLB LOAD      ACCESS:   88176531  HIT:   88176462  MISS:         69
ITLB RFO       ACCESS:          0  HIT:          0  MISS:          0
ITLB PREFETCH  ACCESS:          0  HIT:          0  MISS:          0
ITLB WRITEBACK ACCESS:          0  HIT:          0  MISS:          0
ITLB PREFETCH  REQUESTED:          0  ISSUED:          0  USEFUL:          0  USELESS:          0
ITLB TOTAL MSHR MERGED:         85
ITLB LOAD MSHR MERGED:         85
ITLB RFO MSHR MERGED:          0
ITLB PREFETCH MSHR MERGED:          0
ITLB WRITEBACK MSHR MERGED:          0
ITLB TOTAL ACCESSES:   88176616 HITS:   88176462 MISSES:        154
ITLB LOAD ACCESSES:   88176616 HITS:   88176462 MISSES:        154
ITLB RFO ACCESSES:          0 HITS:          0 MISSES:          0
ITLB PREFETCH ACCESSES:          0 HITS:          0 MISSES:          0
ITLB WRITEBACK ACCESSES:          0 HITS:          0 MISSES:          0
ITLB RQ ACCESS:  500000000
ITLB RQ TO_CACHE:   88176616
ITLB RQ MERGED:  411823384
ITLB RQ FORWARD:          0
ITLB WQ ACCESS:          0
ITLB WQ TO_CACHE:          0
ITLB WQ MERGED:          0
ITLB WQ FORWARD:          0
DTLB TOTAL     ACCESS:   88203175  HIT:   88075760  MISS:     127415
DTLB LOAD      ACCESS:   59485288  HIT:   59392833  MISS:      92455
DTLB RFO       ACCESS:   28717887  HIT:   28682927  MISS:      34960
DTLB PREFETCH  ACCESS:          0  HIT:          0  MISS:          0
DTLB WRITEBACK ACCESS:          0  HIT:          0  MISS:          0
DTLB PREFETCH  REQUESTED:          0  ISSUED:          0  USEFUL:          0  USELESS:          0
DTLB TOTAL MSHR MERGED:     141121
DTLB LOAD MSHR MERGED:     107700
DTLB RFO MSHR MERGED:      33421
DTLB PREFETCH MSHR MERGED:          0
DTLB WRITEBACK MSHR MERGED:          0
DTLB TOTAL ACCESSES:   88344296 HITS:   88075760 MISSES:     268536
DTLB LOAD ACCESSES:   59592988 HITS:   59392833 MISSES:     200155
DTLB RFO ACCESSES:   28751308 HITS:   28682927 MISSES:      68381
DTLB PREFETCH ACCESSES:          0 HITS:          0 MISSES:          0
DTLB WRITEBACK ACCESSES:          0 HITS:          0 MISSES:          0
DTLB RQ ACCESS:  154558760
DTLB RQ TO_CACHE:   88344296
DTLB RQ MERGED:   66214464
DTLB RQ FORWARD:          0
DTLB WQ ACCESS:          0
DTLB WQ TO_CACHE:          0
DTLB WQ MERGED:          0
DTLB WQ FORWARD:          0
L1D TOTAL     ACCESS:  128075257  HIT:  124849672  MISS:    3225585
L1D LOAD      ACCESS:   53172490  HIT:   51977133  MISS:    1195357
L1D RFO       ACCESS:   37378185  HIT:   36764008  MISS:     614177
L1D PREFETCH  ACCESS:   37524582  HIT:   36108531  MISS:    1416051
L1D WRITEBACK ACCESS:          0  HIT:          0  MISS:          0
L1D PREFETCH  REQUESTED:   53657335  ISSUED:   52457236  USEFUL:     352048  USELESS:    1063968
L1D TOTAL MSHR MERGED:    2823569
L1D LOAD MSHR MERGED:     523574
L1D RFO MSHR MERGED:    1576463
L1D PREFETCH MSHR MERGED:     723532
L1D WRITEBACK MSHR MERGED:          0
L1D TOTAL ACCESSES:  130933685 HITS:  124884531 MISSES:    6049154
L1D LOAD ACCESSES:   53660202 HITS:   51980000 MISSES:    1680202
L1D RFO ACCESSES:   38952845 HITS:   36764008 MISSES:    2188837
L1D PREFETCH ACCESSES:   38320638 HITS:   36140523 MISSES:    2180115
L1D WRITEBACK ACCESSES:          0 HITS:          0 MISSES:          0
L1D RQ ACCESS:  113713868
L1D RQ TO_CACHE:   53657335
L1D RQ MERGED:   60053666
L1D RQ FORWARD:          0
L1D WQ ACCESS:   40844891
L1D WQ TO_CACHE:   38952845
L1D WQ MERGED:    1892046
L1D WQ FORWARD:      34859
L1I TOTAL     ACCESS:  108368264  HIT:  107809132  MISS:     559132
L1I LOAD      ACCESS:  108368264  HIT:  107809132  MISS:     559132
L1I RFO       ACCESS:          0  HIT:          0  MISS:          0
L1I PREFETCH  ACCESS:          0  HIT:          0  MISS:          0
L1I WRITEBACK ACCESS:          0  HIT:          0  MISS:          0
L1I PREFETCH  REQUESTED:          0  ISSUED:          0  USEFUL:          0  USELESS:          0
L1I TOTAL MSHR MERGED:     525638
L1I LOAD MSHR MERGED:     525638
L1I RFO MSHR MERGED:          0
L1I PREFETCH MSHR MERGED:          0
L1I WRITEBACK MSHR MERGED:          0
L1I TOTAL ACCESSES:  108893902 HITS:  107809132 MISSES:    1084770
L1I LOAD ACCESSES:  108893902 HITS:  107809132 MISSES:    1084770
L1I RFO ACCESSES:          0 HITS:          0 MISSES:          0
L1I PREFETCH ACCESSES:          0 HITS:          0 MISSES:          0
L1I WRITEBACK ACCESSES:          0 HITS:          0 MISSES:          0
L1I RQ ACCESS:  500000002
L1I RQ TO_CACHE:  108893902
L1I RQ MERGED:  391106100
L1I RQ FORWARD:          0
L1I WQ ACCESS:          0
L1I WQ TO_CACHE:          0
L1I WQ MERGED:          0
L1I WQ FORWARD:          0
L2C TOTAL     ACCESS:    4691967  HIT:    3865913  MISS:     826054
L2C LOAD      ACCESS:    1715642  HIT:    1562722  MISS:     152920
L2C RFO       ACCESS:     610946  HIT:     421179  MISS:     189767
L2C PREFETCH  ACCESS:    1662475  HIT:    1181291  MISS:     481184
L2C WRITEBACK ACCESS:     702904  HIT:     700721  MISS:       2183
L2C PREFETCH  REQUESTED:     256218  ISSUED:     256218  USEFUL:     173122  USELESS:     308728
L2C TOTAL MSHR MERGED:      13272
L2C LOAD MSHR MERGED:       4068
L2C RFO MSHR MERGED:          0
L2C PREFETCH MSHR MERGED:       9204
L2C WRITEBACK MSHR MERGED:          0
L2C TOTAL ACCESSES:    4712024 HITS:    3867528 MISSES:     844496
L2C LOAD ACCESSES:    1715760 HITS:    1562840 MISSES:     152920
L2C RFO ACCESSES:     612374 HITS:     422607 MISSES:     189767
L2C PREFETCH ACCESSES:    1680986 HITS:    1181360 MISSES:     499626
L2C WRITEBACK ACCESSES:     702904 HITS:     700721 MISSES:       2183
L2C RQ ACCESS:    2328134
L2C RQ TO_CACHE:    2326588
L2C RQ MERGED:          0
L2C RQ FORWARD:          0
L2C WQ ACCESS:     702904
L2C WQ TO_CACHE:     702904
L2C WQ MERGED:          0
L2C WQ FORWARD:       1615
LLC TOTAL     ACCESS:    1047570  HIT:     281994  MISS:     765576
LLC LOAD      ACCESS:     148848  HIT:      89568  MISS:      59280
LLC RFO       ACCESS:     189760  HIT:       6030  MISS:     183730
LLC PREFETCH  ACCESS:     488084  HIT:     148072  MISS:     340012
LLC WRITEBACK ACCESS:     220878  HIT:      38324  MISS:     182554
LLC PREFETCH  REQUESTED:          0  ISSUED:          0  USEFUL:       2156  USELESS:     338476
LLC TOTAL MSHR MERGED:       1654
LLC LOAD MSHR MERGED:        571
LLC RFO MSHR MERGED:          0
LLC PREFETCH MSHR MERGED:       1083
LLC WRITEBACK MSHR MERGED:          0
LLC TOTAL ACCESSES:    1049235 HITS:     282005 MISSES:     767230
LLC LOAD ACCESSES:     148852 HITS:      89572 MISSES:      59280
LLC RFO ACCESSES:     189767 HITS:       6037 MISSES:     183730
LLC PREFETCH ACCESSES:     489738 HITS:     148072 MISSES:     341666
LLC WRITEBACK ACCESSES:     220878 HITS:      38324 MISSES:     182554
LLC 0 RQ ACCESS:     338619
LLC 0 RQ TO_CACHE:     338608
LLC 0 RQ MERGED:          0
LLC 0 RQ FORWARD:          0
LLC WQ ACCESS:     220878
LLC WQ TO_CACHE:     220878
LLC WQ MERGED:          0
LLC WQ FORWARD:         11
Major fault: 0 Minor fault: 6811
CPU 0 L1D next line prefetcher final stats
CPU 0 L2C PC-based stride prefetcher final stats
All Misses: 904685
All Hits: 349868
SD Algo Stats - Switches: 0 SRR-Repls: 66667 BRR-Repls: 0

DRAM Statistics
 CHANNEL 0
 RQ ROW_BUFFER_HIT:     293544  ROW_BUFFER_MISS:     289413
 DBUS_CONGESTED:     402623
 WQ ROW_BUFFER_HIT:      22942  ROW_BUFFER_MISS:     193276  FULL:          0

 AVG_CONGESTED_CYCLE: 13
LOADS RETIRED: 119922929
INSTR RETIRED: 500000000
