
*** ChampSim Multicore Out-of-Order Simulator ***

Warmup Instructions: 100000000
Simulation Instructions: 500000000
Number of CPUs: 1
LLC sets: 2048
LLC ways: 16
Clean RRIP Policies: 1213130112131301 Dirty RRIP Policies: 2203130122031301 PSEL Width: 10 Track Set: 4294967295 PSEL Mask: 1 Demote Mask: 3010201030102010DS Algo: 0Window size: 0
Off-chip DRAM Size: 4096 MB Channels: 1 Width: 64-bit Data Rate: 1600 MT/s

CPU 0 runs /mnt/beegfs/iconst01/spec2017/Omnetpp.trace.gz
NOT SORTED
TRACE STRING: /mnt/beegfs/iconst01/spec2017/Omnetpp.trace.gz
SORTED
TRACE STRING: /mnt/beegfs/iconst01/spec2017/Omnetpp.trace.gz
INITIAL
TRACE STRING: /mnt/beegfs/iconst01/spec2017/Omnetpp.trace.gz

champsim_seed used: 739

CPU 0 L1D next line prefetcher
CPU 0 L2C IP-based stride prefetcher
Initialize DRRIP state
Assign rand_sets[0]: 454  LLC: 2048
rand_sets[0]: 454
Assign rand_sets[1]: 1662  LLC: 2048
rand_sets[1]: 1662
Assign rand_sets[2]: 1921  LLC: 2048
rand_sets[2]: 1921
Assign rand_sets[3]: 1131  LLC: 2048
rand_sets[3]: 1131
Assign rand_sets[4]: 331  LLC: 2048
rand_sets[4]: 331
Assign rand_sets[5]: 1531  LLC: 2048
rand_sets[5]: 1531
Assign rand_sets[6]: 482  LLC: 2048
rand_sets[6]: 482
Assign rand_sets[7]: 1275  LLC: 2048
rand_sets[7]: 1275
Assign rand_sets[8]: 1876  LLC: 2048
rand_sets[8]: 1876
Assign rand_sets[9]: 2038  LLC: 2048
rand_sets[9]: 2038
Assign rand_sets[10]: 701  LLC: 2048
rand_sets[10]: 701
Assign rand_sets[11]: 479  LLC: 2048
rand_sets[11]: 479
Assign rand_sets[12]: 892  LLC: 2048
rand_sets[12]: 892
Assign rand_sets[13]: 1820  LLC: 2048
rand_sets[13]: 1820
Assign rand_sets[14]: 1505  LLC: 2048
rand_sets[14]: 1505
Assign rand_sets[15]: 1159  LLC: 2048
rand_sets[15]: 1159
Assign rand_sets[16]: 513  LLC: 2048
rand_sets[16]: 513
Assign rand_sets[17]: 703  LLC: 2048
rand_sets[17]: 703
Assign rand_sets[18]: 561  LLC: 2048
rand_sets[18]: 561
Assign rand_sets[19]: 990  LLC: 2048
rand_sets[19]: 990
Assign rand_sets[20]: 342  LLC: 2048
rand_sets[20]: 342
Assign rand_sets[21]: 882  LLC: 2048
rand_sets[21]: 882
Assign rand_sets[22]: 15  LLC: 2048
rand_sets[22]: 15
Assign rand_sets[23]: 71  LLC: 2048
rand_sets[23]: 71
Assign rand_sets[24]: 1127  LLC: 2048
rand_sets[24]: 1127
Assign rand_sets[25]: 1382  LLC: 2048
rand_sets[25]: 1382
Assign rand_sets[26]: 647  LLC: 2048
rand_sets[26]: 647
Assign rand_sets[27]: 857  LLC: 2048
rand_sets[27]: 857
Assign rand_sets[28]: 1450  LLC: 2048
rand_sets[28]: 1450
Assign rand_sets[29]: 1160  LLC: 2048
rand_sets[29]: 1160
Assign rand_sets[30]: 1852  LLC: 2048
rand_sets[30]: 1852
Assign rand_sets[31]: 1881  LLC: 2048
rand_sets[31]: 1881
Assign rand_sets[32]: 1770  LLC: 2048
rand_sets[32]: 1770
Assign rand_sets[33]: 1622  LLC: 2048
rand_sets[33]: 1622
Assign rand_sets[34]: 275  LLC: 2048
rand_sets[34]: 275
Assign rand_sets[35]: 635  LLC: 2048
rand_sets[35]: 635
Assign rand_sets[36]: 466  LLC: 2048
rand_sets[36]: 466
Assign rand_sets[37]: 1413  LLC: 2048
rand_sets[37]: 1413
Assign rand_sets[38]: 417  LLC: 2048
rand_sets[38]: 417
Assign rand_sets[39]: 472  LLC: 2048
rand_sets[39]: 472
Assign rand_sets[40]: 1340  LLC: 2048
rand_sets[40]: 1340
Assign rand_sets[41]: 852  LLC: 2048
rand_sets[41]: 852
Assign rand_sets[42]: 1365  LLC: 2048
rand_sets[42]: 1365
Assign rand_sets[43]: 47  LLC: 2048
rand_sets[43]: 47
Assign rand_sets[44]: 823  LLC: 2048
rand_sets[44]: 823
Assign rand_sets[45]: 686  LLC: 2048
rand_sets[45]: 686
Assign rand_sets[46]: 1637  LLC: 2048
rand_sets[46]: 1637
Assign rand_sets[47]: 1115  LLC: 2048
rand_sets[47]: 1115
Assign rand_sets[48]: 986  LLC: 2048
rand_sets[48]: 986
Assign rand_sets[49]: 258  LLC: 2048
rand_sets[49]: 258
Assign rand_sets[50]: 633  LLC: 2048
rand_sets[50]: 633
Assign rand_sets[51]: 920  LLC: 2048
rand_sets[51]: 920
Assign rand_sets[52]: 204  LLC: 2048
rand_sets[52]: 204
Assign rand_sets[53]: 227  LLC: 2048
rand_sets[53]: 227
Assign rand_sets[54]: 1818  LLC: 2048
rand_sets[54]: 1818
Assign rand_sets[55]: 886  LLC: 2048
rand_sets[55]: 886
Assign rand_sets[56]: 1422  LLC: 2048
rand_sets[56]: 1422
Assign rand_sets[57]: 607  LLC: 2048
rand_sets[57]: 607
Assign rand_sets[58]: 217  LLC: 2048
rand_sets[58]: 217
Assign rand_sets[59]: 1945  LLC: 2048
rand_sets[59]: 1945
Assign rand_sets[60]: 143  LLC: 2048
rand_sets[60]: 143
Assign rand_sets[61]: 1311  LLC: 2048
rand_sets[61]: 1311
Assign rand_sets[62]: 319  LLC: 2048
rand_sets[62]: 319
Assign rand_sets[63]: 1846  LLC: 2048
rand_sets[63]: 1846
 CLEAN-RRIP-POLICY-1: 1-2-1-3-1-3-0-1- CLEAN-RRIP-POLICY-2: 1-2-1-3-1-3-0-1-
 DIRTY-RRIP-POLICY-1: 2-2-0-3-1-3-0-1- DIRTY-RRIP-POLICY-2: 2-2-0-3-1-3-0-1-
 PSEL width: 10
Heartbeat CPU 0 instructions: 10000000 cycles: 7319842 heartbeat IPC: 1.36615 cumulative IPC: 1.36615 (Simulation time: 0 hr 0 min 19 sec) 
Heartbeat CPU 0 instructions: 20000000 cycles: 14623561 heartbeat IPC: 1.36917 cumulative IPC: 1.36766 (Simulation time: 0 hr 0 min 38 sec) 
Heartbeat CPU 0 instructions: 30000003 cycles: 21924842 heartbeat IPC: 1.36962 cumulative IPC: 1.36831 (Simulation time: 0 hr 0 min 57 sec) 
Heartbeat CPU 0 instructions: 40000000 cycles: 29213046 heartbeat IPC: 1.37208 cumulative IPC: 1.36925 (Simulation time: 0 hr 1 min 16 sec) 
Heartbeat CPU 0 instructions: 50000000 cycles: 36489431 heartbeat IPC: 1.37431 cumulative IPC: 1.37026 (Simulation time: 0 hr 1 min 36 sec) 
Heartbeat CPU 0 instructions: 60000000 cycles: 43769382 heartbeat IPC: 1.37364 cumulative IPC: 1.37082 (Simulation time: 0 hr 1 min 55 sec) 
Heartbeat CPU 0 instructions: 70000001 cycles: 51054654 heartbeat IPC: 1.37263 cumulative IPC: 1.37108 (Simulation time: 0 hr 2 min 15 sec) 
Heartbeat CPU 0 instructions: 80000000 cycles: 58329558 heartbeat IPC: 1.37459 cumulative IPC: 1.37152 (Simulation time: 0 hr 2 min 35 sec) 
Heartbeat CPU 0 instructions: 90000000 cycles: 65635864 heartbeat IPC: 1.36868 cumulative IPC: 1.3712 (Simulation time: 0 hr 2 min 54 sec) 
Heartbeat CPU 0 instructions: 100000000 cycles: 72927924 heartbeat IPC: 1.37135 cumulative IPC: 1.37122 (Simulation time: 0 hr 3 min 14 sec) 

Warmup complete CPU 0 instructions: 100000002 cycles: 72927925 (Simulation time: 0 hr 3 min 14 sec) 

Heartbeat CPU 0 instructions: 110000002 cycles: 113377920 heartbeat IPC: 0.247219 cumulative IPC: 0.247219 (Simulation time: 0 hr 3 min 52 sec) 
Heartbeat CPU 0 instructions: 120000000 cycles: 153503969 heartbeat IPC: 0.249215 cumulative IPC: 0.248213 (Simulation time: 0 hr 4 min 31 sec) 
Heartbeat CPU 0 instructions: 130000002 cycles: 193897188 heartbeat IPC: 0.247566 cumulative IPC: 0.247997 (Simulation time: 0 hr 5 min 9 sec) 
Heartbeat CPU 0 instructions: 140000000 cycles: 234368035 heartbeat IPC: 0.247091 cumulative IPC: 0.24777 (Simulation time: 0 hr 5 min 48 sec) 
Heartbeat CPU 0 instructions: 150000002 cycles: 274402482 heartbeat IPC: 0.249785 cumulative IPC: 0.24817 (Simulation time: 0 hr 6 min 26 sec) 
Heartbeat CPU 0 instructions: 160000000 cycles: 314488358 heartbeat IPC: 0.249464 cumulative IPC: 0.248385 (Simulation time: 0 hr 7 min 4 sec) 
Heartbeat CPU 0 instructions: 170000001 cycles: 353812117 heartbeat IPC: 0.254299 cumulative IPC: 0.249213 (Simulation time: 0 hr 7 min 42 sec) 
Heartbeat CPU 0 instructions: 180000000 cycles: 393905393 heartbeat IPC: 0.249418 cumulative IPC: 0.249239 (Simulation time: 0 hr 8 min 21 sec) 
Heartbeat CPU 0 instructions: 190000002 cycles: 433989437 heartbeat IPC: 0.249476 cumulative IPC: 0.249265 (Simulation time: 0 hr 8 min 59 sec) 
Heartbeat CPU 0 instructions: 200000000 cycles: 475207620 heartbeat IPC: 0.242611 cumulative IPC: 0.248583 (Simulation time: 0 hr 9 min 38 sec) 
Heartbeat CPU 0 instructions: 210000003 cycles: 515278790 heartbeat IPC: 0.249556 cumulative IPC: 0.248671 (Simulation time: 0 hr 10 min 16 sec) 
Heartbeat CPU 0 instructions: 220000000 cycles: 555571771 heartbeat IPC: 0.248182 cumulative IPC: 0.248631 (Simulation time: 0 hr 10 min 55 sec) 
Heartbeat CPU 0 instructions: 230000000 cycles: 595861744 heartbeat IPC: 0.248201 cumulative IPC: 0.248597 (Simulation time: 0 hr 11 min 33 sec) 
Heartbeat CPU 0 instructions: 240000000 cycles: 635915901 heartbeat IPC: 0.249662 cumulative IPC: 0.248673 (Simulation time: 0 hr 12 min 11 sec) 
Heartbeat CPU 0 instructions: 250000000 cycles: 675974017 heartbeat IPC: 0.249637 cumulative IPC: 0.248737 (Simulation time: 0 hr 12 min 49 sec) 
Heartbeat CPU 0 instructions: 260000000 cycles: 716162145 heartbeat IPC: 0.24883 cumulative IPC: 0.248743 (Simulation time: 0 hr 13 min 27 sec) 
Heartbeat CPU 0 instructions: 270000000 cycles: 756416247 heartbeat IPC: 0.248422 cumulative IPC: 0.248724 (Simulation time: 0 hr 14 min 4 sec) 
Heartbeat CPU 0 instructions: 280000000 cycles: 796999659 heartbeat IPC: 0.246406 cumulative IPC: 0.248594 (Simulation time: 0 hr 14 min 43 sec) 
Heartbeat CPU 0 instructions: 290000001 cycles: 836820340 heartbeat IPC: 0.251126 cumulative IPC: 0.248726 (Simulation time: 0 hr 15 min 20 sec) 
Heartbeat CPU 0 instructions: 300000000 cycles: 877279856 heartbeat IPC: 0.247161 cumulative IPC: 0.248647 (Simulation time: 0 hr 15 min 58 sec) 
Heartbeat CPU 0 instructions: 310000000 cycles: 917703312 heartbeat IPC: 0.247381 cumulative IPC: 0.248587 (Simulation time: 0 hr 16 min 35 sec) 
Heartbeat CPU 0 instructions: 320000000 cycles: 957821432 heartbeat IPC: 0.249264 cumulative IPC: 0.248617 (Simulation time: 0 hr 17 min 12 sec) 
Heartbeat CPU 0 instructions: 330000000 cycles: 997952541 heartbeat IPC: 0.249183 cumulative IPC: 0.248642 (Simulation time: 0 hr 17 min 49 sec) 
Heartbeat CPU 0 instructions: 340000000 cycles: 1038659095 heartbeat IPC: 0.245661 cumulative IPC: 0.248516 (Simulation time: 0 hr 18 min 27 sec) 
Heartbeat CPU 0 instructions: 350000001 cycles: 1078832784 heartbeat IPC: 0.248919 cumulative IPC: 0.248532 (Simulation time: 0 hr 19 min 4 sec) 
Heartbeat CPU 0 instructions: 360000000 cycles: 1119332553 heartbeat IPC: 0.246915 cumulative IPC: 0.24847 (Simulation time: 0 hr 19 min 41 sec) 
Heartbeat CPU 0 instructions: 370000000 cycles: 1158910740 heartbeat IPC: 0.252664 cumulative IPC: 0.248623 (Simulation time: 0 hr 20 min 17 sec) 
Heartbeat CPU 0 instructions: 380000000 cycles: 1199386959 heartbeat IPC: 0.247059 cumulative IPC: 0.248567 (Simulation time: 0 hr 20 min 54 sec) 
Heartbeat CPU 0 instructions: 390000001 cycles: 1239406999 heartbeat IPC: 0.249875 cumulative IPC: 0.248611 (Simulation time: 0 hr 21 min 31 sec) 
Heartbeat CPU 0 instructions: 400000000 cycles: 1279548250 heartbeat IPC: 0.24912 cumulative IPC: 0.248628 (Simulation time: 0 hr 22 min 8 sec) 
Heartbeat CPU 0 instructions: 410000000 cycles: 1319506821 heartbeat IPC: 0.250259 cumulative IPC: 0.248681 (Simulation time: 0 hr 22 min 45 sec) 
Heartbeat CPU 0 instructions: 420000000 cycles: 1359495339 heartbeat IPC: 0.250072 cumulative IPC: 0.248724 (Simulation time: 0 hr 23 min 22 sec) 
Heartbeat CPU 0 instructions: 430000000 cycles: 1399552521 heartbeat IPC: 0.249643 cumulative IPC: 0.248752 (Simulation time: 0 hr 23 min 59 sec) 
Heartbeat CPU 0 instructions: 440000000 cycles: 1439681206 heartbeat IPC: 0.249198 cumulative IPC: 0.248765 (Simulation time: 0 hr 24 min 35 sec) 
Heartbeat CPU 0 instructions: 450000002 cycles: 1479648703 heartbeat IPC: 0.250203 cumulative IPC: 0.248806 (Simulation time: 0 hr 25 min 12 sec) 
Heartbeat CPU 0 instructions: 460000000 cycles: 1519063859 heartbeat IPC: 0.253709 cumulative IPC: 0.248939 (Simulation time: 0 hr 25 min 49 sec) 
Heartbeat CPU 0 instructions: 470000000 cycles: 1559310255 heartbeat IPC: 0.248469 cumulative IPC: 0.248927 (Simulation time: 0 hr 26 min 26 sec) 
Heartbeat CPU 0 instructions: 480000000 cycles: 1599192481 heartbeat IPC: 0.250738 cumulative IPC: 0.248974 (Simulation time: 0 hr 27 min 3 sec) 
Heartbeat CPU 0 instructions: 490000001 cycles: 1639235670 heartbeat IPC: 0.24973 cumulative IPC: 0.248993 (Simulation time: 0 hr 27 min 40 sec) 
Heartbeat CPU 0 instructions: 500000000 cycles: 1679501791 heartbeat IPC: 0.248348 cumulative IPC: 0.248977 (Simulation time: 0 hr 28 min 17 sec) 
Heartbeat CPU 0 instructions: 510000000 cycles: 1719232315 heartbeat IPC: 0.251696 cumulative IPC: 0.249043 (Simulation time: 0 hr 28 min 53 sec) 
Heartbeat CPU 0 instructions: 520000000 cycles: 1759680944 heartbeat IPC: 0.247227 cumulative IPC: 0.248999 (Simulation time: 0 hr 29 min 29 sec) 
Heartbeat CPU 0 instructions: 530000000 cycles: 1799598411 heartbeat IPC: 0.250517 cumulative IPC: 0.249034 (Simulation time: 0 hr 30 min 4 sec) 
Heartbeat CPU 0 instructions: 540000000 cycles: 1839263093 heartbeat IPC: 0.252113 cumulative IPC: 0.249103 (Simulation time: 0 hr 30 min 39 sec) 
Heartbeat CPU 0 instructions: 550000001 cycles: 1879627274 heartbeat IPC: 0.247744 cumulative IPC: 0.249073 (Simulation time: 0 hr 31 min 14 sec) 
Heartbeat CPU 0 instructions: 560000000 cycles: 1920096522 heartbeat IPC: 0.247101 cumulative IPC: 0.24903 (Simulation time: 0 hr 31 min 50 sec) 
Heartbeat CPU 0 instructions: 570000003 cycles: 1960556788 heartbeat IPC: 0.247156 cumulative IPC: 0.24899 (Simulation time: 0 hr 32 min 25 sec) 
Heartbeat CPU 0 instructions: 580000000 cycles: 2000825495 heartbeat IPC: 0.248332 cumulative IPC: 0.248976 (Simulation time: 0 hr 33 min 0 sec) 
Heartbeat CPU 0 instructions: 590000001 cycles: 2041473659 heartbeat IPC: 0.246014 cumulative IPC: 0.248915 (Simulation time: 0 hr 33 min 36 sec) 
Heartbeat CPU 0 instructions: 600000000 cycles: 2081922877 heartbeat IPC: 0.247224 cumulative IPC: 0.248881 (Simulation time: 0 hr 34 min 12 sec) 
Finished CPU 0 instructions: 500000000 cycles: 2008994960 cumulative IPC: 0.248881 (Simulation time: 0 hr 34 min 12 sec) 

CPU 0 Branch Prediction Accuracy: 96.2429% MPKI: 5.85335
Number of Branches: 77897976 Number of Mispredictions: 2926674
Number of LOAD Instructions: 193081861
Number of LOAD Instructions (ROI): 193081861
Number of STORE Instructions: 97310749
Number of STORE Instructions (ROI): 97310749
Total Destination Memory Operands: 106368027
Total Destination Memory Operands (ROI): 106368027
Total Source Memory Operands: 193081861
Total Source Memory Operands (ROI): 193081861
Number of DEPENDED LOADS: 6449651
Number of DEPENDED LOADS (ROI): 6449651
Number of SQ_ADDED: 106367982
Number of SQ_ADDED (ROI): 106367982
Number of LQ_ADDED: 426896372
Number of LQ_ADDED (ROI): 426896372
Number of Instructions read from trace: 600000256

ChampSim completed all CPUs

Region of Interest Statistics

CPU 0 cumulative IPC: 0.248881 instructions: 500000000 cycles: 2008994960
ITLB TOTAL     ACCESS:  151190246  HIT:  151174415  MISS:      15831
ITLB LOAD      ACCESS:  151190246  HIT:  151174415  MISS:      15831
ITLB RFO       ACCESS:          0  HIT:          0  MISS:          0
ITLB PREFETCH  ACCESS:          0  HIT:          0  MISS:          0
ITLB WRITEBACK ACCESS:          0  HIT:          0  MISS:          0
ITLB PREFETCH  REQUESTED:          0  ISSUED:          0  USEFUL:          0  USELESS:          0
ITLB TOTAL MSHR MERGED:      17778
ITLB LOAD MSHR MERGED:      17778
ITLB RFO MSHR MERGED:          0
ITLB PREFETCH MSHR MERGED:          0
ITLB WRITEBACK MSHR MERGED:          0
ITLB TOTAL ACCESSES:  151208024 HITS:  151174415 MISSES:      33609
ITLB LOAD ACCESSES:  151208024 HITS:  151174415 MISSES:      33609
ITLB RFO ACCESSES:          0 HITS:          0 MISSES:          0
ITLB PREFETCH ACCESSES:          0 HITS:          0 MISSES:          0
ITLB WRITEBACK ACCESSES:          0 HITS:          0 MISSES:          0
ITLB RQ ACCESS:  500000242
ITLB RQ TO_CACHE:  151208024
ITLB RQ MERGED:  348792218
ITLB RQ FORWARD:          0
ITLB WQ ACCESS:          0
ITLB WQ TO_CACHE:          0
ITLB WQ MERGED:          0
ITLB WQ FORWARD:          0
DTLB TOTAL     ACCESS:  199553486  HIT:  194174493  MISS:    5378993
DTLB LOAD      ACCESS:  123124422  HIT:  118105916  MISS:    5018506
DTLB RFO       ACCESS:   76429064  HIT:   76068577  MISS:     360487
DTLB PREFETCH  ACCESS:          0  HIT:          0  MISS:          0
DTLB WRITEBACK ACCESS:          0  HIT:          0  MISS:          0
DTLB PREFETCH  REQUESTED:          0  ISSUED:          0  USEFUL:          0  USELESS:          0
DTLB TOTAL MSHR MERGED:     916698
DTLB LOAD MSHR MERGED:     807097
DTLB RFO MSHR MERGED:     109601
DTLB PREFETCH MSHR MERGED:          0
DTLB WRITEBACK MSHR MERGED:          0
DTLB TOTAL ACCESSES:  200470184 HITS:  194174493 MISSES:    6295691
DTLB LOAD ACCESSES:  123931519 HITS:  118105916 MISSES:    5825603
DTLB RFO ACCESSES:   76538665 HITS:   76068577 MISSES:     470088
DTLB PREFETCH ACCESSES:          0 HITS:          0 MISSES:          0
DTLB WRITEBACK ACCESSES:          0 HITS:          0 MISSES:          0
DTLB RQ ACCESS:  243875937
DTLB RQ TO_CACHE:  200470184
DTLB RQ MERGED:   43405753
DTLB RQ FORWARD:          0
DTLB WQ ACCESS:          0
DTLB WQ TO_CACHE:          0
DTLB WQ MERGED:          0
DTLB WQ FORWARD:          0
L1D TOTAL     ACCESS:  335576267  HIT:  317480183  MISS:   18096084
L1D LOAD      ACCESS:  127682794  HIT:  118738303  MISS:    8944491
L1D RFO       ACCESS:   87083348  HIT:   86295053  MISS:     788295
L1D PREFETCH  ACCESS:  120810125  HIT:  112446827  MISS:    8363298
L1D WRITEBACK ACCESS:          0  HIT:          0  MISS:          0
L1D PREFETCH  REQUESTED:  128466818  ISSUED:  126868860  USEFUL:    1740419  USELESS:    6622891
L1D TOTAL MSHR MERGED:    3863095
L1D LOAD MSHR MERGED:     949566
L1D RFO MSHR MERGED:    1069784
L1D PREFETCH MSHR MERGED:    1843745
L1D WRITEBACK MSHR MERGED:          0
L1D TOTAL ACCESSES:  339524381 HITS:  317565202 MISSES:   21959179
L1D LOAD ACCESSES:  128467235 HITS:  118738720 MISSES:    9728515
L1D RFO ACCESSES:   88085558 HITS:   86295053 MISSES:    1790505
L1D PREFETCH ACCESSES:  122971588 HITS:  112531429 MISSES:   10440159
L1D WRITEBACK ACCESSES:          0 HITS:          0 MISSES:          0
L1D RQ ACCESS:  155244552
L1D RQ TO_CACHE:  128466818
L1D RQ MERGED:   26777317
L1D RQ FORWARD:          0
L1D WQ ACCESS:   88631385
L1D WQ TO_CACHE:   88085557
L1D WQ MERGED:     545828
L1D WQ FORWARD:      85019
L1I TOTAL     ACCESS:  175501428  HIT:  175234960  MISS:     266468
L1I LOAD      ACCESS:  175501428  HIT:  175234960  MISS:     266468
L1I RFO       ACCESS:          0  HIT:          0  MISS:          0
L1I PREFETCH  ACCESS:          0  HIT:          0  MISS:          0
L1I WRITEBACK ACCESS:          0  HIT:          0  MISS:          0
L1I PREFETCH  REQUESTED:          0  ISSUED:          0  USEFUL:          0  USELESS:          0
L1I TOTAL MSHR MERGED:     213181
L1I LOAD MSHR MERGED:     213181
L1I RFO MSHR MERGED:          0
L1I PREFETCH MSHR MERGED:          0
L1I WRITEBACK MSHR MERGED:          0
L1I TOTAL ACCESSES:  175714609 HITS:  175234960 MISSES:     479649
L1I LOAD ACCESSES:  175714609 HITS:  175234960 MISSES:     479649
L1I RFO ACCESSES:          0 HITS:          0 MISSES:          0
L1I PREFETCH ACCESSES:          0 HITS:          0 MISSES:          0
L1I WRITEBACK ACCESSES:          0 HITS:          0 MISSES:          0
L1I RQ ACCESS:  500000242
L1I RQ TO_CACHE:  175714609
L1I RQ MERGED:  324285633
L1I RQ FORWARD:          0
L1I WQ ACCESS:          0
L1I WQ TO_CACHE:          0
L1I WQ MERGED:          0
L1I WQ FORWARD:          0
L2C TOTAL     ACCESS:   23738628  HIT:   12112893  MISS:   11625735
L2C LOAD      ACCESS:    9044237  HIT:    3564745  MISS:    5479492
L2C RFO       ACCESS:     720664  HIT:     130383  MISS:     590281
L2C PREFETCH  ACCESS:    8613410  HIT:    3086148  MISS:    5527262
L2C WRITEBACK ACCESS:    5360317  HIT:    5331617  MISS:      28700
L2C PREFETCH  REQUESTED:      18044  ISSUED:      18044  USEFUL:     323034  USELESS:    5204403
L2C TOTAL MSHR MERGED:         24
L2C LOAD MSHR MERGED:          2
L2C RFO MSHR MERGED:          0
L2C PREFETCH MSHR MERGED:         22
L2C WRITEBACK MSHR MERGED:          0
L2C TOTAL ACCESSES:   23740453 HITS:   12114686 MISSES:   11625767
L2C LOAD ACCESSES:    9045417 HITS:    3565925 MISSES:    5479492
L2C RFO ACCESSES:     720721 HITS:     130440 MISSES:     590281
L2C PREFETCH ACCESSES:    8613998 HITS:    3086704 MISSES:    5527294
L2C WRITEBACK ACCESSES:    5360317 HITS:    5331617 MISSES:      28700
L2C RQ ACCESS:    9766138
L2C RQ TO_CACHE:    9764901
L2C RQ MERGED:          0
L2C RQ FORWARD:          0
L2C WQ ACCESS:    5360317
L2C WQ TO_CACHE:    5360317
L2C WQ MERGED:          0
L2C WQ FORWARD:       1793
LLC TOTAL     ACCESS:   15448696  HIT:    6428497  MISS:    9020199
LLC LOAD      ACCESS:    5479463  HIT:    2063596  MISS:    3415867
LLC RFO       ACCESS:     590279  HIT:     274126  MISS:     316153
LLC PREFETCH  ACCESS:    5527256  HIT:    1025480  MISS:    4501776
LLC WRITEBACK ACCESS:    3851698  HIT:    3065295  MISS:     786403
LLC PREFETCH  REQUESTED:          0  ISSUED:          0  USEFUL:      25260  USELESS:    4477011
LLC TOTAL MSHR MERGED:          0
LLC LOAD MSHR MERGED:          0
LLC RFO MSHR MERGED:          0
LLC PREFETCH MSHR MERGED:          0
LLC WRITEBACK MSHR MERGED:          0
LLC TOTAL ACCESSES:   15448741 HITS:    6428542 MISSES:    9020199
LLC LOAD ACCESSES:    5479490 HITS:    2063623 MISSES:    3415867
LLC RFO ACCESSES:     590281 HITS:     274128 MISSES:     316153
LLC PREFETCH ACCESSES:    5527272 HITS:    1025496 MISSES:    4501776
LLC WRITEBACK ACCESSES:    3851698 HITS:    3065295 MISSES:     786403
LLC 0 RQ ACCESS:    6069771
LLC 0 RQ TO_CACHE:    6069742
LLC 0 RQ MERGED:          0
LLC 0 RQ FORWARD:          0
LLC WQ ACCESS:    3851698
LLC WQ TO_CACHE:    3851698
LLC WQ MERGED:          0
LLC WQ FORWARD:         45
Major fault: 0 Minor fault: 44814
CPU 0 L1D next line prefetcher final stats
CPU 0 L2C PC-based stride prefetcher final stats
All Misses: 10909917
All Hits: 7711273
SD Algo Stats - Switches: 0 SRR-Repls: 3898133 BRR-Repls: 0

DRAM Statistics
 CHANNEL 0
 RQ ROW_BUFFER_HIT:    1440780  ROW_BUFFER_MISS:    6791289
 DBUS_CONGESTED:    5526536
 WQ ROW_BUFFER_HIT:     179548  ROW_BUFFER_MISS:    2112768  FULL:          0

 AVG_CONGESTED_CYCLE: 13
LOADS RETIRED: 160808997
INSTR RETIRED: 500000000
