
*** ChampSim Multicore Out-of-Order Simulator ***

Warmup Instructions: 100000000
Simulation Instructions: 500000000
Number of CPUs: 1
LLC sets: 2048
LLC ways: 16
Clean RRIP Policies: 1213130112131301 Dirty RRIP Policies: 2203130122031301 PSEL Width: 10 Track Set: 4294967295 PSEL Mask: 1 Demote Mask: 3010201030102010DS Algo: 0Window size: 0
Off-chip DRAM Size: 4096 MB Channels: 1 Width: 64-bit Data Rate: 1600 MT/s

CPU 0 runs /mnt/beegfs/iconst01/spec2017/Parest.trace.gz
NOT SORTED
TRACE STRING: /mnt/beegfs/iconst01/spec2017/Parest.trace.gz
SORTED
TRACE STRING: /mnt/beegfs/iconst01/spec2017/Parest.trace.gz
INITIAL
TRACE STRING: /mnt/beegfs/iconst01/spec2017/Parest.trace.gz

champsim_seed used: 623

CPU 0 L1D next line prefetcher
CPU 0 L2C IP-based stride prefetcher
Initialize DRRIP state
Assign rand_sets[0]: 454  LLC: 2048
rand_sets[0]: 454
Assign rand_sets[1]: 1662  LLC: 2048
rand_sets[1]: 1662
Assign rand_sets[2]: 1921  LLC: 2048
rand_sets[2]: 1921
Assign rand_sets[3]: 1131  LLC: 2048
rand_sets[3]: 1131
Assign rand_sets[4]: 331  LLC: 2048
rand_sets[4]: 331
Assign rand_sets[5]: 1531  LLC: 2048
rand_sets[5]: 1531
Assign rand_sets[6]: 482  LLC: 2048
rand_sets[6]: 482
Assign rand_sets[7]: 1275  LLC: 2048
rand_sets[7]: 1275
Assign rand_sets[8]: 1876  LLC: 2048
rand_sets[8]: 1876
Assign rand_sets[9]: 2038  LLC: 2048
rand_sets[9]: 2038
Assign rand_sets[10]: 701  LLC: 2048
rand_sets[10]: 701
Assign rand_sets[11]: 479  LLC: 2048
rand_sets[11]: 479
Assign rand_sets[12]: 892  LLC: 2048
rand_sets[12]: 892
Assign rand_sets[13]: 1820  LLC: 2048
rand_sets[13]: 1820
Assign rand_sets[14]: 1505  LLC: 2048
rand_sets[14]: 1505
Assign rand_sets[15]: 1159  LLC: 2048
rand_sets[15]: 1159
Assign rand_sets[16]: 513  LLC: 2048
rand_sets[16]: 513
Assign rand_sets[17]: 703  LLC: 2048
rand_sets[17]: 703
Assign rand_sets[18]: 561  LLC: 2048
rand_sets[18]: 561
Assign rand_sets[19]: 990  LLC: 2048
rand_sets[19]: 990
Assign rand_sets[20]: 342  LLC: 2048
rand_sets[20]: 342
Assign rand_sets[21]: 882  LLC: 2048
rand_sets[21]: 882
Assign rand_sets[22]: 15  LLC: 2048
rand_sets[22]: 15
Assign rand_sets[23]: 71  LLC: 2048
rand_sets[23]: 71
Assign rand_sets[24]: 1127  LLC: 2048
rand_sets[24]: 1127
Assign rand_sets[25]: 1382  LLC: 2048
rand_sets[25]: 1382
Assign rand_sets[26]: 647  LLC: 2048
rand_sets[26]: 647
Assign rand_sets[27]: 857  LLC: 2048
rand_sets[27]: 857
Assign rand_sets[28]: 1450  LLC: 2048
rand_sets[28]: 1450
Assign rand_sets[29]: 1160  LLC: 2048
rand_sets[29]: 1160
Assign rand_sets[30]: 1852  LLC: 2048
rand_sets[30]: 1852
Assign rand_sets[31]: 1881  LLC: 2048
rand_sets[31]: 1881
Assign rand_sets[32]: 1770  LLC: 2048
rand_sets[32]: 1770
Assign rand_sets[33]: 1622  LLC: 2048
rand_sets[33]: 1622
Assign rand_sets[34]: 275  LLC: 2048
rand_sets[34]: 275
Assign rand_sets[35]: 635  LLC: 2048
rand_sets[35]: 635
Assign rand_sets[36]: 466  LLC: 2048
rand_sets[36]: 466
Assign rand_sets[37]: 1413  LLC: 2048
rand_sets[37]: 1413
Assign rand_sets[38]: 417  LLC: 2048
rand_sets[38]: 417
Assign rand_sets[39]: 472  LLC: 2048
rand_sets[39]: 472
Assign rand_sets[40]: 1340  LLC: 2048
rand_sets[40]: 1340
Assign rand_sets[41]: 852  LLC: 2048
rand_sets[41]: 852
Assign rand_sets[42]: 1365  LLC: 2048
rand_sets[42]: 1365
Assign rand_sets[43]: 47  LLC: 2048
rand_sets[43]: 47
Assign rand_sets[44]: 823  LLC: 2048
rand_sets[44]: 823
Assign rand_sets[45]: 686  LLC: 2048
rand_sets[45]: 686
Assign rand_sets[46]: 1637  LLC: 2048
rand_sets[46]: 1637
Assign rand_sets[47]: 1115  LLC: 2048
rand_sets[47]: 1115
Assign rand_sets[48]: 986  LLC: 2048
rand_sets[48]: 986
Assign rand_sets[49]: 258  LLC: 2048
rand_sets[49]: 258
Assign rand_sets[50]: 633  LLC: 2048
rand_sets[50]: 633
Assign rand_sets[51]: 920  LLC: 2048
rand_sets[51]: 920
Assign rand_sets[52]: 204  LLC: 2048
rand_sets[52]: 204
Assign rand_sets[53]: 227  LLC: 2048
rand_sets[53]: 227
Assign rand_sets[54]: 1818  LLC: 2048
rand_sets[54]: 1818
Assign rand_sets[55]: 886  LLC: 2048
rand_sets[55]: 886
Assign rand_sets[56]: 1422  LLC: 2048
rand_sets[56]: 1422
Assign rand_sets[57]: 607  LLC: 2048
rand_sets[57]: 607
Assign rand_sets[58]: 217  LLC: 2048
rand_sets[58]: 217
Assign rand_sets[59]: 1945  LLC: 2048
rand_sets[59]: 1945
Assign rand_sets[60]: 143  LLC: 2048
rand_sets[60]: 143
Assign rand_sets[61]: 1311  LLC: 2048
rand_sets[61]: 1311
Assign rand_sets[62]: 319  LLC: 2048
rand_sets[62]: 319
Assign rand_sets[63]: 1846  LLC: 2048
rand_sets[63]: 1846
 CLEAN-RRIP-POLICY-1: 1-2-1-3-1-3-0-1- CLEAN-RRIP-POLICY-2: 1-2-1-3-1-3-0-1-
 DIRTY-RRIP-POLICY-1: 2-2-0-3-1-3-0-1- DIRTY-RRIP-POLICY-2: 2-2-0-3-1-3-0-1-
 PSEL width: 10
Heartbeat CPU 0 instructions: 10000001 cycles: 4387120 heartbeat IPC: 2.2794 cumulative IPC: 2.2794 (Simulation time: 0 hr 0 min 14 sec) 
Heartbeat CPU 0 instructions: 20000000 cycles: 8781247 heartbeat IPC: 2.27576 cumulative IPC: 2.27758 (Simulation time: 0 hr 0 min 28 sec) 
Heartbeat CPU 0 instructions: 30000003 cycles: 13213193 heartbeat IPC: 2.25635 cumulative IPC: 2.27046 (Simulation time: 0 hr 0 min 42 sec) 
Heartbeat CPU 0 instructions: 40000000 cycles: 17643799 heartbeat IPC: 2.25703 cumulative IPC: 2.26709 (Simulation time: 0 hr 0 min 56 sec) 
Heartbeat CPU 0 instructions: 50000000 cycles: 22051984 heartbeat IPC: 2.26851 cumulative IPC: 2.26737 (Simulation time: 0 hr 1 min 10 sec) 
Heartbeat CPU 0 instructions: 60000000 cycles: 26457659 heartbeat IPC: 2.2698 cumulative IPC: 2.26777 (Simulation time: 0 hr 1 min 24 sec) 
Heartbeat CPU 0 instructions: 70000000 cycles: 30858480 heartbeat IPC: 2.2723 cumulative IPC: 2.26842 (Simulation time: 0 hr 1 min 38 sec) 
Heartbeat CPU 0 instructions: 80000000 cycles: 35254044 heartbeat IPC: 2.27502 cumulative IPC: 2.26924 (Simulation time: 0 hr 1 min 52 sec) 
Heartbeat CPU 0 instructions: 90000000 cycles: 39648306 heartbeat IPC: 2.2757 cumulative IPC: 2.26996 (Simulation time: 0 hr 2 min 6 sec) 
Heartbeat CPU 0 instructions: 100000000 cycles: 44045606 heartbeat IPC: 2.27412 cumulative IPC: 2.27037 (Simulation time: 0 hr 2 min 21 sec) 

Warmup complete CPU 0 instructions: 100000002 cycles: 44045616 (Simulation time: 0 hr 2 min 21 sec) 

Heartbeat CPU 0 instructions: 110000000 cycles: 54075175 heartbeat IPC: 0.997052 cumulative IPC: 0.997053 (Simulation time: 0 hr 2 min 39 sec) 
Heartbeat CPU 0 instructions: 120000000 cycles: 63271046 heartbeat IPC: 1.08744 cumulative IPC: 1.04029 (Simulation time: 0 hr 2 min 57 sec) 
Heartbeat CPU 0 instructions: 130000000 cycles: 72523890 heartbeat IPC: 1.08075 cumulative IPC: 1.05343 (Simulation time: 0 hr 3 min 15 sec) 
Heartbeat CPU 0 instructions: 140000000 cycles: 81980267 heartbeat IPC: 1.05749 cumulative IPC: 1.05444 (Simulation time: 0 hr 3 min 33 sec) 
Heartbeat CPU 0 instructions: 150000000 cycles: 93103809 heartbeat IPC: 0.898994 cumulative IPC: 1.0192 (Simulation time: 0 hr 3 min 51 sec) 
Heartbeat CPU 0 instructions: 160000000 cycles: 103160717 heartbeat IPC: 0.994341 cumulative IPC: 1.01497 (Simulation time: 0 hr 4 min 9 sec) 
Heartbeat CPU 0 instructions: 170000000 cycles: 113058375 heartbeat IPC: 1.01034 cumulative IPC: 1.01431 (Simulation time: 0 hr 4 min 27 sec) 
Heartbeat CPU 0 instructions: 180000000 cycles: 122861689 heartbeat IPC: 1.02006 cumulative IPC: 1.01502 (Simulation time: 0 hr 4 min 45 sec) 
Heartbeat CPU 0 instructions: 190000002 cycles: 132803178 heartbeat IPC: 1.00589 cumulative IPC: 1.014 (Simulation time: 0 hr 5 min 3 sec) 
Heartbeat CPU 0 instructions: 200000000 cycles: 142214832 heartbeat IPC: 1.06251 cumulative IPC: 1.01865 (Simulation time: 0 hr 5 min 21 sec) 
Heartbeat CPU 0 instructions: 210000000 cycles: 152056796 heartbeat IPC: 1.01606 cumulative IPC: 1.01841 (Simulation time: 0 hr 5 min 39 sec) 
Heartbeat CPU 0 instructions: 220000000 cycles: 161265382 heartbeat IPC: 1.08594 cumulative IPC: 1.02372 (Simulation time: 0 hr 5 min 57 sec) 
Heartbeat CPU 0 instructions: 230000001 cycles: 173493496 heartbeat IPC: 0.817788 cumulative IPC: 1.00427 (Simulation time: 0 hr 6 min 17 sec) 
Heartbeat CPU 0 instructions: 240000000 cycles: 183941346 heartbeat IPC: 0.957135 cumulative IPC: 1.00075 (Simulation time: 0 hr 6 min 35 sec) 
Heartbeat CPU 0 instructions: 250000002 cycles: 193849503 heartbeat IPC: 1.00927 cumulative IPC: 1.00131 (Simulation time: 0 hr 6 min 53 sec) 
Heartbeat CPU 0 instructions: 260000000 cycles: 203542230 heartbeat IPC: 1.0317 cumulative IPC: 1.00316 (Simulation time: 0 hr 7 min 11 sec) 
Heartbeat CPU 0 instructions: 270000001 cycles: 213078111 heartbeat IPC: 1.04867 cumulative IPC: 1.00572 (Simulation time: 0 hr 7 min 28 sec) 
Heartbeat CPU 0 instructions: 280000000 cycles: 222950040 heartbeat IPC: 1.01297 cumulative IPC: 1.00612 (Simulation time: 0 hr 7 min 46 sec) 
Heartbeat CPU 0 instructions: 290000002 cycles: 232241680 heartbeat IPC: 1.07624 cumulative IPC: 1.00959 (Simulation time: 0 hr 8 min 4 sec) 
Heartbeat CPU 0 instructions: 300000000 cycles: 241969876 heartbeat IPC: 1.02794 cumulative IPC: 1.01049 (Simulation time: 0 hr 8 min 22 sec) 
Heartbeat CPU 0 instructions: 310000000 cycles: 251205912 heartbeat IPC: 1.08272 cumulative IPC: 1.01371 (Simulation time: 0 hr 8 min 40 sec) 
Heartbeat CPU 0 instructions: 320000000 cycles: 260507779 heartbeat IPC: 1.07505 cumulative IPC: 1.01634 (Simulation time: 0 hr 8 min 58 sec) 
Heartbeat CPU 0 instructions: 330000003 cycles: 269972773 heartbeat IPC: 1.05652 cumulative IPC: 1.01803 (Simulation time: 0 hr 9 min 16 sec) 
Heartbeat CPU 0 instructions: 340000000 cycles: 280044430 heartbeat IPC: 0.992885 cumulative IPC: 1.01695 (Simulation time: 0 hr 9 min 35 sec) 
Heartbeat CPU 0 instructions: 350000000 cycles: 290354299 heartbeat IPC: 0.969944 cumulative IPC: 1.01499 (Simulation time: 0 hr 9 min 53 sec) 
Heartbeat CPU 0 instructions: 360000000 cycles: 300173328 heartbeat IPC: 1.01843 cumulative IPC: 1.01512 (Simulation time: 0 hr 10 min 11 sec) 
Heartbeat CPU 0 instructions: 370000000 cycles: 309774663 heartbeat IPC: 1.04152 cumulative IPC: 1.01607 (Simulation time: 0 hr 10 min 28 sec) 
Heartbeat CPU 0 instructions: 380000000 cycles: 319255754 heartbeat IPC: 1.05473 cumulative IPC: 1.0174 (Simulation time: 0 hr 10 min 46 sec) 
Heartbeat CPU 0 instructions: 390000002 cycles: 328519913 heartbeat IPC: 1.07943 cumulative IPC: 1.01942 (Simulation time: 0 hr 11 min 4 sec) 
Heartbeat CPU 0 instructions: 400000000 cycles: 338219233 heartbeat IPC: 1.031 cumulative IPC: 1.01981 (Simulation time: 0 hr 11 min 22 sec) 
Heartbeat CPU 0 instructions: 410000000 cycles: 347340114 heartbeat IPC: 1.09639 cumulative IPC: 1.02211 (Simulation time: 0 hr 11 min 40 sec) 
Heartbeat CPU 0 instructions: 420000000 cycles: 358278636 heartbeat IPC: 0.9142 cumulative IPC: 1.01835 (Simulation time: 0 hr 11 min 59 sec) 
Heartbeat CPU 0 instructions: 430000000 cycles: 369105486 heartbeat IPC: 0.92363 cumulative IPC: 1.0152 (Simulation time: 0 hr 12 min 17 sec) 
Heartbeat CPU 0 instructions: 440000000 cycles: 379081289 heartbeat IPC: 1.00243 cumulative IPC: 1.01482 (Simulation time: 0 hr 12 min 34 sec) 
Heartbeat CPU 0 instructions: 450000000 cycles: 388992819 heartbeat IPC: 1.00893 cumulative IPC: 1.01465 (Simulation time: 0 hr 12 min 52 sec) 
Heartbeat CPU 0 instructions: 460000000 cycles: 398830346 heartbeat IPC: 1.01652 cumulative IPC: 1.0147 (Simulation time: 0 hr 13 min 9 sec) 
Heartbeat CPU 0 instructions: 470000000 cycles: 408769074 heartbeat IPC: 1.00617 cumulative IPC: 1.01447 (Simulation time: 0 hr 13 min 27 sec) 
Heartbeat CPU 0 instructions: 480000000 cycles: 418166276 heartbeat IPC: 1.06415 cumulative IPC: 1.01572 (Simulation time: 0 hr 13 min 45 sec) 
Heartbeat CPU 0 instructions: 490000002 cycles: 428035701 heartbeat IPC: 1.01323 cumulative IPC: 1.01565 (Simulation time: 0 hr 14 min 2 sec) 
Heartbeat CPU 0 instructions: 500000000 cycles: 437549232 heartbeat IPC: 1.05113 cumulative IPC: 1.01651 (Simulation time: 0 hr 14 min 20 sec) 
Heartbeat CPU 0 instructions: 510000000 cycles: 446865661 heartbeat IPC: 1.07337 cumulative IPC: 1.01782 (Simulation time: 0 hr 14 min 38 sec) 
Heartbeat CPU 0 instructions: 520000000 cycles: 456440815 heartbeat IPC: 1.04437 cumulative IPC: 1.01844 (Simulation time: 0 hr 14 min 55 sec) 
Heartbeat CPU 0 instructions: 530000001 cycles: 466755865 heartbeat IPC: 0.969457 cumulative IPC: 1.01725 (Simulation time: 0 hr 15 min 13 sec) 
Heartbeat CPU 0 instructions: 540000000 cycles: 477237178 heartbeat IPC: 0.954079 cumulative IPC: 1.01572 (Simulation time: 0 hr 15 min 31 sec) 
Heartbeat CPU 0 instructions: 550000003 cycles: 487264211 heartbeat IPC: 0.997304 cumulative IPC: 1.0153 (Simulation time: 0 hr 15 min 49 sec) 
Heartbeat CPU 0 instructions: 560000000 cycles: 497067344 heartbeat IPC: 1.02008 cumulative IPC: 1.0154 (Simulation time: 0 hr 16 min 6 sec) 
Heartbeat CPU 0 instructions: 570000002 cycles: 506707038 heartbeat IPC: 1.03738 cumulative IPC: 1.01586 (Simulation time: 0 hr 16 min 23 sec) 
Heartbeat CPU 0 instructions: 580000000 cycles: 516166704 heartbeat IPC: 1.05712 cumulative IPC: 1.01669 (Simulation time: 0 hr 16 min 41 sec) 
Heartbeat CPU 0 instructions: 590000001 cycles: 525967514 heartbeat IPC: 1.02032 cumulative IPC: 1.01676 (Simulation time: 0 hr 16 min 58 sec) 
Heartbeat CPU 0 instructions: 600000000 cycles: 535371903 heartbeat IPC: 1.06333 cumulative IPC: 1.01765 (Simulation time: 0 hr 17 min 15 sec) 
Finished CPU 0 instructions: 500000000 cycles: 491326301 cumulative IPC: 1.01765 (Simulation time: 0 hr 17 min 15 sec) 

CPU 0 Branch Prediction Accuracy: 97.8526% MPKI: 2.66709
Number of Branches: 62099103 Number of Mispredictions: 1333545
Number of LOAD Instructions: 210576465
Number of LOAD Instructions (ROI): 210576465
Number of STORE Instructions: 16915507
Number of STORE Instructions (ROI): 16915507
Total Destination Memory Operands: 16918869
Total Destination Memory Operands (ROI): 16918869
Total Source Memory Operands: 210576465
Total Source Memory Operands (ROI): 210576465
Number of DEPENDED LOADS: 344679
Number of DEPENDED LOADS (ROI): 344679
Number of SQ_ADDED: 16918826
Number of SQ_ADDED (ROI): 16918826
Number of LQ_ADDED: 210609800
Number of LQ_ADDED (ROI): 210609800
Number of Instructions read from trace: 600000257

ChampSim completed all CPUs

Region of Interest Statistics

CPU 0 cumulative IPC: 1.01765 instructions: 500000000 cycles: 491326301
ITLB TOTAL     ACCESS:   76325772  HIT:   76325734  MISS:         38
ITLB LOAD      ACCESS:   76325772  HIT:   76325734  MISS:         38
ITLB RFO       ACCESS:          0  HIT:          0  MISS:          0
ITLB PREFETCH  ACCESS:          0  HIT:          0  MISS:          0
ITLB WRITEBACK ACCESS:          0  HIT:          0  MISS:          0
ITLB PREFETCH  REQUESTED:          0  ISSUED:          0  USEFUL:          0  USELESS:          0
ITLB TOTAL MSHR MERGED:         37
ITLB LOAD MSHR MERGED:         37
ITLB RFO MSHR MERGED:          0
ITLB PREFETCH MSHR MERGED:          0
ITLB WRITEBACK MSHR MERGED:          0
ITLB TOTAL ACCESSES:   76325809 HITS:   76325734 MISSES:         75
ITLB LOAD ACCESSES:   76325809 HITS:   76325734 MISSES:         75
ITLB RFO ACCESSES:          0 HITS:          0 MISSES:          0
ITLB PREFETCH ACCESSES:          0 HITS:          0 MISSES:          0
ITLB WRITEBACK ACCESSES:          0 HITS:          0 MISSES:          0
ITLB RQ ACCESS:  500000188
ITLB RQ TO_CACHE:   76325810
ITLB RQ MERGED:  423674378
ITLB RQ FORWARD:          0
ITLB WQ ACCESS:          0
ITLB WQ TO_CACHE:          0
ITLB WQ MERGED:          0
ITLB WQ FORWARD:          0
DTLB TOTAL     ACCESS:  136756874  HIT:  136554080  MISS:     202794
DTLB LOAD      ACCESS:  128694610  HIT:  128494537  MISS:     200073
DTLB RFO       ACCESS:    8062264  HIT:    8059543  MISS:       2721
DTLB PREFETCH  ACCESS:          0  HIT:          0  MISS:          0
DTLB WRITEBACK ACCESS:          0  HIT:          0  MISS:          0
DTLB PREFETCH  REQUESTED:          0  ISSUED:          0  USEFUL:          0  USELESS:          0
DTLB TOTAL MSHR MERGED:     447584
DTLB LOAD MSHR MERGED:     443912
DTLB RFO MSHR MERGED:       3672
DTLB PREFETCH MSHR MERGED:          0
DTLB WRITEBACK MSHR MERGED:          0
DTLB TOTAL ACCESSES:  137204458 HITS:  136554080 MISSES:     650378
DTLB LOAD ACCESSES:  129138522 HITS:  128494537 MISSES:     643985
DTLB RFO ACCESSES:    8065936 HITS:    8059543 MISSES:       6393
DTLB PREFETCH ACCESSES:          0 HITS:          0 MISSES:          0
DTLB WRITEBACK ACCESSES:          0 HITS:          0 MISSES:          0
DTLB RQ ACCESS:  189419881
DTLB RQ TO_CACHE:  137204458
DTLB RQ MERGED:   52215423
DTLB RQ FORWARD:          0
DTLB WQ ACCESS:          0
DTLB WQ TO_CACHE:          0
DTLB WQ MERGED:          0
DTLB WQ FORWARD:          0
L1D TOTAL     ACCESS:  125329020  HIT:  107772074  MISS:   17556946
L1D LOAD      ACCESS:   72314682  HIT:   62049016  MISS:   10265666
L1D RFO       ACCESS:   14014326  HIT:   13861495  MISS:     152831
L1D PREFETCH  ACCESS:   39000012  HIT:   31861563  MISS:    7138449
L1D WRITEBACK ACCESS:          0  HIT:          0  MISS:          0
L1D PREFETCH  REQUESTED:   85506351  ISSUED:   84185173  USEFUL:    5879085  USELESS:    1259375
L1D TOTAL MSHR MERGED:   31552416
L1D LOAD MSHR MERGED:   18347201
L1D RFO MSHR MERGED:     266397
L1D PREFETCH MSHR MERGED:   12938818
L1D WRITEBACK MSHR MERGED:          0
L1D TOTAL ACCESSES:  156881970 HITS:  107772609 MISSES:   49109361
L1D LOAD ACCESSES:   85506367 HITS:   62049032 MISSES:   23457335
L1D RFO ACCESSES:   14280698 HITS:   13861495 MISSES:     419203
L1D PREFETCH ACCESSES:   57094905 HITS:   31862082 MISSES:   25232823
L1D WRITEBACK ACCESSES:          0 HITS:          0 MISSES:          0
L1D RQ ACCESS:  175130859
L1D RQ TO_CACHE:   85506351
L1D RQ MERGED:   89624492
L1D RQ FORWARD:          0
L1D WQ ACCESS:   14289037
L1D WQ TO_CACHE:   14280698
L1D WQ MERGED:       8339
L1D WQ FORWARD:        535
L1I TOTAL     ACCESS:   93353664  HIT:   93351868  MISS:       1796
L1I LOAD      ACCESS:   93353664  HIT:   93351868  MISS:       1796
L1I RFO       ACCESS:          0  HIT:          0  MISS:          0
L1I PREFETCH  ACCESS:          0  HIT:          0  MISS:          0
L1I WRITEBACK ACCESS:          0  HIT:          0  MISS:          0
L1I PREFETCH  REQUESTED:          0  ISSUED:          0  USEFUL:          0  USELESS:          0
L1I TOTAL MSHR MERGED:       2290
L1I LOAD MSHR MERGED:       2290
L1I RFO MSHR MERGED:          0
L1I PREFETCH MSHR MERGED:          0
L1I WRITEBACK MSHR MERGED:          0
L1I TOTAL ACCESSES:   93355954 HITS:   93351868 MISSES:       4086
L1I LOAD ACCESSES:   93355954 HITS:   93351868 MISSES:       4086
L1I RFO ACCESSES:          0 HITS:          0 MISSES:          0
L1I PREFETCH ACCESSES:          0 HITS:          0 MISSES:          0
L1I WRITEBACK ACCESSES:          0 HITS:          0 MISSES:          0
L1I RQ ACCESS:  500000187
L1I RQ TO_CACHE:   93355954
L1I RQ MERGED:  406644233
L1I RQ FORWARD:          0
L1I WQ ACCESS:          0
L1I WQ TO_CACHE:          0
L1I WQ MERGED:          0
L1I WQ FORWARD:          0
L2C TOTAL     ACCESS:   20901083  HIT:    8671708  MISS:   12229375
L2C LOAD      ACCESS:    5111902  HIT:    2145228  MISS:    2966674
L2C RFO       ACCESS:     152806  HIT:       6519  MISS:     146287
L2C PREFETCH  ACCESS:   13863621  HIT:    4747318  MISS:    9116303
L2C WRITEBACK ACCESS:    1772754  HIT:    1772643  MISS:        111
L2C PREFETCH  REQUESTED:    1808023  ISSUED:    1808023  USEFUL:    1066187  USELESS:    8051765
L2C TOTAL MSHR MERGED:      96052
L2C LOAD MSHR MERGED:      22025
L2C RFO MSHR MERGED:          0
L2C PREFETCH MSHR MERGED:      74027
L2C WRITEBACK MSHR MERGED:          0
L2C TOTAL ACCESSES:   21021475 HITS:    8671753 MISSES:   12349722
L2C LOAD ACCESSES:    5111930 HITS:    2145256 MISSES:    2966674
L2C RFO ACCESSES:     152806 HITS:       6519 MISSES:     146287
L2C PREFETCH ACCESSES:   13983985 HITS:    4747335 MISSES:    9236650
L2C WRITEBACK ACCESSES:    1772754 HITS:    1772643 MISSES:        111
L2C RQ ACCESS:    5264736
L2C RQ TO_CACHE:    5264708
L2C RQ MERGED:          0
L2C RQ FORWARD:          0
L2C WQ ACCESS:    1772754
L2C WQ TO_CACHE:    1772754
L2C WQ MERGED:          0
L2C WQ FORWARD:         45
LLC TOTAL     ACCESS:   12533804  HIT:    6705038  MISS:    5828766
LLC LOAD      ACCESS:    2944630  HIT:    2437747  MISS:     506883
LLC RFO       ACCESS:     146287  HIT:      70423  MISS:      75864
LLC PREFETCH  ACCESS:    9156904  HIT:    3967301  MISS:    5189603
LLC WRITEBACK ACCESS:     285983  HIT:     229567  MISS:      56416
LLC PREFETCH  REQUESTED:          0  ISSUED:          0  USEFUL:       9244  USELESS:    5180299
LLC TOTAL MSHR MERGED:       1601
LLC LOAD MSHR MERGED:        355
LLC RFO MSHR MERGED:          0
LLC PREFETCH MSHR MERGED:       1246
LLC WRITEBACK MSHR MERGED:          0
LLC TOTAL ACCESSES:   12535438 HITS:    6705071 MISSES:    5830367
LLC LOAD ACCESSES:    2944649 HITS:    2437766 MISSES:     506883
LLC RFO ACCESSES:     146287 HITS:      70423 MISSES:      75864
LLC PREFETCH ACCESSES:    9158519 HITS:    3967315 MISSES:    5191204
LLC WRITEBACK ACCESSES:     285983 HITS:     229567 MISSES:      56416
LLC 0 RQ ACCESS:    3090936
LLC 0 RQ TO_CACHE:    3090917
LLC 0 RQ MERGED:          0
LLC 0 RQ FORWARD:          0
LLC WQ ACCESS:     285983
LLC WQ TO_CACHE:     285983
LLC WQ MERGED:          0
LLC WQ FORWARD:         33
Major fault: 0 Minor fault: 6524
CPU 0 L1D next line prefetcher final stats
CPU 0 L2C PC-based stride prefetcher final stats
All Misses: 7630925
All Hits: 7427892
SD Algo Stats - Switches: 0 SRR-Repls: 539581 BRR-Repls: 0

DRAM Statistics
 CHANNEL 0
 RQ ROW_BUFFER_HIT:    4939083  ROW_BUFFER_MISS:     824136
 DBUS_CONGESTED:    2071277
 WQ ROW_BUFFER_HIT:      13884  ROW_BUFFER_MISS:      80720  FULL:          0

 AVG_CONGESTED_CYCLE: 12
LOADS RETIRED: 175418235
INSTR RETIRED: 500000000
