
*** ChampSim Multicore Out-of-Order Simulator ***

Warmup Instructions: 100000000
Simulation Instructions: 500000000
Number of CPUs: 1
LLC sets: 2048
LLC ways: 16
Clean RRIP Policies: 1213130112131301 Dirty RRIP Policies: 2203130122031301 PSEL Width: 10 Track Set: 4294967295 PSEL Mask: 1 Demote Mask: 3010201030102010DS Algo: 0Window size: 0
Off-chip DRAM Size: 4096 MB Channels: 1 Width: 64-bit Data Rate: 1600 MT/s

CPU 0 runs /mnt/beegfs/iconst01/spec2017/x264.trace.gz
NOT SORTED
TRACE STRING: /mnt/beegfs/iconst01/spec2017/x264.trace.gz
SORTED
TRACE STRING: /mnt/beegfs/iconst01/spec2017/x264.trace.gz
INITIAL
TRACE STRING: /mnt/beegfs/iconst01/spec2017/x264.trace.gz

champsim_seed used: 276

CPU 0 L1D next line prefetcher
CPU 0 L2C IP-based stride prefetcher
Initialize DRRIP state
Assign rand_sets[0]: 454  LLC: 2048
rand_sets[0]: 454
Assign rand_sets[1]: 1662  LLC: 2048
rand_sets[1]: 1662
Assign rand_sets[2]: 1921  LLC: 2048
rand_sets[2]: 1921
Assign rand_sets[3]: 1131  LLC: 2048
rand_sets[3]: 1131
Assign rand_sets[4]: 331  LLC: 2048
rand_sets[4]: 331
Assign rand_sets[5]: 1531  LLC: 2048
rand_sets[5]: 1531
Assign rand_sets[6]: 482  LLC: 2048
rand_sets[6]: 482
Assign rand_sets[7]: 1275  LLC: 2048
rand_sets[7]: 1275
Assign rand_sets[8]: 1876  LLC: 2048
rand_sets[8]: 1876
Assign rand_sets[9]: 2038  LLC: 2048
rand_sets[9]: 2038
Assign rand_sets[10]: 701  LLC: 2048
rand_sets[10]: 701
Assign rand_sets[11]: 479  LLC: 2048
rand_sets[11]: 479
Assign rand_sets[12]: 892  LLC: 2048
rand_sets[12]: 892
Assign rand_sets[13]: 1820  LLC: 2048
rand_sets[13]: 1820
Assign rand_sets[14]: 1505  LLC: 2048
rand_sets[14]: 1505
Assign rand_sets[15]: 1159  LLC: 2048
rand_sets[15]: 1159
Assign rand_sets[16]: 513  LLC: 2048
rand_sets[16]: 513
Assign rand_sets[17]: 703  LLC: 2048
rand_sets[17]: 703
Assign rand_sets[18]: 561  LLC: 2048
rand_sets[18]: 561
Assign rand_sets[19]: 990  LLC: 2048
rand_sets[19]: 990
Assign rand_sets[20]: 342  LLC: 2048
rand_sets[20]: 342
Assign rand_sets[21]: 882  LLC: 2048
rand_sets[21]: 882
Assign rand_sets[22]: 15  LLC: 2048
rand_sets[22]: 15
Assign rand_sets[23]: 71  LLC: 2048
rand_sets[23]: 71
Assign rand_sets[24]: 1127  LLC: 2048
rand_sets[24]: 1127
Assign rand_sets[25]: 1382  LLC: 2048
rand_sets[25]: 1382
Assign rand_sets[26]: 647  LLC: 2048
rand_sets[26]: 647
Assign rand_sets[27]: 857  LLC: 2048
rand_sets[27]: 857
Assign rand_sets[28]: 1450  LLC: 2048
rand_sets[28]: 1450
Assign rand_sets[29]: 1160  LLC: 2048
rand_sets[29]: 1160
Assign rand_sets[30]: 1852  LLC: 2048
rand_sets[30]: 1852
Assign rand_sets[31]: 1881  LLC: 2048
rand_sets[31]: 1881
Assign rand_sets[32]: 1770  LLC: 2048
rand_sets[32]: 1770
Assign rand_sets[33]: 1622  LLC: 2048
rand_sets[33]: 1622
Assign rand_sets[34]: 275  LLC: 2048
rand_sets[34]: 275
Assign rand_sets[35]: 635  LLC: 2048
rand_sets[35]: 635
Assign rand_sets[36]: 466  LLC: 2048
rand_sets[36]: 466
Assign rand_sets[37]: 1413  LLC: 2048
rand_sets[37]: 1413
Assign rand_sets[38]: 417  LLC: 2048
rand_sets[38]: 417
Assign rand_sets[39]: 472  LLC: 2048
rand_sets[39]: 472
Assign rand_sets[40]: 1340  LLC: 2048
rand_sets[40]: 1340
Assign rand_sets[41]: 852  LLC: 2048
rand_sets[41]: 852
Assign rand_sets[42]: 1365  LLC: 2048
rand_sets[42]: 1365
Assign rand_sets[43]: 47  LLC: 2048
rand_sets[43]: 47
Assign rand_sets[44]: 823  LLC: 2048
rand_sets[44]: 823
Assign rand_sets[45]: 686  LLC: 2048
rand_sets[45]: 686
Assign rand_sets[46]: 1637  LLC: 2048
rand_sets[46]: 1637
Assign rand_sets[47]: 1115  LLC: 2048
rand_sets[47]: 1115
Assign rand_sets[48]: 986  LLC: 2048
rand_sets[48]: 986
Assign rand_sets[49]: 258  LLC: 2048
rand_sets[49]: 258
Assign rand_sets[50]: 633  LLC: 2048
rand_sets[50]: 633
Assign rand_sets[51]: 920  LLC: 2048
rand_sets[51]: 920
Assign rand_sets[52]: 204  LLC: 2048
rand_sets[52]: 204
Assign rand_sets[53]: 227  LLC: 2048
rand_sets[53]: 227
Assign rand_sets[54]: 1818  LLC: 2048
rand_sets[54]: 1818
Assign rand_sets[55]: 886  LLC: 2048
rand_sets[55]: 886
Assign rand_sets[56]: 1422  LLC: 2048
rand_sets[56]: 1422
Assign rand_sets[57]: 607  LLC: 2048
rand_sets[57]: 607
Assign rand_sets[58]: 217  LLC: 2048
rand_sets[58]: 217
Assign rand_sets[59]: 1945  LLC: 2048
rand_sets[59]: 1945
Assign rand_sets[60]: 143  LLC: 2048
rand_sets[60]: 143
Assign rand_sets[61]: 1311  LLC: 2048
rand_sets[61]: 1311
Assign rand_sets[62]: 319  LLC: 2048
rand_sets[62]: 319
Assign rand_sets[63]: 1846  LLC: 2048
rand_sets[63]: 1846
 CLEAN-RRIP-POLICY-1: 1-2-1-3-1-3-0-1- CLEAN-RRIP-POLICY-2: 1-2-1-3-1-3-0-1-
 DIRTY-RRIP-POLICY-1: 2-2-0-3-1-3-0-1- DIRTY-RRIP-POLICY-2: 2-2-0-3-1-3-0-1-
 PSEL width: 10
Heartbeat CPU 0 instructions: 10000000 cycles: 4124759 heartbeat IPC: 2.42438 cumulative IPC: 2.42438 (Simulation time: 0 hr 0 min 13 sec) 
Heartbeat CPU 0 instructions: 20000000 cycles: 8233863 heartbeat IPC: 2.43362 cumulative IPC: 2.42899 (Simulation time: 0 hr 0 min 26 sec) 
Heartbeat CPU 0 instructions: 30000003 cycles: 12464696 heartbeat IPC: 2.3636 cumulative IPC: 2.4068 (Simulation time: 0 hr 0 min 38 sec) 
Heartbeat CPU 0 instructions: 40000000 cycles: 16636669 heartbeat IPC: 2.39695 cumulative IPC: 2.40433 (Simulation time: 0 hr 0 min 51 sec) 
Heartbeat CPU 0 instructions: 50000000 cycles: 20699138 heartbeat IPC: 2.46156 cumulative IPC: 2.41556 (Simulation time: 0 hr 1 min 5 sec) 
Heartbeat CPU 0 instructions: 60000000 cycles: 25022626 heartbeat IPC: 2.31295 cumulative IPC: 2.39783 (Simulation time: 0 hr 1 min 18 sec) 
Heartbeat CPU 0 instructions: 70000000 cycles: 29370992 heartbeat IPC: 2.29971 cumulative IPC: 2.3833 (Simulation time: 0 hr 1 min 30 sec) 
Heartbeat CPU 0 instructions: 80000000 cycles: 33721161 heartbeat IPC: 2.29876 cumulative IPC: 2.3724 (Simulation time: 0 hr 1 min 43 sec) 
Heartbeat CPU 0 instructions: 90000002 cycles: 38032157 heartbeat IPC: 2.31965 cumulative IPC: 2.36642 (Simulation time: 0 hr 1 min 56 sec) 
Heartbeat CPU 0 instructions: 100000000 cycles: 42329077 heartbeat IPC: 2.32725 cumulative IPC: 2.36244 (Simulation time: 0 hr 2 min 9 sec) 

Warmup complete CPU 0 instructions: 100000001 cycles: 42329078 (Simulation time: 0 hr 2 min 9 sec) 

Heartbeat CPU 0 instructions: 110000001 cycles: 49384610 heartbeat IPC: 1.41733 cumulative IPC: 1.41733 (Simulation time: 0 hr 2 min 25 sec) 
Heartbeat CPU 0 instructions: 120000000 cycles: 58894984 heartbeat IPC: 1.05148 cumulative IPC: 1.2073 (Simulation time: 0 hr 2 min 44 sec) 
Heartbeat CPU 0 instructions: 130000000 cycles: 63703351 heartbeat IPC: 2.07971 cumulative IPC: 1.40356 (Simulation time: 0 hr 3 min 1 sec) 
Heartbeat CPU 0 instructions: 140000000 cycles: 68613483 heartbeat IPC: 2.03661 cumulative IPC: 1.52181 (Simulation time: 0 hr 3 min 17 sec) 
Heartbeat CPU 0 instructions: 150000002 cycles: 75435387 heartbeat IPC: 1.46587 cumulative IPC: 1.51029 (Simulation time: 0 hr 3 min 34 sec) 
Heartbeat CPU 0 instructions: 160000000 cycles: 83264639 heartbeat IPC: 1.27726 cumulative IPC: 1.46572 (Simulation time: 0 hr 3 min 51 sec) 
Heartbeat CPU 0 instructions: 170000000 cycles: 90658763 heartbeat IPC: 1.35243 cumulative IPC: 1.44839 (Simulation time: 0 hr 4 min 8 sec) 
Heartbeat CPU 0 instructions: 180000000 cycles: 97960257 heartbeat IPC: 1.36958 cumulative IPC: 1.43804 (Simulation time: 0 hr 4 min 25 sec) 
Heartbeat CPU 0 instructions: 190000002 cycles: 105127676 heartbeat IPC: 1.3952 cumulative IPC: 1.43315 (Simulation time: 0 hr 4 min 41 sec) 
Heartbeat CPU 0 instructions: 200000000 cycles: 112362337 heartbeat IPC: 1.38223 cumulative IPC: 1.42789 (Simulation time: 0 hr 4 min 58 sec) 
Heartbeat CPU 0 instructions: 210000000 cycles: 119235737 heartbeat IPC: 1.45488 cumulative IPC: 1.43031 (Simulation time: 0 hr 5 min 14 sec) 
Heartbeat CPU 0 instructions: 220000000 cycles: 126004816 heartbeat IPC: 1.47731 cumulative IPC: 1.43411 (Simulation time: 0 hr 5 min 30 sec) 
Heartbeat CPU 0 instructions: 230000003 cycles: 132738054 heartbeat IPC: 1.48517 cumulative IPC: 1.43791 (Simulation time: 0 hr 5 min 46 sec) 
Heartbeat CPU 0 instructions: 240000000 cycles: 139485156 heartbeat IPC: 1.48212 cumulative IPC: 1.44098 (Simulation time: 0 hr 6 min 2 sec) 
Heartbeat CPU 0 instructions: 250000001 cycles: 146213166 heartbeat IPC: 1.48632 cumulative IPC: 1.44392 (Simulation time: 0 hr 6 min 18 sec) 
Heartbeat CPU 0 instructions: 260000000 cycles: 152917432 heartbeat IPC: 1.49159 cumulative IPC: 1.44681 (Simulation time: 0 hr 6 min 34 sec) 
Heartbeat CPU 0 instructions: 270000001 cycles: 159887275 heartbeat IPC: 1.43475 cumulative IPC: 1.44609 (Simulation time: 0 hr 6 min 51 sec) 
Heartbeat CPU 0 instructions: 280000000 cycles: 167419092 heartbeat IPC: 1.3277 cumulative IPC: 1.43896 (Simulation time: 0 hr 7 min 8 sec) 
Heartbeat CPU 0 instructions: 290000000 cycles: 175340712 heartbeat IPC: 1.26237 cumulative IPC: 1.42845 (Simulation time: 0 hr 7 min 25 sec) 
Heartbeat CPU 0 instructions: 300000000 cycles: 183516299 heartbeat IPC: 1.22315 cumulative IPC: 1.41656 (Simulation time: 0 hr 7 min 42 sec) 
Heartbeat CPU 0 instructions: 310000002 cycles: 191824830 heartbeat IPC: 1.20358 cumulative IPC: 1.40472 (Simulation time: 0 hr 8 min 0 sec) 
Heartbeat CPU 0 instructions: 320000000 cycles: 201823442 heartbeat IPC: 1.00014 cumulative IPC: 1.37936 (Simulation time: 0 hr 8 min 19 sec) 
Heartbeat CPU 0 instructions: 330000002 cycles: 206460591 heartbeat IPC: 2.1565 cumulative IPC: 1.40132 (Simulation time: 0 hr 8 min 36 sec) 
Heartbeat CPU 0 instructions: 340000000 cycles: 211693125 heartbeat IPC: 1.91112 cumulative IPC: 1.41707 (Simulation time: 0 hr 8 min 53 sec) 
Heartbeat CPU 0 instructions: 350000000 cycles: 218886223 heartbeat IPC: 1.39022 cumulative IPC: 1.41597 (Simulation time: 0 hr 9 min 10 sec) 
Heartbeat CPU 0 instructions: 360000000 cycles: 226532126 heartbeat IPC: 1.30789 cumulative IPC: 1.41149 (Simulation time: 0 hr 9 min 28 sec) 
Heartbeat CPU 0 instructions: 370000000 cycles: 233933481 heartbeat IPC: 1.3511 cumulative IPC: 1.40915 (Simulation time: 0 hr 9 min 45 sec) 
Heartbeat CPU 0 instructions: 380000000 cycles: 241204965 heartbeat IPC: 1.37524 cumulative IPC: 1.40791 (Simulation time: 0 hr 10 min 1 sec) 
Heartbeat CPU 0 instructions: 390000000 cycles: 249321340 heartbeat IPC: 1.23208 cumulative IPC: 1.40102 (Simulation time: 0 hr 10 min 19 sec) 
Heartbeat CPU 0 instructions: 400000000 cycles: 257529328 heartbeat IPC: 1.21833 cumulative IPC: 1.39405 (Simulation time: 0 hr 10 min 37 sec) 
Heartbeat CPU 0 instructions: 410000001 cycles: 265350392 heartbeat IPC: 1.2786 cumulative IPC: 1.39 (Simulation time: 0 hr 10 min 54 sec) 
Heartbeat CPU 0 instructions: 420000000 cycles: 273401030 heartbeat IPC: 1.24214 cumulative IPC: 1.38485 (Simulation time: 0 hr 11 min 12 sec) 
Heartbeat CPU 0 instructions: 430000001 cycles: 281653408 heartbeat IPC: 1.21177 cumulative IPC: 1.37888 (Simulation time: 0 hr 11 min 30 sec) 
Heartbeat CPU 0 instructions: 440000000 cycles: 289694056 heartbeat IPC: 1.24368 cumulative IPC: 1.37449 (Simulation time: 0 hr 11 min 48 sec) 
Heartbeat CPU 0 instructions: 450000001 cycles: 297567385 heartbeat IPC: 1.27011 cumulative IPC: 1.37127 (Simulation time: 0 hr 12 min 5 sec) 
Heartbeat CPU 0 instructions: 460000000 cycles: 307530291 heartbeat IPC: 1.00372 cumulative IPC: 1.35746 (Simulation time: 0 hr 12 min 24 sec) 
Heartbeat CPU 0 instructions: 470000002 cycles: 312160818 heartbeat IPC: 2.15958 cumulative IPC: 1.37122 (Simulation time: 0 hr 12 min 40 sec) 
Heartbeat CPU 0 instructions: 480000000 cycles: 317419708 heartbeat IPC: 1.90154 cumulative IPC: 1.38136 (Simulation time: 0 hr 12 min 56 sec) 
Heartbeat CPU 0 instructions: 490000001 cycles: 324731284 heartbeat IPC: 1.36769 cumulative IPC: 1.38101 (Simulation time: 0 hr 13 min 14 sec) 
Heartbeat CPU 0 instructions: 500000000 cycles: 333459714 heartbeat IPC: 1.14568 cumulative IPC: 1.37395 (Simulation time: 0 hr 13 min 33 sec) 
Heartbeat CPU 0 instructions: 510000002 cycles: 342191110 heartbeat IPC: 1.14529 cumulative IPC: 1.3673 (Simulation time: 0 hr 13 min 53 sec) 
Heartbeat CPU 0 instructions: 520000000 cycles: 350919795 heartbeat IPC: 1.14565 cumulative IPC: 1.36103 (Simulation time: 0 hr 14 min 12 sec) 
Heartbeat CPU 0 instructions: 530000000 cycles: 359625641 heartbeat IPC: 1.14865 cumulative IPC: 1.3552 (Simulation time: 0 hr 14 min 31 sec) 
Heartbeat CPU 0 instructions: 540000000 cycles: 367879329 heartbeat IPC: 1.21158 cumulative IPC: 1.35156 (Simulation time: 0 hr 14 min 50 sec) 
Heartbeat CPU 0 instructions: 550000000 cycles: 374916679 heartbeat IPC: 1.42099 cumulative IPC: 1.35303 (Simulation time: 0 hr 15 min 7 sec) 
Heartbeat CPU 0 instructions: 560000000 cycles: 381526182 heartbeat IPC: 1.51297 cumulative IPC: 1.35614 (Simulation time: 0 hr 15 min 24 sec) 
Heartbeat CPU 0 instructions: 570000002 cycles: 388113098 heartbeat IPC: 1.51816 cumulative IPC: 1.35923 (Simulation time: 0 hr 15 min 40 sec) 
Heartbeat CPU 0 instructions: 580000000 cycles: 394756263 heartbeat IPC: 1.50531 cumulative IPC: 1.36198 (Simulation time: 0 hr 15 min 56 sec) 
Heartbeat CPU 0 instructions: 590000002 cycles: 401444152 heartbeat IPC: 1.49524 cumulative IPC: 1.36447 (Simulation time: 0 hr 16 min 13 sec) 
Heartbeat CPU 0 instructions: 600000000 cycles: 408254723 heartbeat IPC: 1.46831 cumulative IPC: 1.3664 (Simulation time: 0 hr 16 min 29 sec) 
Finished CPU 0 instructions: 500000000 cycles: 365925653 cumulative IPC: 1.3664 (Simulation time: 0 hr 16 min 29 sec) 

CPU 0 Branch Prediction Accuracy: 93.4682% MPKI: 2.44079
Number of Branches: 18683822 Number of Mispredictions: 1220394
Number of LOAD Instructions: 142551610
Number of LOAD Instructions (ROI): 142551610
Number of STORE Instructions: 44807454
Number of STORE Instructions (ROI): 44807454
Total Destination Memory Operands: 48357071
Total Destination Memory Operands (ROI): 48357071
Total Source Memory Operands: 142551610
Total Source Memory Operands (ROI): 142551610
Number of DEPENDED LOADS: 7395180
Number of DEPENDED LOADS (ROI): 7395180
Number of SQ_ADDED: 48357051
Number of SQ_ADDED (ROI): 48357051
Number of LQ_ADDED: 157218730
Number of LQ_ADDED (ROI): 157218730
Number of Instructions read from trace: 600000256

ChampSim completed all CPUs

Region of Interest Statistics

CPU 0 cumulative IPC: 1.3664 instructions: 500000000 cycles: 365925653
ITLB TOTAL     ACCESS:   88176444  HIT:   88176375  MISS:         69
ITLB LOAD      ACCESS:   88176444  HIT:   88176375  MISS:         69
ITLB RFO       ACCESS:          0  HIT:          0  MISS:          0
ITLB PREFETCH  ACCESS:          0  HIT:          0  MISS:          0
ITLB WRITEBACK ACCESS:          0  HIT:          0  MISS:          0
ITLB PREFETCH  REQUESTED:          0  ISSUED:          0  USEFUL:          0  USELESS:          0
ITLB TOTAL MSHR MERGED:         85
ITLB LOAD MSHR MERGED:         85
ITLB RFO MSHR MERGED:          0
ITLB PREFETCH MSHR MERGED:          0
ITLB WRITEBACK MSHR MERGED:          0
ITLB TOTAL ACCESSES:   88176529 HITS:   88176375 MISSES:        154
ITLB LOAD ACCESSES:   88176529 HITS:   88176375 MISSES:        154
ITLB RFO ACCESSES:          0 HITS:          0 MISSES:          0
ITLB PREFETCH ACCESSES:          0 HITS:          0 MISSES:          0
ITLB WRITEBACK ACCESSES:          0 HITS:          0 MISSES:          0
ITLB RQ ACCESS:  500000000
ITLB RQ TO_CACHE:   88176529
ITLB RQ MERGED:  411823471
ITLB RQ FORWARD:          0
ITLB WQ ACCESS:          0
ITLB WQ TO_CACHE:          0
ITLB WQ MERGED:          0
ITLB WQ FORWARD:          0
DTLB TOTAL     ACCESS:   88203308  HIT:   88075893  MISS:     127415
DTLB LOAD      ACCESS:   59485441  HIT:   59392976  MISS:      92465
DTLB RFO       ACCESS:   28717867  HIT:   28682917  MISS:      34950
DTLB PREFETCH  ACCESS:          0  HIT:          0  MISS:          0
DTLB WRITEBACK ACCESS:          0  HIT:          0  MISS:          0
DTLB PREFETCH  REQUESTED:          0  ISSUED:          0  USEFUL:          0  USELESS:          0
DTLB TOTAL MSHR MERGED:     141140
DTLB LOAD MSHR MERGED:     107669
DTLB RFO MSHR MERGED:      33471
DTLB PREFETCH MSHR MERGED:          0
DTLB WRITEBACK MSHR MERGED:          0
DTLB TOTAL ACCESSES:   88344448 HITS:   88075893 MISSES:     268555
DTLB LOAD ACCESSES:   59593110 HITS:   59392976 MISSES:     200134
DTLB RFO ACCESSES:   28751338 HITS:   28682917 MISSES:      68421
DTLB PREFETCH ACCESSES:          0 HITS:          0 MISSES:          0
DTLB WRITEBACK ACCESSES:          0 HITS:          0 MISSES:          0
DTLB RQ ACCESS:  154558710
DTLB RQ TO_CACHE:   88344448
DTLB RQ MERGED:   66214262
DTLB RQ FORWARD:          0
DTLB WQ ACCESS:          0
DTLB WQ TO_CACHE:          0
DTLB WQ MERGED:          0
DTLB WQ FORWARD:          0
L1D TOTAL     ACCESS:  128068434  HIT:  124842867  MISS:    3225567
L1D LOAD      ACCESS:   53172419  HIT:   51977004  MISS:    1195415
L1D RFO       ACCESS:   37367456  HIT:   36753316  MISS:     614140
L1D PREFETCH  ACCESS:   37528559  HIT:   36112547  MISS:    1416012
L1D WRITEBACK ACCESS:          0  HIT:          0  MISS:          0
L1D PREFETCH  REQUESTED:   53657130  ISSUED:   52456982  USEFUL:     352017  USELESS:    1063960
L1D TOTAL MSHR MERGED:    2829211
L1D LOAD MSHR MERGED:     523526
L1D RFO MSHR MERGED:    1586870
L1D PREFETCH MSHR MERGED:     718815
L1D WRITEBACK MSHR MERGED:          0
L1D TOTAL ACCESSES:  130932531 HITS:  124877753 MISSES:    6054778
L1D LOAD ACCESSES:   53660020 HITS:   51979894 MISSES:    1680126
L1D RFO ACCESSES:   38952751 HITS:   36753316 MISSES:    2199435
L1D PREFETCH ACCESSES:   38319760 HITS:   36144543 MISSES:    2175217
L1D WRITEBACK ACCESSES:          0 HITS:          0 MISSES:          0
L1D RQ ACCESS:  113713818
L1D RQ TO_CACHE:   53657130
L1D RQ MERGED:   60053798
L1D RQ FORWARD:          0
L1D WQ ACCESS:   40844891
L1D WQ TO_CACHE:   38952751
L1D WQ MERGED:    1892140
L1D WQ FORWARD:      34886
L1I TOTAL     ACCESS:  108368437  HIT:  107809305  MISS:     559132
L1I LOAD      ACCESS:  108368437  HIT:  107809305  MISS:     559132
L1I RFO       ACCESS:          0  HIT:          0  MISS:          0
L1I PREFETCH  ACCESS:          0  HIT:          0  MISS:          0
L1I WRITEBACK ACCESS:          0  HIT:          0  MISS:          0
L1I PREFETCH  REQUESTED:          0  ISSUED:          0  USEFUL:          0  USELESS:          0
L1I TOTAL MSHR MERGED:     525476
L1I LOAD MSHR MERGED:     525476
L1I RFO MSHR MERGED:          0
L1I PREFETCH MSHR MERGED:          0
L1I WRITEBACK MSHR MERGED:          0
L1I TOTAL ACCESSES:  108893913 HITS:  107809305 MISSES:    1084608
L1I LOAD ACCESSES:  108893913 HITS:  107809305 MISSES:    1084608
L1I RFO ACCESSES:          0 HITS:          0 MISSES:          0
L1I PREFETCH ACCESSES:          0 HITS:          0 MISSES:          0
L1I WRITEBACK ACCESSES:          0 HITS:          0 MISSES:          0
L1I RQ ACCESS:  500000002
L1I RQ TO_CACHE:  108893913
L1I RQ MERGED:  391106089
L1I RQ FORWARD:          0
L1I WQ ACCESS:          0
L1I WQ TO_CACHE:          0
L1I WQ MERGED:          0
L1I WQ FORWARD:          0
L2C TOTAL     ACCESS:    4691751  HIT:    3865733  MISS:     826018
L2C LOAD      ACCESS:    1715621  HIT:    1562588  MISS:     153033
L2C RFO       ACCESS:     611136  HIT:     421179  MISS:     189957
L2C PREFETCH  ACCESS:    1662097  HIT:    1181256  MISS:     480841
L2C WRITEBACK ACCESS:     702897  HIT:     700710  MISS:       2187
L2C PREFETCH  REQUESTED:     256327  ISSUED:     256327  USEFUL:     172989  USELESS:     308518
L2C TOTAL MSHR MERGED:      13411
L2C LOAD MSHR MERGED:       4144
L2C RFO MSHR MERGED:          0
L2C PREFETCH MSHR MERGED:       9267
L2C WRITEBACK MSHR MERGED:          0
L2C TOTAL ACCESSES:    4712180 HITS:    3867343 MISSES:     844837
L2C LOAD ACCESSES:    1715732 HITS:    1562699 MISSES:     153033
L2C RFO ACCESSES:     612565 HITS:     422608 MISSES:     189957
L2C PREFETCH ACCESSES:    1680986 HITS:    1181326 MISSES:     499660
L2C WRITEBACK ACCESSES:     702897 HITS:     700710 MISSES:       2187
L2C RQ ACCESS:    2328297
L2C RQ TO_CACHE:    2326757
L2C RQ MERGED:          0
L2C RQ FORWARD:          0
L2C WQ ACCESS:     702897
L2C WQ TO_CACHE:     702897
L2C WQ MERGED:          0
L2C WQ FORWARD:       1610
LLC TOTAL     ACCESS:    1047551  HIT:     284878  MISS:     762673
LLC LOAD      ACCESS:     148886  HIT:      90143  MISS:      58743
LLC RFO       ACCESS:     189950  HIT:       6913  MISS:     183037
LLC PREFETCH  ACCESS:     487839  HIT:     148716  MISS:     339123
LLC WRITEBACK ACCESS:     220876  HIT:      39106  MISS:     181770
LLC PREFETCH  REQUESTED:          0  ISSUED:          0  USEFUL:       2218  USELESS:     337564
LLC TOTAL MSHR MERGED:       1797
LLC LOAD MSHR MERGED:        681
LLC RFO MSHR MERGED:          0
LLC PREFETCH MSHR MERGED:       1116
LLC WRITEBACK MSHR MERGED:          0
LLC TOTAL ACCESSES:    1049358 HITS:     284888 MISSES:     764470
LLC LOAD ACCESSES:     148889 HITS:      90146 MISSES:      58743
LLC RFO ACCESSES:     189957 HITS:       6920 MISSES:     183037
LLC PREFETCH ACCESSES:     489636 HITS:     148716 MISSES:     340920
LLC WRITEBACK ACCESSES:     220876 HITS:      39106 MISSES:     181770
LLC 0 RQ ACCESS:     338846
LLC 0 RQ TO_CACHE:     338836
LLC 0 RQ MERGED:          0
LLC 0 RQ FORWARD:          0
LLC WQ ACCESS:     220876
LLC WQ TO_CACHE:     220876
LLC WQ MERGED:          0
LLC WQ FORWARD:         10
Major fault: 0 Minor fault: 6811
CPU 0 L1D next line prefetcher final stats
CPU 0 L2C PC-based stride prefetcher final stats
All Misses: 902137
All Hits: 352397
SD Algo Stats - Switches: 0 SRR-Repls: 66201 BRR-Repls: 0

DRAM Statistics
 CHANNEL 0
 RQ ROW_BUFFER_HIT:     292919  ROW_BUFFER_MISS:     287917
 DBUS_CONGESTED:     402714
 WQ ROW_BUFFER_HIT:      25067  ROW_BUFFER_MISS:     191159  FULL:          0

 AVG_CONGESTED_CYCLE: 13
LOADS RETIRED: 119922929
INSTR RETIRED: 500000000
