
*** ChampSim Multicore Out-of-Order Simulator ***

Warmup Instructions: 100000000
Simulation Instructions: 500000000
Number of CPUs: 1
LLC sets: 2048
LLC ways: 16
Clean RRIP Policies: 1320000313200003 Dirty RRIP Policies: 1310200313102003 PSEL Width: 10 Track Set: 4294967295 PSEL Mask: 1 Demote Mask: 3112133331121333DS Algo: 0Window size: 0
Off-chip DRAM Size: 4096 MB Channels: 1 Width: 64-bit Data Rate: 1600 MT/s

CPU 0 runs /mnt/beegfs/iconst01/spec2017/Gcc.trace.gz
NOT SORTED
TRACE STRING: /mnt/beegfs/iconst01/spec2017/Gcc.trace.gz
SORTED
TRACE STRING: /mnt/beegfs/iconst01/spec2017/Gcc.trace.gz
INITIAL
TRACE STRING: /mnt/beegfs/iconst01/spec2017/Gcc.trace.gz

champsim_seed used: 269

CPU 0 L1D next line prefetcher
CPU 0 L2C IP-based stride prefetcher
Initialize DRRIP state
Assign rand_sets[0]: 454  LLC: 2048
rand_sets[0]: 454
Assign rand_sets[1]: 1662  LLC: 2048
rand_sets[1]: 1662
Assign rand_sets[2]: 1921  LLC: 2048
rand_sets[2]: 1921
Assign rand_sets[3]: 1131  LLC: 2048
rand_sets[3]: 1131
Assign rand_sets[4]: 331  LLC: 2048
rand_sets[4]: 331
Assign rand_sets[5]: 1531  LLC: 2048
rand_sets[5]: 1531
Assign rand_sets[6]: 482  LLC: 2048
rand_sets[6]: 482
Assign rand_sets[7]: 1275  LLC: 2048
rand_sets[7]: 1275
Assign rand_sets[8]: 1876  LLC: 2048
rand_sets[8]: 1876
Assign rand_sets[9]: 2038  LLC: 2048
rand_sets[9]: 2038
Assign rand_sets[10]: 701  LLC: 2048
rand_sets[10]: 701
Assign rand_sets[11]: 479  LLC: 2048
rand_sets[11]: 479
Assign rand_sets[12]: 892  LLC: 2048
rand_sets[12]: 892
Assign rand_sets[13]: 1820  LLC: 2048
rand_sets[13]: 1820
Assign rand_sets[14]: 1505  LLC: 2048
rand_sets[14]: 1505
Assign rand_sets[15]: 1159  LLC: 2048
rand_sets[15]: 1159
Assign rand_sets[16]: 513  LLC: 2048
rand_sets[16]: 513
Assign rand_sets[17]: 703  LLC: 2048
rand_sets[17]: 703
Assign rand_sets[18]: 561  LLC: 2048
rand_sets[18]: 561
Assign rand_sets[19]: 990  LLC: 2048
rand_sets[19]: 990
Assign rand_sets[20]: 342  LLC: 2048
rand_sets[20]: 342
Assign rand_sets[21]: 882  LLC: 2048
rand_sets[21]: 882
Assign rand_sets[22]: 15  LLC: 2048
rand_sets[22]: 15
Assign rand_sets[23]: 71  LLC: 2048
rand_sets[23]: 71
Assign rand_sets[24]: 1127  LLC: 2048
rand_sets[24]: 1127
Assign rand_sets[25]: 1382  LLC: 2048
rand_sets[25]: 1382
Assign rand_sets[26]: 647  LLC: 2048
rand_sets[26]: 647
Assign rand_sets[27]: 857  LLC: 2048
rand_sets[27]: 857
Assign rand_sets[28]: 1450  LLC: 2048
rand_sets[28]: 1450
Assign rand_sets[29]: 1160  LLC: 2048
rand_sets[29]: 1160
Assign rand_sets[30]: 1852  LLC: 2048
rand_sets[30]: 1852
Assign rand_sets[31]: 1881  LLC: 2048
rand_sets[31]: 1881
Assign rand_sets[32]: 1770  LLC: 2048
rand_sets[32]: 1770
Assign rand_sets[33]: 1622  LLC: 2048
rand_sets[33]: 1622
Assign rand_sets[34]: 275  LLC: 2048
rand_sets[34]: 275
Assign rand_sets[35]: 635  LLC: 2048
rand_sets[35]: 635
Assign rand_sets[36]: 466  LLC: 2048
rand_sets[36]: 466
Assign rand_sets[37]: 1413  LLC: 2048
rand_sets[37]: 1413
Assign rand_sets[38]: 417  LLC: 2048
rand_sets[38]: 417
Assign rand_sets[39]: 472  LLC: 2048
rand_sets[39]: 472
Assign rand_sets[40]: 1340  LLC: 2048
rand_sets[40]: 1340
Assign rand_sets[41]: 852  LLC: 2048
rand_sets[41]: 852
Assign rand_sets[42]: 1365  LLC: 2048
rand_sets[42]: 1365
Assign rand_sets[43]: 47  LLC: 2048
rand_sets[43]: 47
Assign rand_sets[44]: 823  LLC: 2048
rand_sets[44]: 823
Assign rand_sets[45]: 686  LLC: 2048
rand_sets[45]: 686
Assign rand_sets[46]: 1637  LLC: 2048
rand_sets[46]: 1637
Assign rand_sets[47]: 1115  LLC: 2048
rand_sets[47]: 1115
Assign rand_sets[48]: 986  LLC: 2048
rand_sets[48]: 986
Assign rand_sets[49]: 258  LLC: 2048
rand_sets[49]: 258
Assign rand_sets[50]: 633  LLC: 2048
rand_sets[50]: 633
Assign rand_sets[51]: 920  LLC: 2048
rand_sets[51]: 920
Assign rand_sets[52]: 204  LLC: 2048
rand_sets[52]: 204
Assign rand_sets[53]: 227  LLC: 2048
rand_sets[53]: 227
Assign rand_sets[54]: 1818  LLC: 2048
rand_sets[54]: 1818
Assign rand_sets[55]: 886  LLC: 2048
rand_sets[55]: 886
Assign rand_sets[56]: 1422  LLC: 2048
rand_sets[56]: 1422
Assign rand_sets[57]: 607  LLC: 2048
rand_sets[57]: 607
Assign rand_sets[58]: 217  LLC: 2048
rand_sets[58]: 217
Assign rand_sets[59]: 1945  LLC: 2048
rand_sets[59]: 1945
Assign rand_sets[60]: 143  LLC: 2048
rand_sets[60]: 143
Assign rand_sets[61]: 1311  LLC: 2048
rand_sets[61]: 1311
Assign rand_sets[62]: 319  LLC: 2048
rand_sets[62]: 319
Assign rand_sets[63]: 1846  LLC: 2048
rand_sets[63]: 1846
 CLEAN-RRIP-POLICY-1: 1-3-2-0-0-0-0-3- CLEAN-RRIP-POLICY-2: 1-3-2-0-0-0-0-3-
 DIRTY-RRIP-POLICY-1: 1-3-1-0-2-0-0-3- DIRTY-RRIP-POLICY-2: 1-3-1-0-2-0-0-3-
 PSEL width: 10
Heartbeat CPU 0 instructions: 10000001 cycles: 7320972 heartbeat IPC: 1.36594 cumulative IPC: 1.36594 (Simulation time: 0 hr 0 min 15 sec) 
Heartbeat CPU 0 instructions: 20000000 cycles: 14325624 heartbeat IPC: 1.42762 cumulative IPC: 1.3961 (Simulation time: 0 hr 0 min 30 sec) 
Heartbeat CPU 0 instructions: 30000001 cycles: 21042095 heartbeat IPC: 1.48888 cumulative IPC: 1.42571 (Simulation time: 0 hr 0 min 46 sec) 
Heartbeat CPU 0 instructions: 40000000 cycles: 27504028 heartbeat IPC: 1.54752 cumulative IPC: 1.45433 (Simulation time: 0 hr 1 min 3 sec) 
Heartbeat CPU 0 instructions: 50000001 cycles: 33606861 heartbeat IPC: 1.63858 cumulative IPC: 1.48779 (Simulation time: 0 hr 1 min 19 sec) 
Heartbeat CPU 0 instructions: 60000000 cycles: 40089132 heartbeat IPC: 1.54267 cumulative IPC: 1.49667 (Simulation time: 0 hr 1 min 35 sec) 
Heartbeat CPU 0 instructions: 70000000 cycles: 47132348 heartbeat IPC: 1.41981 cumulative IPC: 1.48518 (Simulation time: 0 hr 1 min 50 sec) 
Heartbeat CPU 0 instructions: 80000000 cycles: 54227952 heartbeat IPC: 1.40932 cumulative IPC: 1.47525 (Simulation time: 0 hr 2 min 6 sec) 
Heartbeat CPU 0 instructions: 90000003 cycles: 61238588 heartbeat IPC: 1.4264 cumulative IPC: 1.46966 (Simulation time: 0 hr 2 min 21 sec) 
Heartbeat CPU 0 instructions: 100000000 cycles: 68412221 heartbeat IPC: 1.39399 cumulative IPC: 1.46173 (Simulation time: 0 hr 2 min 36 sec) 

Warmup complete CPU 0 instructions: 100000004 cycles: 68412222 (Simulation time: 0 hr 2 min 36 sec) 

Heartbeat CPU 0 instructions: 110000003 cycles: 97019960 heartbeat IPC: 0.349556 cumulative IPC: 0.349556 (Simulation time: 0 hr 3 min 6 sec) 
Heartbeat CPU 0 instructions: 120000000 cycles: 124812864 heartbeat IPC: 0.359804 cumulative IPC: 0.354606 (Simulation time: 0 hr 3 min 36 sec) 
Heartbeat CPU 0 instructions: 130000000 cycles: 150083446 heartbeat IPC: 0.395717 cumulative IPC: 0.367326 (Simulation time: 0 hr 4 min 6 sec) 
Heartbeat CPU 0 instructions: 140000000 cycles: 181460870 heartbeat IPC: 0.3187 cumulative IPC: 0.35383 (Simulation time: 0 hr 4 min 36 sec) 
Heartbeat CPU 0 instructions: 150000000 cycles: 212515443 heartbeat IPC: 0.322014 cumulative IPC: 0.346973 (Simulation time: 0 hr 5 min 7 sec) 
Heartbeat CPU 0 instructions: 160000000 cycles: 240336987 heartbeat IPC: 0.359434 cumulative IPC: 0.34899 (Simulation time: 0 hr 5 min 36 sec) 
Heartbeat CPU 0 instructions: 170000001 cycles: 268854717 heartbeat IPC: 0.350659 cumulative IPC: 0.349227 (Simulation time: 0 hr 6 min 7 sec) 
Heartbeat CPU 0 instructions: 180000000 cycles: 297903883 heartbeat IPC: 0.344244 cumulative IPC: 0.348597 (Simulation time: 0 hr 6 min 37 sec) 
Heartbeat CPU 0 instructions: 190000002 cycles: 326566853 heartbeat IPC: 0.348882 cumulative IPC: 0.348628 (Simulation time: 0 hr 7 min 6 sec) 
Heartbeat CPU 0 instructions: 200000000 cycles: 355599633 heartbeat IPC: 0.344438 cumulative IPC: 0.348205 (Simulation time: 0 hr 7 min 37 sec) 
Heartbeat CPU 0 instructions: 210000002 cycles: 384088462 heartbeat IPC: 0.351015 cumulative IPC: 0.348458 (Simulation time: 0 hr 8 min 6 sec) 
Heartbeat CPU 0 instructions: 220000000 cycles: 414876320 heartbeat IPC: 0.324803 cumulative IPC: 0.346356 (Simulation time: 0 hr 8 min 35 sec) 
Heartbeat CPU 0 instructions: 230000000 cycles: 443205996 heartbeat IPC: 0.352987 cumulative IPC: 0.346857 (Simulation time: 0 hr 9 min 4 sec) 
Heartbeat CPU 0 instructions: 240000000 cycles: 469660033 heartbeat IPC: 0.378014 cumulative IPC: 0.348912 (Simulation time: 0 hr 9 min 33 sec) 
Heartbeat CPU 0 instructions: 250000000 cycles: 500232311 heartbeat IPC: 0.327094 cumulative IPC: 0.347367 (Simulation time: 0 hr 10 min 3 sec) 
Heartbeat CPU 0 instructions: 260000000 cycles: 527546341 heartbeat IPC: 0.366112 cumulative IPC: 0.348482 (Simulation time: 0 hr 10 min 32 sec) 
Heartbeat CPU 0 instructions: 270000003 cycles: 556417280 heartbeat IPC: 0.346369 cumulative IPC: 0.348357 (Simulation time: 0 hr 11 min 3 sec) 
Heartbeat CPU 0 instructions: 280000000 cycles: 585163472 heartbeat IPC: 0.347872 cumulative IPC: 0.34833 (Simulation time: 0 hr 11 min 34 sec) 
Heartbeat CPU 0 instructions: 290000000 cycles: 614488389 heartbeat IPC: 0.341007 cumulative IPC: 0.347937 (Simulation time: 0 hr 12 min 4 sec) 
Heartbeat CPU 0 instructions: 300000000 cycles: 645776633 heartbeat IPC: 0.319609 cumulative IPC: 0.346402 (Simulation time: 0 hr 12 min 34 sec) 
Heartbeat CPU 0 instructions: 310000001 cycles: 676149271 heartbeat IPC: 0.329244 cumulative IPC: 0.345544 (Simulation time: 0 hr 13 min 4 sec) 
Heartbeat CPU 0 instructions: 320000000 cycles: 705458057 heartbeat IPC: 0.341195 cumulative IPC: 0.345344 (Simulation time: 0 hr 13 min 33 sec) 
Heartbeat CPU 0 instructions: 330000000 cycles: 734872528 heartbeat IPC: 0.339969 cumulative IPC: 0.345107 (Simulation time: 0 hr 14 min 2 sec) 
Heartbeat CPU 0 instructions: 340000000 cycles: 765077531 heartbeat IPC: 0.331071 cumulative IPC: 0.344498 (Simulation time: 0 hr 14 min 32 sec) 
Heartbeat CPU 0 instructions: 350000003 cycles: 792631494 heartbeat IPC: 0.362924 cumulative IPC: 0.345199 (Simulation time: 0 hr 15 min 1 sec) 
Heartbeat CPU 0 instructions: 360000000 cycles: 823405368 heartbeat IPC: 0.324951 cumulative IPC: 0.344374 (Simulation time: 0 hr 15 min 30 sec) 
Heartbeat CPU 0 instructions: 370000000 cycles: 854226645 heartbeat IPC: 0.324451 cumulative IPC: 0.343593 (Simulation time: 0 hr 15 min 59 sec) 
Heartbeat CPU 0 instructions: 380000000 cycles: 885488904 heartbeat IPC: 0.319875 cumulative IPC: 0.342685 (Simulation time: 0 hr 16 min 29 sec) 
Heartbeat CPU 0 instructions: 390000001 cycles: 915712532 heartbeat IPC: 0.330867 cumulative IPC: 0.342264 (Simulation time: 0 hr 16 min 58 sec) 
Heartbeat CPU 0 instructions: 400000000 cycles: 946904938 heartbeat IPC: 0.320591 cumulative IPC: 0.341494 (Simulation time: 0 hr 17 min 27 sec) 
Heartbeat CPU 0 instructions: 410000001 cycles: 976894085 heartbeat IPC: 0.333454 cumulative IPC: 0.341229 (Simulation time: 0 hr 17 min 56 sec) 
Heartbeat CPU 0 instructions: 420000000 cycles: 1006894567 heartbeat IPC: 0.333328 cumulative IPC: 0.340976 (Simulation time: 0 hr 18 min 25 sec) 
Heartbeat CPU 0 instructions: 430000002 cycles: 1037299568 heartbeat IPC: 0.328893 cumulative IPC: 0.340597 (Simulation time: 0 hr 18 min 53 sec) 
Heartbeat CPU 0 instructions: 440000000 cycles: 1069039624 heartbeat IPC: 0.315059 cumulative IPC: 0.339787 (Simulation time: 0 hr 19 min 22 sec) 
Heartbeat CPU 0 instructions: 450000002 cycles: 1100576553 heartbeat IPC: 0.317089 cumulative IPC: 0.339093 (Simulation time: 0 hr 19 min 50 sec) 
Heartbeat CPU 0 instructions: 460000000 cycles: 1130890775 heartbeat IPC: 0.329878 cumulative IPC: 0.33883 (Simulation time: 0 hr 20 min 18 sec) 
Heartbeat CPU 0 instructions: 470000000 cycles: 1160753564 heartbeat IPC: 0.334865 cumulative IPC: 0.338722 (Simulation time: 0 hr 20 min 46 sec) 
Heartbeat CPU 0 instructions: 480000000 cycles: 1190894301 heartbeat IPC: 0.331777 cumulative IPC: 0.338535 (Simulation time: 0 hr 21 min 14 sec) 
Heartbeat CPU 0 instructions: 490000000 cycles: 1220776172 heartbeat IPC: 0.334651 cumulative IPC: 0.338435 (Simulation time: 0 hr 21 min 42 sec) 
Heartbeat CPU 0 instructions: 500000000 cycles: 1251142246 heartbeat IPC: 0.329315 cumulative IPC: 0.338201 (Simulation time: 0 hr 22 min 10 sec) 
Heartbeat CPU 0 instructions: 510000000 cycles: 1286738904 heartbeat IPC: 0.280925 cumulative IPC: 0.336527 (Simulation time: 0 hr 22 min 41 sec) 
Heartbeat CPU 0 instructions: 520000000 cycles: 1315045190 heartbeat IPC: 0.353278 cumulative IPC: 0.336908 (Simulation time: 0 hr 23 min 9 sec) 
Heartbeat CPU 0 instructions: 530000001 cycles: 1345852086 heartbeat IPC: 0.324603 cumulative IPC: 0.336611 (Simulation time: 0 hr 23 min 38 sec) 
Heartbeat CPU 0 instructions: 540000000 cycles: 1374971875 heartbeat IPC: 0.343409 cumulative IPC: 0.336762 (Simulation time: 0 hr 24 min 6 sec) 
Heartbeat CPU 0 instructions: 550000001 cycles: 1404523415 heartbeat IPC: 0.338392 cumulative IPC: 0.336798 (Simulation time: 0 hr 24 min 36 sec) 
Heartbeat CPU 0 instructions: 560000000 cycles: 1430193844 heartbeat IPC: 0.389553 cumulative IPC: 0.337793 (Simulation time: 0 hr 25 min 4 sec) 
Heartbeat CPU 0 instructions: 570000000 cycles: 1460789260 heartbeat IPC: 0.326846 cumulative IPC: 0.337552 (Simulation time: 0 hr 25 min 33 sec) 
Heartbeat CPU 0 instructions: 580000000 cycles: 1489580844 heartbeat IPC: 0.347324 cumulative IPC: 0.33775 (Simulation time: 0 hr 26 min 2 sec) 
Heartbeat CPU 0 instructions: 590000001 cycles: 1514713527 heartbeat IPC: 0.397888 cumulative IPC: 0.338795 (Simulation time: 0 hr 26 min 28 sec) 
Heartbeat CPU 0 instructions: 600000000 cycles: 1541563015 heartbeat IPC: 0.372447 cumulative IPC: 0.339409 (Simulation time: 0 hr 26 min 56 sec) 
Finished CPU 0 instructions: 500000000 cycles: 1473150815 cumulative IPC: 0.339409 (Simulation time: 0 hr 26 min 56 sec) 

CPU 0 Branch Prediction Accuracy: 86.4311% MPKI: 26.2662
Number of Branches: 96788573 Number of Mispredictions: 13133102
Number of LOAD Instructions: 164682285
Number of LOAD Instructions (ROI): 164682285
Number of STORE Instructions: 78194750
Number of STORE Instructions (ROI): 78194750
Total Destination Memory Operands: 83268534
Total Destination Memory Operands (ROI): 83268534
Total Source Memory Operands: 164712438
Total Source Memory Operands (ROI): 164712438
Number of DEPENDED LOADS: 7056469
Number of DEPENDED LOADS (ROI): 7056469
Number of SQ_ADDED: 83268522
Number of SQ_ADDED (ROI): 83268522
Number of LQ_ADDED: 236355266
Number of LQ_ADDED (ROI): 236355266
Number of Instructions read from trace: 600000066

ChampSim completed all CPUs

Region of Interest Statistics

CPU 0 cumulative IPC: 0.339409 instructions: 500000000 cycles: 1473150815
ITLB TOTAL     ACCESS:  100525513  HIT:  100321067  MISS:     204446
ITLB LOAD      ACCESS:  100525513  HIT:  100321067  MISS:     204446
ITLB RFO       ACCESS:          0  HIT:          0  MISS:          0
ITLB PREFETCH  ACCESS:          0  HIT:          0  MISS:          0
ITLB WRITEBACK ACCESS:          0  HIT:          0  MISS:          0
ITLB PREFETCH  REQUESTED:          0  ISSUED:          0  USEFUL:          0  USELESS:          0
ITLB TOTAL MSHR MERGED:     172423
ITLB LOAD MSHR MERGED:     172423
ITLB RFO MSHR MERGED:          0
ITLB PREFETCH MSHR MERGED:          0
ITLB WRITEBACK MSHR MERGED:          0
ITLB TOTAL ACCESSES:  100697936 HITS:  100321067 MISSES:     376869
ITLB LOAD ACCESSES:  100697936 HITS:  100321067 MISSES:     376869
ITLB RFO ACCESSES:          0 HITS:          0 MISSES:          0
ITLB PREFETCH ACCESSES:          0 HITS:          0 MISSES:          0
ITLB WRITEBACK ACCESSES:          0 HITS:          0 MISSES:          0
ITLB RQ ACCESS:  500000057
ITLB RQ TO_CACHE:  100697936
ITLB RQ MERGED:  399302121
ITLB RQ FORWARD:          0
ITLB WQ ACCESS:          0
ITLB WQ TO_CACHE:          0
ITLB WQ MERGED:          0
ITLB WQ FORWARD:          0
DTLB TOTAL     ACCESS:  165354611  HIT:  164720262  MISS:     634349
DTLB LOAD      ACCESS:  106304347  HIT:  105734299  MISS:     570048
DTLB RFO       ACCESS:   59050264  HIT:   58985963  MISS:      64301
DTLB PREFETCH  ACCESS:          0  HIT:          0  MISS:          0
DTLB WRITEBACK ACCESS:          0  HIT:          0  MISS:          0
DTLB PREFETCH  REQUESTED:          0  ISSUED:          0  USEFUL:          0  USELESS:          0
DTLB TOTAL MSHR MERGED:      99572
DTLB LOAD MSHR MERGED:      59257
DTLB RFO MSHR MERGED:      40315
DTLB PREFETCH MSHR MERGED:          0
DTLB WRITEBACK MSHR MERGED:          0
DTLB TOTAL ACCESSES:  165454183 HITS:  164720262 MISSES:     733921
DTLB LOAD ACCESSES:  106363604 HITS:  105734299 MISSES:     629305
DTLB RFO ACCESSES:   59090579 HITS:   58985963 MISSES:     104616
DTLB PREFETCH ACCESSES:          0 HITS:          0 MISSES:          0
DTLB WRITEBACK ACCESSES:          0 HITS:          0 MISSES:          0
DTLB RQ ACCESS:  200314429
DTLB RQ TO_CACHE:  165454183
DTLB RQ MERGED:   34860246
DTLB RQ FORWARD:          0
DTLB WQ ACCESS:          0
DTLB WQ TO_CACHE:          0
DTLB WQ MERGED:          0
DTLB WQ FORWARD:          0
L1D TOTAL     ACCESS:  281918769  HIT:  274009273  MISS:    7909496
L1D LOAD      ACCESS:  110444099  HIT:  107169385  MISS:    3274714
L1D RFO       ACCESS:   67135789  HIT:   66245843  MISS:     889946
L1D PREFETCH  ACCESS:  104338881  HIT:  100594045  MISS:    3744836
L1D WRITEBACK ACCESS:          0  HIT:          0  MISS:          0
L1D PREFETCH  REQUESTED:  110832467  ISSUED:  109132844  USEFUL:    1665332  USELESS:    2079468
L1D TOTAL MSHR MERGED:    2822702
L1D LOAD MSHR MERGED:     482946
L1D RFO MSHR MERGED:    1849551
L1D PREFETCH MSHR MERGED:     490205
L1D WRITEBACK MSHR MERGED:          0
L1D TOTAL ACCESSES:  284768903 HITS:  274036705 MISSES:   10732198
L1D LOAD ACCESSES:  110833903 HITS:  107170821 MISSES:    3663082
L1D RFO ACCESSES:   68974141 HITS:   66245843 MISSES:    2728298
L1D PREFETCH ACCESSES:  104960859 HITS:  100620041 MISSES:    4340818
L1D WRITEBACK ACCESSES:          0 HITS:          0 MISSES:          0
L1D RQ ACCESS:  130761826
L1D RQ TO_CACHE:  110832470
L1D RQ MERGED:   19927920
L1D RQ FORWARD:          0
L1D WQ ACCESS:   69552603
L1D WQ TO_CACHE:   68974142
L1D WQ MERGED:     578461
L1D WQ FORWARD:      27432
L1I TOTAL     ACCESS:  126569395  HIT:  122330871  MISS:    4238524
L1I LOAD      ACCESS:  126569395  HIT:  122330871  MISS:    4238524
L1I RFO       ACCESS:          0  HIT:          0  MISS:          0
L1I PREFETCH  ACCESS:          0  HIT:          0  MISS:          0
L1I WRITEBACK ACCESS:          0  HIT:          0  MISS:          0
L1I PREFETCH  REQUESTED:          0  ISSUED:          0  USEFUL:          0  USELESS:          0
L1I TOTAL MSHR MERGED:    1838545
L1I LOAD MSHR MERGED:    1838545
L1I RFO MSHR MERGED:          0
L1I PREFETCH MSHR MERGED:          0
L1I WRITEBACK MSHR MERGED:          0
L1I TOTAL ACCESSES:  128407943 HITS:  122330871 MISSES:    6077072
L1I LOAD ACCESSES:  128407943 HITS:  122330871 MISSES:    6077072
L1I RFO ACCESSES:          0 HITS:          0 MISSES:          0
L1I PREFETCH ACCESSES:          0 HITS:          0 MISSES:          0
L1I WRITEBACK ACCESSES:          0 HITS:          0 MISSES:          0
L1I RQ ACCESS:  500000057
L1I RQ TO_CACHE:  128407943
L1I RQ MERGED:  371592114
L1I RQ FORWARD:          0
L1I WQ ACCESS:          0
L1I WQ TO_CACHE:          0
L1I WQ MERGED:          0
L1I WQ FORWARD:          0
L2C TOTAL     ACCESS:   14905966  HIT:   11159488  MISS:    3746478
L2C LOAD      ACCESS:    7418454  HIT:    5098782  MISS:    2319672
L2C RFO       ACCESS:     878648  HIT:     409953  MISS:     468695
L2C PREFETCH  ACCESS:    4569598  HIT:    3628749  MISS:     940849
L2C WRITEBACK ACCESS:    2039266  HIT:    2022004  MISS:      17262
L2C PREFETCH  REQUESTED:     842868  ISSUED:     842868  USEFUL:     203595  USELESS:     736960
L2C TOTAL MSHR MERGED:       6504
L2C LOAD MSHR MERGED:        679
L2C RFO MSHR MERGED:          0
L2C PREFETCH MSHR MERGED:       5825
L2C WRITEBACK MSHR MERGED:          0
L2C TOTAL ACCESSES:   14913385 HITS:   11159938 MISSES:    3753447
L2C LOAD ACCESSES:    7418660 HITS:    5098988 MISSES:    2319672
L2C RFO ACCESSES:     878747 HITS:     410052 MISSES:     468695
L2C PREFETCH ACCESSES:    4576712 HITS:    3628894 MISSES:     947818
L2C WRITEBACK ACCESSES:    2039266 HITS:    2022004 MISSES:      17262
L2C RQ ACCESS:    8297410
L2C RQ TO_CACHE:    8297105
L2C RQ MERGED:          0
L2C RQ FORWARD:          0
L2C WQ ACCESS:    2039266
L2C WQ TO_CACHE:    2039266
L2C WQ MERGED:          0
L2C WQ FORWARD:        450
LLC TOTAL     ACCESS:    4609838  HIT:    3338734  MISS:    1271104
LLC LOAD      ACCESS:    2318980  HIT:    1415328  MISS:     903652
LLC RFO       ACCESS:     468686  HIT:     414725  MISS:      53961
LLC PREFETCH  ACCESS:     941874  HIT:     683381  MISS:     258493
LLC WRITEBACK ACCESS:     880298  HIT:     825300  MISS:      54998
LLC PREFETCH  REQUESTED:          0  ISSUED:          0  USEFUL:      29878  USELESS:     230484
LLC TOTAL MSHR MERGED:         98
LLC LOAD MSHR MERGED:         32
LLC RFO MSHR MERGED:          0
LLC PREFETCH MSHR MERGED:         66
LLC WRITEBACK MSHR MERGED:          0
LLC TOTAL ACCESSES:    4609971 HITS:    3338769 MISSES:    1271202
LLC LOAD ACCESSES:    2318993 HITS:    1415341 MISSES:     903652
LLC RFO ACCESSES:     468695 HITS:     414734 MISSES:      53961
LLC PREFETCH ACCESSES:     941985 HITS:     683394 MISSES:     258591
LLC WRITEBACK ACCESSES:     880298 HITS:     825300 MISSES:      54998
LLC 0 RQ ACCESS:    2787688
LLC 0 RQ TO_CACHE:    2787666
LLC 0 RQ MERGED:          0
LLC 0 RQ FORWARD:          0
LLC WQ ACCESS:     880298
LLC WQ TO_CACHE:     880298
LLC WQ MERGED:          0
LLC WQ FORWARD:         35
Major fault: 0 Minor fault: 12862
CPU 0 L1D next line prefetcher final stats
CPU 0 L2C PC-based stride prefetcher final stats
All Misses: 1486016
All Hits: 3940825
SD Algo Stats - Switches: 0 SRR-Repls: 1032423 BRR-Repls: 0

DRAM Statistics
 CHANNEL 0
 RQ ROW_BUFFER_HIT:     378710  ROW_BUFFER_MISS:     835707
 DBUS_CONGESTED:     458218
 WQ ROW_BUFFER_HIT:       9671  ROW_BUFFER_MISS:     176514  FULL:          0

 AVG_CONGESTED_CYCLE: 13
LOADS RETIRED: 136549171
INSTR RETIRED: 500000000
