
*** ChampSim Multicore Out-of-Order Simulator ***

Warmup Instructions: 100000000
Simulation Instructions: 500000000
Number of CPUs: 1
LLC sets: 2048
LLC ways: 16
Clean RRIP Policies: 1022211010222110 Dirty RRIP Policies: 22010000220100 PSEL Width: 10 Track Set: 4294967295 PSEL Mask: 1 Demote Mask: 1433301114333011DS Algo: 0Window size: 0
Off-chip DRAM Size: 4096 MB Channels: 1 Width: 64-bit Data Rate: 1600 MT/s

CPU 0 runs /mnt/beegfs/iconst01/spec2017/Gcc.trace.gz
NOT SORTED
TRACE STRING: /mnt/beegfs/iconst01/spec2017/Gcc.trace.gz
SORTED
TRACE STRING: /mnt/beegfs/iconst01/spec2017/Gcc.trace.gz
INITIAL
TRACE STRING: /mnt/beegfs/iconst01/spec2017/Gcc.trace.gz

champsim_seed used: 269

CPU 0 L1D next line prefetcher
CPU 0 L2C IP-based stride prefetcher
Initialize DRRIP state
Assign rand_sets[0]: 454  LLC: 2048
rand_sets[0]: 454
Assign rand_sets[1]: 1662  LLC: 2048
rand_sets[1]: 1662
Assign rand_sets[2]: 1921  LLC: 2048
rand_sets[2]: 1921
Assign rand_sets[3]: 1131  LLC: 2048
rand_sets[3]: 1131
Assign rand_sets[4]: 331  LLC: 2048
rand_sets[4]: 331
Assign rand_sets[5]: 1531  LLC: 2048
rand_sets[5]: 1531
Assign rand_sets[6]: 482  LLC: 2048
rand_sets[6]: 482
Assign rand_sets[7]: 1275  LLC: 2048
rand_sets[7]: 1275
Assign rand_sets[8]: 1876  LLC: 2048
rand_sets[8]: 1876
Assign rand_sets[9]: 2038  LLC: 2048
rand_sets[9]: 2038
Assign rand_sets[10]: 701  LLC: 2048
rand_sets[10]: 701
Assign rand_sets[11]: 479  LLC: 2048
rand_sets[11]: 479
Assign rand_sets[12]: 892  LLC: 2048
rand_sets[12]: 892
Assign rand_sets[13]: 1820  LLC: 2048
rand_sets[13]: 1820
Assign rand_sets[14]: 1505  LLC: 2048
rand_sets[14]: 1505
Assign rand_sets[15]: 1159  LLC: 2048
rand_sets[15]: 1159
Assign rand_sets[16]: 513  LLC: 2048
rand_sets[16]: 513
Assign rand_sets[17]: 703  LLC: 2048
rand_sets[17]: 703
Assign rand_sets[18]: 561  LLC: 2048
rand_sets[18]: 561
Assign rand_sets[19]: 990  LLC: 2048
rand_sets[19]: 990
Assign rand_sets[20]: 342  LLC: 2048
rand_sets[20]: 342
Assign rand_sets[21]: 882  LLC: 2048
rand_sets[21]: 882
Assign rand_sets[22]: 15  LLC: 2048
rand_sets[22]: 15
Assign rand_sets[23]: 71  LLC: 2048
rand_sets[23]: 71
Assign rand_sets[24]: 1127  LLC: 2048
rand_sets[24]: 1127
Assign rand_sets[25]: 1382  LLC: 2048
rand_sets[25]: 1382
Assign rand_sets[26]: 647  LLC: 2048
rand_sets[26]: 647
Assign rand_sets[27]: 857  LLC: 2048
rand_sets[27]: 857
Assign rand_sets[28]: 1450  LLC: 2048
rand_sets[28]: 1450
Assign rand_sets[29]: 1160  LLC: 2048
rand_sets[29]: 1160
Assign rand_sets[30]: 1852  LLC: 2048
rand_sets[30]: 1852
Assign rand_sets[31]: 1881  LLC: 2048
rand_sets[31]: 1881
Assign rand_sets[32]: 1770  LLC: 2048
rand_sets[32]: 1770
Assign rand_sets[33]: 1622  LLC: 2048
rand_sets[33]: 1622
Assign rand_sets[34]: 275  LLC: 2048
rand_sets[34]: 275
Assign rand_sets[35]: 635  LLC: 2048
rand_sets[35]: 635
Assign rand_sets[36]: 466  LLC: 2048
rand_sets[36]: 466
Assign rand_sets[37]: 1413  LLC: 2048
rand_sets[37]: 1413
Assign rand_sets[38]: 417  LLC: 2048
rand_sets[38]: 417
Assign rand_sets[39]: 472  LLC: 2048
rand_sets[39]: 472
Assign rand_sets[40]: 1340  LLC: 2048
rand_sets[40]: 1340
Assign rand_sets[41]: 852  LLC: 2048
rand_sets[41]: 852
Assign rand_sets[42]: 1365  LLC: 2048
rand_sets[42]: 1365
Assign rand_sets[43]: 47  LLC: 2048
rand_sets[43]: 47
Assign rand_sets[44]: 823  LLC: 2048
rand_sets[44]: 823
Assign rand_sets[45]: 686  LLC: 2048
rand_sets[45]: 686
Assign rand_sets[46]: 1637  LLC: 2048
rand_sets[46]: 1637
Assign rand_sets[47]: 1115  LLC: 2048
rand_sets[47]: 1115
Assign rand_sets[48]: 986  LLC: 2048
rand_sets[48]: 986
Assign rand_sets[49]: 258  LLC: 2048
rand_sets[49]: 258
Assign rand_sets[50]: 633  LLC: 2048
rand_sets[50]: 633
Assign rand_sets[51]: 920  LLC: 2048
rand_sets[51]: 920
Assign rand_sets[52]: 204  LLC: 2048
rand_sets[52]: 204
Assign rand_sets[53]: 227  LLC: 2048
rand_sets[53]: 227
Assign rand_sets[54]: 1818  LLC: 2048
rand_sets[54]: 1818
Assign rand_sets[55]: 886  LLC: 2048
rand_sets[55]: 886
Assign rand_sets[56]: 1422  LLC: 2048
rand_sets[56]: 1422
Assign rand_sets[57]: 607  LLC: 2048
rand_sets[57]: 607
Assign rand_sets[58]: 217  LLC: 2048
rand_sets[58]: 217
Assign rand_sets[59]: 1945  LLC: 2048
rand_sets[59]: 1945
Assign rand_sets[60]: 143  LLC: 2048
rand_sets[60]: 143
Assign rand_sets[61]: 1311  LLC: 2048
rand_sets[61]: 1311
Assign rand_sets[62]: 319  LLC: 2048
rand_sets[62]: 319
Assign rand_sets[63]: 1846  LLC: 2048
rand_sets[63]: 1846
 CLEAN-RRIP-POLICY-1: 1-0-2-2-2-1-1-0- CLEAN-RRIP-POLICY-2: 1-0-2-2-2-1-1-0-
 DIRTY-RRIP-POLICY-1: 0-0-2-2-0-1-0-0- DIRTY-RRIP-POLICY-2: 0-0-2-2-0-1-0-0-
 PSEL width: 10
Heartbeat CPU 0 instructions: 10000001 cycles: 7315913 heartbeat IPC: 1.36688 cumulative IPC: 1.36688 (Simulation time: 0 hr 0 min 15 sec) 
Heartbeat CPU 0 instructions: 20000000 cycles: 14307924 heartbeat IPC: 1.4302 cumulative IPC: 1.39783 (Simulation time: 0 hr 0 min 30 sec) 
Heartbeat CPU 0 instructions: 30000001 cycles: 21021333 heartbeat IPC: 1.48956 cumulative IPC: 1.42712 (Simulation time: 0 hr 0 min 47 sec) 
Heartbeat CPU 0 instructions: 40000000 cycles: 27482379 heartbeat IPC: 1.54774 cumulative IPC: 1.45548 (Simulation time: 0 hr 1 min 3 sec) 
Heartbeat CPU 0 instructions: 50000001 cycles: 33584458 heartbeat IPC: 1.63879 cumulative IPC: 1.48878 (Simulation time: 0 hr 1 min 19 sec) 
Heartbeat CPU 0 instructions: 60000000 cycles: 40065885 heartbeat IPC: 1.54287 cumulative IPC: 1.49753 (Simulation time: 0 hr 1 min 36 sec) 
Heartbeat CPU 0 instructions: 70000000 cycles: 47106457 heartbeat IPC: 1.42034 cumulative IPC: 1.486 (Simulation time: 0 hr 1 min 51 sec) 
Heartbeat CPU 0 instructions: 80000000 cycles: 54197885 heartbeat IPC: 1.41015 cumulative IPC: 1.47607 (Simulation time: 0 hr 2 min 7 sec) 
Heartbeat CPU 0 instructions: 90000003 cycles: 61204491 heartbeat IPC: 1.42722 cumulative IPC: 1.47048 (Simulation time: 0 hr 2 min 22 sec) 
Heartbeat CPU 0 instructions: 100000000 cycles: 68374133 heartbeat IPC: 1.39477 cumulative IPC: 1.46254 (Simulation time: 0 hr 2 min 37 sec) 

Warmup complete CPU 0 instructions: 100000004 cycles: 68374134 (Simulation time: 0 hr 2 min 37 sec) 

Heartbeat CPU 0 instructions: 110000003 cycles: 96424769 heartbeat IPC: 0.356498 cumulative IPC: 0.356498 (Simulation time: 0 hr 3 min 8 sec) 
Heartbeat CPU 0 instructions: 120000000 cycles: 124022456 heartbeat IPC: 0.362349 cumulative IPC: 0.3594 (Simulation time: 0 hr 3 min 39 sec) 
Heartbeat CPU 0 instructions: 130000000 cycles: 149142648 heartbeat IPC: 0.398086 cumulative IPC: 0.371432 (Simulation time: 0 hr 4 min 9 sec) 
Heartbeat CPU 0 instructions: 140000000 cycles: 179307749 heartbeat IPC: 0.331509 cumulative IPC: 0.360576 (Simulation time: 0 hr 4 min 39 sec) 
Heartbeat CPU 0 instructions: 150000000 cycles: 209585539 heartbeat IPC: 0.330275 cumulative IPC: 0.354079 (Simulation time: 0 hr 5 min 10 sec) 
Heartbeat CPU 0 instructions: 160000000 cycles: 237148486 heartbeat IPC: 0.362806 cumulative IPC: 0.355504 (Simulation time: 0 hr 5 min 40 sec) 
Heartbeat CPU 0 instructions: 170000001 cycles: 265462000 heartbeat IPC: 0.353188 cumulative IPC: 0.355172 (Simulation time: 0 hr 6 min 12 sec) 
Heartbeat CPU 0 instructions: 180000000 cycles: 294170547 heartbeat IPC: 0.348328 cumulative IPC: 0.354301 (Simulation time: 0 hr 6 min 43 sec) 
Heartbeat CPU 0 instructions: 190000002 cycles: 322613326 heartbeat IPC: 0.351583 cumulative IPC: 0.353997 (Simulation time: 0 hr 7 min 14 sec) 
Heartbeat CPU 0 instructions: 200000000 cycles: 351227321 heartbeat IPC: 0.349479 cumulative IPC: 0.35354 (Simulation time: 0 hr 7 min 45 sec) 
Heartbeat CPU 0 instructions: 210000002 cycles: 379422027 heartbeat IPC: 0.354677 cumulative IPC: 0.353643 (Simulation time: 0 hr 8 min 16 sec) 
Heartbeat CPU 0 instructions: 220000000 cycles: 409197445 heartbeat IPC: 0.335847 cumulative IPC: 0.352089 (Simulation time: 0 hr 8 min 46 sec) 
Heartbeat CPU 0 instructions: 230000000 cycles: 437050752 heartbeat IPC: 0.359024 cumulative IPC: 0.352613 (Simulation time: 0 hr 9 min 15 sec) 
Heartbeat CPU 0 instructions: 240000000 cycles: 463095095 heartbeat IPC: 0.383961 cumulative IPC: 0.354681 (Simulation time: 0 hr 9 min 44 sec) 
Heartbeat CPU 0 instructions: 250000000 cycles: 493403793 heartbeat IPC: 0.329938 cumulative IPC: 0.352917 (Simulation time: 0 hr 10 min 16 sec) 
Heartbeat CPU 0 instructions: 260000000 cycles: 520616170 heartbeat IPC: 0.36748 cumulative IPC: 0.353793 (Simulation time: 0 hr 10 min 47 sec) 
Heartbeat CPU 0 instructions: 270000003 cycles: 549304131 heartbeat IPC: 0.348578 cumulative IPC: 0.353482 (Simulation time: 0 hr 11 min 18 sec) 
Heartbeat CPU 0 instructions: 280000000 cycles: 577786397 heartbeat IPC: 0.351096 cumulative IPC: 0.353348 (Simulation time: 0 hr 11 min 50 sec) 
Heartbeat CPU 0 instructions: 290000000 cycles: 606895921 heartbeat IPC: 0.34353 cumulative IPC: 0.352818 (Simulation time: 0 hr 12 min 22 sec) 
Heartbeat CPU 0 instructions: 300000000 cycles: 637610728 heartbeat IPC: 0.325576 cumulative IPC: 0.351348 (Simulation time: 0 hr 12 min 53 sec) 
