
*** ChampSim Multicore Out-of-Order Simulator ***

Warmup Instructions: 100000000
Simulation Instructions: 500000000
Number of CPUs: 1
LLC sets: 2048
LLC ways: 16
Clean RRIP Policies: 2213230222132302 Dirty RRIP Policies: 1203130212031302 PSEL Width: 10 Track Set: 4294967295 PSEL Mask: 1 Demote Mask: 2043100020431000DS Algo: 0Window size: 0
Off-chip DRAM Size: 4096 MB Channels: 1 Width: 64-bit Data Rate: 1600 MT/s

CPU 0 runs /mnt/beegfs/iconst01/spec2017/Lbm.trace.gz
NOT SORTED
TRACE STRING: /mnt/beegfs/iconst01/spec2017/Lbm.trace.gz
SORTED
TRACE STRING: /mnt/beegfs/iconst01/spec2017/Lbm.trace.gz
INITIAL
TRACE STRING: /mnt/beegfs/iconst01/spec2017/Lbm.trace.gz

champsim_seed used: 283

CPU 0 L1D next line prefetcher
CPU 0 L2C IP-based stride prefetcher
Initialize DRRIP state
Assign rand_sets[0]: 454  LLC: 2048
rand_sets[0]: 454
Assign rand_sets[1]: 1662  LLC: 2048
rand_sets[1]: 1662
Assign rand_sets[2]: 1921  LLC: 2048
rand_sets[2]: 1921
Assign rand_sets[3]: 1131  LLC: 2048
rand_sets[3]: 1131
Assign rand_sets[4]: 331  LLC: 2048
rand_sets[4]: 331
Assign rand_sets[5]: 1531  LLC: 2048
rand_sets[5]: 1531
Assign rand_sets[6]: 482  LLC: 2048
rand_sets[6]: 482
Assign rand_sets[7]: 1275  LLC: 2048
rand_sets[7]: 1275
Assign rand_sets[8]: 1876  LLC: 2048
rand_sets[8]: 1876
Assign rand_sets[9]: 2038  LLC: 2048
rand_sets[9]: 2038
Assign rand_sets[10]: 701  LLC: 2048
rand_sets[10]: 701
Assign rand_sets[11]: 479  LLC: 2048
rand_sets[11]: 479
Assign rand_sets[12]: 892  LLC: 2048
rand_sets[12]: 892
Assign rand_sets[13]: 1820  LLC: 2048
rand_sets[13]: 1820
Assign rand_sets[14]: 1505  LLC: 2048
rand_sets[14]: 1505
Assign rand_sets[15]: 1159  LLC: 2048
rand_sets[15]: 1159
Assign rand_sets[16]: 513  LLC: 2048
rand_sets[16]: 513
Assign rand_sets[17]: 703  LLC: 2048
rand_sets[17]: 703
Assign rand_sets[18]: 561  LLC: 2048
rand_sets[18]: 561
Assign rand_sets[19]: 990  LLC: 2048
rand_sets[19]: 990
Assign rand_sets[20]: 342  LLC: 2048
rand_sets[20]: 342
Assign rand_sets[21]: 882  LLC: 2048
rand_sets[21]: 882
Assign rand_sets[22]: 15  LLC: 2048
rand_sets[22]: 15
Assign rand_sets[23]: 71  LLC: 2048
rand_sets[23]: 71
Assign rand_sets[24]: 1127  LLC: 2048
rand_sets[24]: 1127
Assign rand_sets[25]: 1382  LLC: 2048
rand_sets[25]: 1382
Assign rand_sets[26]: 647  LLC: 2048
rand_sets[26]: 647
Assign rand_sets[27]: 857  LLC: 2048
rand_sets[27]: 857
Assign rand_sets[28]: 1450  LLC: 2048
rand_sets[28]: 1450
Assign rand_sets[29]: 1160  LLC: 2048
rand_sets[29]: 1160
Assign rand_sets[30]: 1852  LLC: 2048
rand_sets[30]: 1852
Assign rand_sets[31]: 1881  LLC: 2048
rand_sets[31]: 1881
Assign rand_sets[32]: 1770  LLC: 2048
rand_sets[32]: 1770
Assign rand_sets[33]: 1622  LLC: 2048
rand_sets[33]: 1622
Assign rand_sets[34]: 275  LLC: 2048
rand_sets[34]: 275
Assign rand_sets[35]: 635  LLC: 2048
rand_sets[35]: 635
Assign rand_sets[36]: 466  LLC: 2048
rand_sets[36]: 466
Assign rand_sets[37]: 1413  LLC: 2048
rand_sets[37]: 1413
Assign rand_sets[38]: 417  LLC: 2048
rand_sets[38]: 417
Assign rand_sets[39]: 472  LLC: 2048
rand_sets[39]: 472
Assign rand_sets[40]: 1340  LLC: 2048
rand_sets[40]: 1340
Assign rand_sets[41]: 852  LLC: 2048
rand_sets[41]: 852
Assign rand_sets[42]: 1365  LLC: 2048
rand_sets[42]: 1365
Assign rand_sets[43]: 47  LLC: 2048
rand_sets[43]: 47
Assign rand_sets[44]: 823  LLC: 2048
rand_sets[44]: 823
Assign rand_sets[45]: 686  LLC: 2048
rand_sets[45]: 686
Assign rand_sets[46]: 1637  LLC: 2048
rand_sets[46]: 1637
Assign rand_sets[47]: 1115  LLC: 2048
rand_sets[47]: 1115
Assign rand_sets[48]: 986  LLC: 2048
rand_sets[48]: 986
Assign rand_sets[49]: 258  LLC: 2048
rand_sets[49]: 258
Assign rand_sets[50]: 633  LLC: 2048
rand_sets[50]: 633
Assign rand_sets[51]: 920  LLC: 2048
rand_sets[51]: 920
Assign rand_sets[52]: 204  LLC: 2048
rand_sets[52]: 204
Assign rand_sets[53]: 227  LLC: 2048
rand_sets[53]: 227
Assign rand_sets[54]: 1818  LLC: 2048
rand_sets[54]: 1818
Assign rand_sets[55]: 886  LLC: 2048
rand_sets[55]: 886
Assign rand_sets[56]: 1422  LLC: 2048
rand_sets[56]: 1422
Assign rand_sets[57]: 607  LLC: 2048
rand_sets[57]: 607
Assign rand_sets[58]: 217  LLC: 2048
rand_sets[58]: 217
Assign rand_sets[59]: 1945  LLC: 2048
rand_sets[59]: 1945
Assign rand_sets[60]: 143  LLC: 2048
rand_sets[60]: 143
Assign rand_sets[61]: 1311  LLC: 2048
rand_sets[61]: 1311
Assign rand_sets[62]: 319  LLC: 2048
rand_sets[62]: 319
Assign rand_sets[63]: 1846  LLC: 2048
rand_sets[63]: 1846
 CLEAN-RRIP-POLICY-1: 2-2-1-3-2-3-0-2- CLEAN-RRIP-POLICY-2: 2-2-1-3-2-3-0-2-
 DIRTY-RRIP-POLICY-1: 1-2-0-3-1-3-0-2- DIRTY-RRIP-POLICY-2: 1-2-0-3-1-3-0-2-
 PSEL width: 10
Heartbeat CPU 0 instructions: 10000000 cycles: 4321583 heartbeat IPC: 2.31397 cumulative IPC: 2.31397 (Simulation time: 0 hr 0 min 18 sec) 
Heartbeat CPU 0 instructions: 20000000 cycles: 8643600 heartbeat IPC: 2.31373 cumulative IPC: 2.31385 (Simulation time: 0 hr 0 min 36 sec) 
Heartbeat CPU 0 instructions: 30000000 cycles: 12965372 heartbeat IPC: 2.31387 cumulative IPC: 2.31386 (Simulation time: 0 hr 0 min 55 sec) 
Heartbeat CPU 0 instructions: 40000000 cycles: 17291221 heartbeat IPC: 2.31168 cumulative IPC: 2.31331 (Simulation time: 0 hr 1 min 13 sec) 
Heartbeat CPU 0 instructions: 50000000 cycles: 21613083 heartbeat IPC: 2.31382 cumulative IPC: 2.31341 (Simulation time: 0 hr 1 min 32 sec) 
Heartbeat CPU 0 instructions: 60000000 cycles: 25934888 heartbeat IPC: 2.31385 cumulative IPC: 2.31349 (Simulation time: 0 hr 1 min 50 sec) 
Heartbeat CPU 0 instructions: 70000000 cycles: 30256371 heartbeat IPC: 2.31402 cumulative IPC: 2.31356 (Simulation time: 0 hr 2 min 9 sec) 
Heartbeat CPU 0 instructions: 80000000 cycles: 34582570 heartbeat IPC: 2.3115 cumulative IPC: 2.3133 (Simulation time: 0 hr 2 min 27 sec) 
Heartbeat CPU 0 instructions: 90000003 cycles: 38904665 heartbeat IPC: 2.31369 cumulative IPC: 2.31335 (Simulation time: 0 hr 2 min 46 sec) 
Heartbeat CPU 0 instructions: 100000000 cycles: 43226156 heartbeat IPC: 2.31402 cumulative IPC: 2.31341 (Simulation time: 0 hr 3 min 5 sec) 

Warmup complete CPU 0 instructions: 100000001 cycles: 43226157 (Simulation time: 0 hr 3 min 5 sec) 

Heartbeat CPU 0 instructions: 110000000 cycles: 57563442 heartbeat IPC: 0.697482 cumulative IPC: 0.697482 (Simulation time: 0 hr 3 min 31 sec) 
Heartbeat CPU 0 instructions: 120000000 cycles: 71438125 heartbeat IPC: 0.720737 cumulative IPC: 0.708919 (Simulation time: 0 hr 3 min 58 sec) 
Heartbeat CPU 0 instructions: 130000000 cycles: 85560196 heartbeat IPC: 0.708111 cumulative IPC: 0.70865 (Simulation time: 0 hr 4 min 24 sec) 
Heartbeat CPU 0 instructions: 140000000 cycles: 99653784 heartbeat IPC: 0.709543 cumulative IPC: 0.708873 (Simulation time: 0 hr 4 min 51 sec) 
Heartbeat CPU 0 instructions: 150000003 cycles: 113336250 heartbeat IPC: 0.730863 cumulative IPC: 0.713164 (Simulation time: 0 hr 5 min 17 sec) 
Heartbeat CPU 0 instructions: 160000000 cycles: 127219248 heartbeat IPC: 0.720305 cumulative IPC: 0.714344 (Simulation time: 0 hr 5 min 44 sec) 
Heartbeat CPU 0 instructions: 170000002 cycles: 141555125 heartbeat IPC: 0.697551 cumulative IPC: 0.711896 (Simulation time: 0 hr 6 min 11 sec) 
Heartbeat CPU 0 instructions: 180000000 cycles: 155410143 heartbeat IPC: 0.72176 cumulative IPC: 0.713114 (Simulation time: 0 hr 6 min 37 sec) 
Heartbeat CPU 0 instructions: 190000003 cycles: 172019729 heartbeat IPC: 0.602062 cumulative IPC: 0.698793 (Simulation time: 0 hr 7 min 6 sec) 
Heartbeat CPU 0 instructions: 200000000 cycles: 192371842 heartbeat IPC: 0.491349 cumulative IPC: 0.670485 (Simulation time: 0 hr 7 min 39 sec) 
Heartbeat CPU 0 instructions: 210000001 cycles: 206549560 heartbeat IPC: 0.705332 cumulative IPC: 0.67351 (Simulation time: 0 hr 8 min 6 sec) 
Heartbeat CPU 0 instructions: 220000000 cycles: 220241382 heartbeat IPC: 0.730363 cumulative IPC: 0.677908 (Simulation time: 0 hr 8 min 32 sec) 
Heartbeat CPU 0 instructions: 230000001 cycles: 234254978 heartbeat IPC: 0.713593 cumulative IPC: 0.680526 (Simulation time: 0 hr 8 min 59 sec) 
Heartbeat CPU 0 instructions: 240000000 cycles: 248410360 heartbeat IPC: 0.706445 cumulative IPC: 0.682314 (Simulation time: 0 hr 9 min 25 sec) 
Heartbeat CPU 0 instructions: 250000000 cycles: 262790640 heartbeat IPC: 0.695397 cumulative IPC: 0.683171 (Simulation time: 0 hr 9 min 52 sec) 
Heartbeat CPU 0 instructions: 260000000 cycles: 277482535 heartbeat IPC: 0.680647 cumulative IPC: 0.683012 (Simulation time: 0 hr 10 min 20 sec) 
Heartbeat CPU 0 instructions: 270000002 cycles: 292200154 heartbeat IPC: 0.679458 cumulative IPC: 0.682802 (Simulation time: 0 hr 10 min 47 sec) 
Heartbeat CPU 0 instructions: 280000000 cycles: 306991171 heartbeat IPC: 0.676086 cumulative IPC: 0.682426 (Simulation time: 0 hr 11 min 14 sec) 
Heartbeat CPU 0 instructions: 290000003 cycles: 322536830 heartbeat IPC: 0.643267 cumulative IPC: 0.680246 (Simulation time: 0 hr 11 min 42 sec) 
Heartbeat CPU 0 instructions: 300000000 cycles: 337687793 heartbeat IPC: 0.660024 cumulative IPC: 0.679206 (Simulation time: 0 hr 12 min 10 sec) 
Heartbeat CPU 0 instructions: 310000000 cycles: 353546733 heartbeat IPC: 0.630559 cumulative IPC: 0.67672 (Simulation time: 0 hr 12 min 38 sec) 
Heartbeat CPU 0 instructions: 320000000 cycles: 369110421 heartbeat IPC: 0.642521 cumulative IPC: 0.675086 (Simulation time: 0 hr 13 min 5 sec) 
Heartbeat CPU 0 instructions: 330000002 cycles: 383965898 heartbeat IPC: 0.673153 cumulative IPC: 0.675002 (Simulation time: 0 hr 13 min 32 sec) 
Heartbeat CPU 0 instructions: 340000000 cycles: 399916788 heartbeat IPC: 0.626924 cumulative IPC: 0.672852 (Simulation time: 0 hr 13 min 59 sec) 
Heartbeat CPU 0 instructions: 350000001 cycles: 414256168 heartbeat IPC: 0.69738 cumulative IPC: 0.6738 (Simulation time: 0 hr 14 min 26 sec) 
Heartbeat CPU 0 instructions: 360000000 cycles: 429610237 heartbeat IPC: 0.651293 cumulative IPC: 0.672906 (Simulation time: 0 hr 14 min 53 sec) 
Heartbeat CPU 0 instructions: 370000000 cycles: 444187950 heartbeat IPC: 0.685979 cumulative IPC: 0.673381 (Simulation time: 0 hr 15 min 19 sec) 
Heartbeat CPU 0 instructions: 380000000 cycles: 459246116 heartbeat IPC: 0.664091 cumulative IPC: 0.673045 (Simulation time: 0 hr 15 min 46 sec) 
Heartbeat CPU 0 instructions: 390000000 cycles: 473513276 heartbeat IPC: 0.70091 cumulative IPC: 0.673969 (Simulation time: 0 hr 16 min 12 sec) 
Heartbeat CPU 0 instructions: 400000000 cycles: 487703579 heartbeat IPC: 0.704707 cumulative IPC: 0.67495 (Simulation time: 0 hr 16 min 38 sec) 
Heartbeat CPU 0 instructions: 410000000 cycles: 501495034 heartbeat IPC: 0.725087 cumulative IPC: 0.676459 (Simulation time: 0 hr 17 min 3 sec) 
Heartbeat CPU 0 instructions: 420000000 cycles: 515671910 heartbeat IPC: 0.705374 cumulative IPC: 0.677326 (Simulation time: 0 hr 17 min 28 sec) 
Heartbeat CPU 0 instructions: 430000002 cycles: 529153638 heartbeat IPC: 0.741745 cumulative IPC: 0.679114 (Simulation time: 0 hr 17 min 53 sec) 
Heartbeat CPU 0 instructions: 440000000 cycles: 542787984 heartbeat IPC: 0.733442 cumulative IPC: 0.680596 (Simulation time: 0 hr 18 min 18 sec) 
Heartbeat CPU 0 instructions: 450000000 cycles: 556547010 heartbeat IPC: 0.726796 cumulative IPC: 0.681835 (Simulation time: 0 hr 18 min 43 sec) 
Heartbeat CPU 0 instructions: 460000000 cycles: 571164796 heartbeat IPC: 0.684098 cumulative IPC: 0.681897 (Simulation time: 0 hr 19 min 9 sec) 
Heartbeat CPU 0 instructions: 470000000 cycles: 585054220 heartbeat IPC: 0.719972 cumulative IPC: 0.682873 (Simulation time: 0 hr 19 min 34 sec) 
Heartbeat CPU 0 instructions: 480000000 cycles: 599063690 heartbeat IPC: 0.713803 cumulative IPC: 0.683653 (Simulation time: 0 hr 19 min 59 sec) 
Heartbeat CPU 0 instructions: 490000001 cycles: 613503291 heartbeat IPC: 0.69254 cumulative IPC: 0.683878 (Simulation time: 0 hr 20 min 25 sec) 
Heartbeat CPU 0 instructions: 500000000 cycles: 627709934 heartbeat IPC: 0.703896 cumulative IPC: 0.684365 (Simulation time: 0 hr 20 min 50 sec) 
Heartbeat CPU 0 instructions: 510000002 cycles: 641472764 heartbeat IPC: 0.726595 cumulative IPC: 0.685336 (Simulation time: 0 hr 21 min 15 sec) 
Heartbeat CPU 0 instructions: 520000000 cycles: 655220493 heartbeat IPC: 0.727393 cumulative IPC: 0.686281 (Simulation time: 0 hr 21 min 40 sec) 
Heartbeat CPU 0 instructions: 530000001 cycles: 669106589 heartbeat IPC: 0.720145 cumulative IPC: 0.687032 (Simulation time: 0 hr 22 min 5 sec) 
Heartbeat CPU 0 instructions: 540000000 cycles: 683321619 heartbeat IPC: 0.703481 cumulative IPC: 0.687397 (Simulation time: 0 hr 22 min 30 sec) 
Heartbeat CPU 0 instructions: 550000003 cycles: 697001960 heartbeat IPC: 0.730976 cumulative IPC: 0.688309 (Simulation time: 0 hr 22 min 55 sec) 
Heartbeat CPU 0 instructions: 560000000 cycles: 711549758 heartbeat IPC: 0.687389 cumulative IPC: 0.688289 (Simulation time: 0 hr 23 min 21 sec) 
Heartbeat CPU 0 instructions: 570000001 cycles: 725570974 heartbeat IPC: 0.713205 cumulative IPC: 0.688801 (Simulation time: 0 hr 23 min 46 sec) 
Heartbeat CPU 0 instructions: 580000000 cycles: 739139874 heartbeat IPC: 0.736979 cumulative IPC: 0.689741 (Simulation time: 0 hr 24 min 11 sec) 
Heartbeat CPU 0 instructions: 590000003 cycles: 752335277 heartbeat IPC: 0.75784 cumulative IPC: 0.691008 (Simulation time: 0 hr 24 min 36 sec) 
Heartbeat CPU 0 instructions: 600000000 cycles: 766139091 heartbeat IPC: 0.724437 cumulative IPC: 0.691646 (Simulation time: 0 hr 25 min 1 sec) 
Finished CPU 0 instructions: 500000000 cycles: 722912942 cumulative IPC: 0.691646 (Simulation time: 0 hr 25 min 1 sec) 

CPU 0 Branch Prediction Accuracy: 99.5915% MPKI: 0.037126
Number of Branches: 4544106 Number of Mispredictions: 18563
Number of LOAD Instructions: 149787067
Number of LOAD Instructions (ROI): 149787067
Number of STORE Instructions: 77239062
Number of STORE Instructions (ROI): 77239062
Total Destination Memory Operands: 77239062
Total Destination Memory Operands (ROI): 77239062
Total Source Memory Operands: 149787067
Total Source Memory Operands (ROI): 149787067
Number of DEPENDED LOADS: 19246875
Number of DEPENDED LOADS (ROI): 19246875
Number of SQ_ADDED: 77239036
Number of SQ_ADDED (ROI): 77239036
Number of LQ_ADDED: 149787020
Number of LQ_ADDED (ROI): 149787020
Number of Instructions read from trace: 600000256

ChampSim completed all CPUs

Region of Interest Statistics

CPU 0 cumulative IPC: 0.691646 instructions: 500000000 cycles: 722912942
ITLB TOTAL     ACCESS:   86453029  HIT:   86453028  MISS:          1
ITLB LOAD      ACCESS:   86453029  HIT:   86453028  MISS:          1
ITLB RFO       ACCESS:          0  HIT:          0  MISS:          0
ITLB PREFETCH  ACCESS:          0  HIT:          0  MISS:          0
ITLB WRITEBACK ACCESS:          0  HIT:          0  MISS:          0
ITLB PREFETCH  REQUESTED:          0  ISSUED:          0  USEFUL:          0  USELESS:          0
ITLB TOTAL MSHR MERGED:          1
ITLB LOAD MSHR MERGED:          1
ITLB RFO MSHR MERGED:          0
ITLB PREFETCH MSHR MERGED:          0
ITLB WRITEBACK MSHR MERGED:          0
ITLB TOTAL ACCESSES:   86453030 HITS:   86453028 MISSES:          2
ITLB LOAD ACCESSES:   86453030 HITS:   86453028 MISSES:          2
ITLB RFO ACCESSES:          0 HITS:          0 MISSES:          0
ITLB PREFETCH ACCESSES:          0 HITS:          0 MISSES:          0
ITLB WRITEBACK ACCESSES:          0 HITS:          0 MISSES:          0
ITLB RQ ACCESS:  500000002
ITLB RQ TO_CACHE:   86453030
ITLB RQ MERGED:  413546972
ITLB RQ FORWARD:          0
ITLB WQ ACCESS:          0
ITLB WQ TO_CACHE:          0
ITLB WQ MERGED:          0
ITLB WQ FORWARD:          0
DTLB TOTAL     ACCESS:   98109586  HIT:   97924325  MISS:     185261
DTLB LOAD      ACCESS:   55041275  HIT:   54994964  MISS:      46311
DTLB RFO       ACCESS:   43068311  HIT:   42929361  MISS:     138950
DTLB PREFETCH  ACCESS:          0  HIT:          0  MISS:          0
DTLB WRITEBACK ACCESS:          0  HIT:          0  MISS:          0
DTLB PREFETCH  REQUESTED:          0  ISSUED:          0  USEFUL:          0  USELESS:          0
DTLB TOTAL MSHR MERGED:      83573
DTLB LOAD MSHR MERGED:      83567
DTLB RFO MSHR MERGED:          6
DTLB PREFETCH MSHR MERGED:          0
DTLB WRITEBACK MSHR MERGED:          0
DTLB TOTAL ACCESSES:   98193159 HITS:   97924325 MISSES:     268834
DTLB LOAD ACCESSES:   55124842 HITS:   54994964 MISSES:     129878
DTLB RFO ACCESSES:   43068317 HITS:   42929361 MISSES:     138956
DTLB PREFETCH ACCESSES:          0 HITS:          0 MISSES:          0
DTLB WRITEBACK ACCESSES:          0 HITS:          0 MISSES:          0
DTLB RQ ACCESS:  173635652
DTLB RQ TO_CACHE:   98193159
DTLB RQ MERGED:   75442493
DTLB RQ FORWARD:          0
DTLB WQ ACCESS:          0
DTLB WQ TO_CACHE:          0
DTLB WQ MERGED:          0
DTLB WQ FORWARD:          0
L1D TOTAL     ACCESS:  164609372  HIT:  145036821  MISS:   19572551
L1D LOAD      ACCESS:   60570585  HIT:   58718782  MISS:    1851803
L1D RFO       ACCESS:   64514120  HIT:   47911980  MISS:   16602140
L1D PREFETCH  ACCESS:   39524667  HIT:   38406059  MISS:    1118608
L1D WRITEBACK ACCESS:          0  HIT:          0  MISS:          0
L1D PREFETCH  REQUESTED:   61770303  ISSUED:   61477720  USEFUL:    1116696  USELESS:       1913
L1D TOTAL MSHR MERGED:    3544406
L1D LOAD MSHR MERGED:    1271325
L1D RFO MSHR MERGED:      11613
L1D PREFETCH MSHR MERGED:    2261468
L1D WRITEBACK MSHR MERGED:          0
L1D TOTAL ACCESSES:  168711869 HITS:  145594912 MISSES:   23116957
L1D LOAD ACCESSES:   62021151 HITS:   58969630 MISSES:    3051521
L1D RFO ACCESSES:   64525694 HITS:   47911980 MISSES:   16613714
L1D PREFETCH ACCESSES:   42165024 HITS:   38713302 MISSES:    3451722
L1D WRITEBACK ACCESSES:          0 HITS:          0 MISSES:          0
L1D RQ ACCESS:  109094337
L1D RQ TO_CACHE:   61770303
L1D RQ MERGED:   47073186
L1D RQ FORWARD:          0
L1D WQ ACCESS:   64541313
L1D WQ TO_CACHE:   64525695
L1D WQ MERGED:      15618
L1D WQ FORWARD:     558091
L1I TOTAL     ACCESS:  107762926  HIT:  107762918  MISS:          8
L1I LOAD      ACCESS:  107762926  HIT:  107762918  MISS:          8
L1I RFO       ACCESS:          0  HIT:          0  MISS:          0
L1I PREFETCH  ACCESS:          0  HIT:          0  MISS:          0
L1I WRITEBACK ACCESS:          0  HIT:          0  MISS:          0
L1I PREFETCH  REQUESTED:          0  ISSUED:          0  USEFUL:          0  USELESS:          0
L1I TOTAL MSHR MERGED:          3
L1I LOAD MSHR MERGED:          3
L1I RFO MSHR MERGED:          0
L1I PREFETCH MSHR MERGED:          0
L1I WRITEBACK MSHR MERGED:          0
L1I TOTAL ACCESSES:  107762929 HITS:  107762918 MISSES:         11
L1I LOAD ACCESSES:  107762929 HITS:  107762918 MISSES:         11
L1I RFO ACCESSES:          0 HITS:          0 MISSES:          0
L1I PREFETCH ACCESSES:          0 HITS:          0 MISSES:          0
L1I WRITEBACK ACCESSES:          0 HITS:          0 MISSES:          0
L1I RQ ACCESS:  500000007
L1I RQ TO_CACHE:  107762929
L1I RQ MERGED:  392237078
L1I RQ FORWARD:          0
L1I WQ ACCESS:          0
L1I WQ TO_CACHE:          0
L1I WQ MERGED:          0
L1I WQ FORWARD:          0
L2C TOTAL     ACCESS:   36814682  HIT:   24857094  MISS:   11957588
L2C LOAD      ACCESS:    1780204  HIT:     257930  MISS:    1522274
L2C RFO       ACCESS:   16602099  HIT:    7610718  MISS:    8991381
L2C PREFETCH  ACCESS:    1830196  HIT:     387491  MISS:    1442705
L2C WRITEBACK ACCESS:   16602183  HIT:   16600955  MISS:       1228
L2C PREFETCH  REQUESTED:     816020  ISSUED:     816020  USEFUL:     255619  USELESS:    1187367
L2C TOTAL MSHR MERGED:       2931
L2C LOAD MSHR MERGED:        660
L2C RFO MSHR MERGED:          0
L2C PREFETCH MSHR MERGED:       2271
L2C WRITEBACK MSHR MERGED:          0
L2C TOTAL ACCESSES:   36990679 HITS:   24857097 MISSES:   12133582
L2C LOAD ACCESSES:    1780204 HITS:     257930 MISSES:    1522274
L2C RFO ACCESSES:   16602101 HITS:    7610721 MISSES:    8991380
L2C PREFETCH ACCESSES:    2006191 HITS:     387491 MISSES:    1618700
L2C WRITEBACK ACCESSES:   16602183 HITS:   16600955 MISSES:       1228
L2C RQ ACCESS:   18382305
L2C RQ TO_CACHE:   18382302
L2C RQ MERGED:          0
L2C RQ FORWARD:          0
L2C WQ ACCESS:   16602183
L2C WQ TO_CACHE:   16602183
L2C WQ MERGED:          0
L2C WQ FORWARD:          3
LLC TOTAL     ACCESS:   21118650  HIT:    2091097  MISS:   19027553
LLC LOAD      ACCESS:    1521614  HIT:      62841  MISS:    1458773
LLC RFO       ACCESS:    8991369  HIT:     871912  MISS:    8119457
LLC PREFETCH  ACCESS:    1613464  HIT:     107294  MISS:    1506170
LLC WRITEBACK ACCESS:    8992203  HIT:    1049050  MISS:    7943153
LLC PREFETCH  REQUESTED:          0  ISSUED:          0  USEFUL:      62310  USELESS:    1443753
LLC TOTAL MSHR MERGED:       2595
LLC LOAD MSHR MERGED:        193
LLC RFO MSHR MERGED:          0
LLC PREFETCH MSHR MERGED:       2402
LLC WRITEBACK MSHR MERGED:          0
LLC TOTAL ACCESSES:   21121257 HITS:    2091109 MISSES:   19030148
LLC LOAD ACCESSES:    1521614 HITS:      62841 MISSES:    1458773
LLC RFO ACCESSES:    8991380 HITS:     871924 MISSES:    8119456
LLC PREFETCH ACCESSES:    1616060 HITS:     107294 MISSES:    1508766
LLC WRITEBACK ACCESSES:    8992203 HITS:    1049050 MISSES:    7943153
LLC 0 RQ ACCESS:   10512994
LLC 0 RQ TO_CACHE:   10512982
LLC 0 RQ MERGED:          0
LLC 0 RQ FORWARD:          0
LLC WQ ACCESS:    8992203
LLC WQ TO_CACHE:    8992203
LLC WQ MERGED:          0
LLC WQ FORWARD:         12
Major fault: 0 Minor fault: 102360
CPU 0 L1D next line prefetcher final stats
CPU 0 L2C PC-based stride prefetcher final stats
All Misses: 22676469
All Hits: 2417692
SD Algo Stats - Switches: 0 SRR-Repls: 1637396 BRR-Repls: 0

DRAM Statistics
 CHANNEL 0
 RQ ROW_BUFFER_HIT:    3719110  ROW_BUFFER_MISS:    7363500
 DBUS_CONGESTED:   13142980
 WQ ROW_BUFFER_HIT:    1303863  ROW_BUFFER_MISS:    6846476  FULL:          0

 AVG_CONGESTED_CYCLE: 13
LOADS RETIRED: 124982196
INSTR RETIRED: 500000000
