
*** ChampSim Multicore Out-of-Order Simulator ***

Warmup Instructions: 100000000
Simulation Instructions: 500000000
Number of CPUs: 1
LLC sets: 2048
LLC ways: 16
Clean RRIP Policies: 1102231011022310 Dirty RRIP Policies: 1112031011120310 PSEL Width: 10 Track Set: 4294967295 PSEL Mask: 1 Demote Mask: 23012100230121DS Algo: 0Window size: 0
Off-chip DRAM Size: 4096 MB Channels: 1 Width: 64-bit Data Rate: 1600 MT/s

CPU 0 runs /mnt/beegfs/iconst01/spec2017/Gcc.trace.gz
NOT SORTED
TRACE STRING: /mnt/beegfs/iconst01/spec2017/Gcc.trace.gz
SORTED
TRACE STRING: /mnt/beegfs/iconst01/spec2017/Gcc.trace.gz
INITIAL
TRACE STRING: /mnt/beegfs/iconst01/spec2017/Gcc.trace.gz

champsim_seed used: 269

CPU 0 L1D next line prefetcher
CPU 0 L2C IP-based stride prefetcher
Initialize DRRIP state
Assign rand_sets[0]: 454  LLC: 2048
rand_sets[0]: 454
Assign rand_sets[1]: 1662  LLC: 2048
rand_sets[1]: 1662
Assign rand_sets[2]: 1921  LLC: 2048
rand_sets[2]: 1921
Assign rand_sets[3]: 1131  LLC: 2048
rand_sets[3]: 1131
Assign rand_sets[4]: 331  LLC: 2048
rand_sets[4]: 331
Assign rand_sets[5]: 1531  LLC: 2048
rand_sets[5]: 1531
Assign rand_sets[6]: 482  LLC: 2048
rand_sets[6]: 482
Assign rand_sets[7]: 1275  LLC: 2048
rand_sets[7]: 1275
Assign rand_sets[8]: 1876  LLC: 2048
rand_sets[8]: 1876
Assign rand_sets[9]: 2038  LLC: 2048
rand_sets[9]: 2038
Assign rand_sets[10]: 701  LLC: 2048
rand_sets[10]: 701
Assign rand_sets[11]: 479  LLC: 2048
rand_sets[11]: 479
Assign rand_sets[12]: 892  LLC: 2048
rand_sets[12]: 892
Assign rand_sets[13]: 1820  LLC: 2048
rand_sets[13]: 1820
Assign rand_sets[14]: 1505  LLC: 2048
rand_sets[14]: 1505
Assign rand_sets[15]: 1159  LLC: 2048
rand_sets[15]: 1159
Assign rand_sets[16]: 513  LLC: 2048
rand_sets[16]: 513
Assign rand_sets[17]: 703  LLC: 2048
rand_sets[17]: 703
Assign rand_sets[18]: 561  LLC: 2048
rand_sets[18]: 561
Assign rand_sets[19]: 990  LLC: 2048
rand_sets[19]: 990
Assign rand_sets[20]: 342  LLC: 2048
rand_sets[20]: 342
Assign rand_sets[21]: 882  LLC: 2048
rand_sets[21]: 882
Assign rand_sets[22]: 15  LLC: 2048
rand_sets[22]: 15
Assign rand_sets[23]: 71  LLC: 2048
rand_sets[23]: 71
Assign rand_sets[24]: 1127  LLC: 2048
rand_sets[24]: 1127
Assign rand_sets[25]: 1382  LLC: 2048
rand_sets[25]: 1382
Assign rand_sets[26]: 647  LLC: 2048
rand_sets[26]: 647
Assign rand_sets[27]: 857  LLC: 2048
rand_sets[27]: 857
Assign rand_sets[28]: 1450  LLC: 2048
rand_sets[28]: 1450
Assign rand_sets[29]: 1160  LLC: 2048
rand_sets[29]: 1160
Assign rand_sets[30]: 1852  LLC: 2048
rand_sets[30]: 1852
Assign rand_sets[31]: 1881  LLC: 2048
rand_sets[31]: 1881
Assign rand_sets[32]: 1770  LLC: 2048
rand_sets[32]: 1770
Assign rand_sets[33]: 1622  LLC: 2048
rand_sets[33]: 1622
Assign rand_sets[34]: 275  LLC: 2048
rand_sets[34]: 275
Assign rand_sets[35]: 635  LLC: 2048
rand_sets[35]: 635
Assign rand_sets[36]: 466  LLC: 2048
rand_sets[36]: 466
Assign rand_sets[37]: 1413  LLC: 2048
rand_sets[37]: 1413
Assign rand_sets[38]: 417  LLC: 2048
rand_sets[38]: 417
Assign rand_sets[39]: 472  LLC: 2048
rand_sets[39]: 472
Assign rand_sets[40]: 1340  LLC: 2048
rand_sets[40]: 1340
Assign rand_sets[41]: 852  LLC: 2048
rand_sets[41]: 852
Assign rand_sets[42]: 1365  LLC: 2048
rand_sets[42]: 1365
Assign rand_sets[43]: 47  LLC: 2048
rand_sets[43]: 47
Assign rand_sets[44]: 823  LLC: 2048
rand_sets[44]: 823
Assign rand_sets[45]: 686  LLC: 2048
rand_sets[45]: 686
Assign rand_sets[46]: 1637  LLC: 2048
rand_sets[46]: 1637
Assign rand_sets[47]: 1115  LLC: 2048
rand_sets[47]: 1115
Assign rand_sets[48]: 986  LLC: 2048
rand_sets[48]: 986
Assign rand_sets[49]: 258  LLC: 2048
rand_sets[49]: 258
Assign rand_sets[50]: 633  LLC: 2048
rand_sets[50]: 633
Assign rand_sets[51]: 920  LLC: 2048
rand_sets[51]: 920
Assign rand_sets[52]: 204  LLC: 2048
rand_sets[52]: 204
Assign rand_sets[53]: 227  LLC: 2048
rand_sets[53]: 227
Assign rand_sets[54]: 1818  LLC: 2048
rand_sets[54]: 1818
Assign rand_sets[55]: 886  LLC: 2048
rand_sets[55]: 886
Assign rand_sets[56]: 1422  LLC: 2048
rand_sets[56]: 1422
Assign rand_sets[57]: 607  LLC: 2048
rand_sets[57]: 607
Assign rand_sets[58]: 217  LLC: 2048
rand_sets[58]: 217
Assign rand_sets[59]: 1945  LLC: 2048
rand_sets[59]: 1945
Assign rand_sets[60]: 143  LLC: 2048
rand_sets[60]: 143
Assign rand_sets[61]: 1311  LLC: 2048
rand_sets[61]: 1311
Assign rand_sets[62]: 319  LLC: 2048
rand_sets[62]: 319
Assign rand_sets[63]: 1846  LLC: 2048
rand_sets[63]: 1846
 CLEAN-RRIP-POLICY-1: 1-1-0-2-2-3-1-0- CLEAN-RRIP-POLICY-2: 1-1-0-2-2-3-1-0-
 DIRTY-RRIP-POLICY-1: 1-1-1-2-0-3-1-0- DIRTY-RRIP-POLICY-2: 1-1-1-2-0-3-1-0-
 PSEL width: 10
Heartbeat CPU 0 instructions: 10000001 cycles: 7315918 heartbeat IPC: 1.36688 cumulative IPC: 1.36688 (Simulation time: 0 hr 0 min 20 sec) 
Heartbeat CPU 0 instructions: 20000000 cycles: 14307646 heartbeat IPC: 1.43026 cumulative IPC: 1.39785 (Simulation time: 0 hr 0 min 40 sec) 
Heartbeat CPU 0 instructions: 30000001 cycles: 21020966 heartbeat IPC: 1.48958 cumulative IPC: 1.42715 (Simulation time: 0 hr 1 min 2 sec) 
Heartbeat CPU 0 instructions: 40000000 cycles: 27481879 heartbeat IPC: 1.54777 cumulative IPC: 1.4555 (Simulation time: 0 hr 1 min 24 sec) 
Heartbeat CPU 0 instructions: 50000001 cycles: 33583731 heartbeat IPC: 1.63885 cumulative IPC: 1.48882 (Simulation time: 0 hr 1 min 44 sec) 
Heartbeat CPU 0 instructions: 60000000 cycles: 40064971 heartbeat IPC: 1.54291 cumulative IPC: 1.49757 (Simulation time: 0 hr 2 min 6 sec) 
Heartbeat CPU 0 instructions: 70000000 cycles: 47104487 heartbeat IPC: 1.42055 cumulative IPC: 1.48606 (Simulation time: 0 hr 2 min 26 sec) 
Heartbeat CPU 0 instructions: 80000000 cycles: 54194565 heartbeat IPC: 1.41042 cumulative IPC: 1.47616 (Simulation time: 0 hr 2 min 47 sec) 
Heartbeat CPU 0 instructions: 90000003 cycles: 61199471 heartbeat IPC: 1.42757 cumulative IPC: 1.4706 (Simulation time: 0 hr 3 min 7 sec) 
Heartbeat CPU 0 instructions: 100000000 cycles: 68367317 heartbeat IPC: 1.39512 cumulative IPC: 1.46269 (Simulation time: 0 hr 3 min 27 sec) 

Warmup complete CPU 0 instructions: 100000004 cycles: 68367318 (Simulation time: 0 hr 3 min 27 sec) 

Heartbeat CPU 0 instructions: 110000003 cycles: 96172067 heartbeat IPC: 0.359651 cumulative IPC: 0.359651 (Simulation time: 0 hr 4 min 7 sec) 
Heartbeat CPU 0 instructions: 120000000 cycles: 123681844 heartbeat IPC: 0.363507 cumulative IPC: 0.361569 (Simulation time: 0 hr 4 min 48 sec) 
Heartbeat CPU 0 instructions: 130000000 cycles: 148705342 heartbeat IPC: 0.399624 cumulative IPC: 0.373422 (Simulation time: 0 hr 5 min 28 sec) 
Heartbeat CPU 0 instructions: 140000000 cycles: 178398876 heartbeat IPC: 0.336774 cumulative IPC: 0.363532 (Simulation time: 0 hr 6 min 8 sec) 
Heartbeat CPU 0 instructions: 150000000 cycles: 208375336 heartbeat IPC: 0.333595 cumulative IPC: 0.357122 (Simulation time: 0 hr 6 min 48 sec) 
Heartbeat CPU 0 instructions: 160000000 cycles: 235824669 heartbeat IPC: 0.364308 cumulative IPC: 0.3583 (Simulation time: 0 hr 7 min 27 sec) 
Heartbeat CPU 0 instructions: 170000001 cycles: 263985269 heartbeat IPC: 0.355106 cumulative IPC: 0.35784 (Simulation time: 0 hr 8 min 8 sec) 
Heartbeat CPU 0 instructions: 180000000 cycles: 292562236 heartbeat IPC: 0.349932 cumulative IPC: 0.356832 (Simulation time: 0 hr 8 min 49 sec) 
Heartbeat CPU 0 instructions: 190000002 cycles: 320752245 heartbeat IPC: 0.354736 cumulative IPC: 0.356598 (Simulation time: 0 hr 9 min 30 sec) 
Heartbeat CPU 0 instructions: 200000000 cycles: 349166409 heartbeat IPC: 0.351937 cumulative IPC: 0.356126 (Simulation time: 0 hr 10 min 11 sec) 
Heartbeat CPU 0 instructions: 210000002 cycles: 377090660 heartbeat IPC: 0.358112 cumulative IPC: 0.356306 (Simulation time: 0 hr 10 min 52 sec) 
Heartbeat CPU 0 instructions: 220000000 cycles: 406348248 heartbeat IPC: 0.341792 cumulative IPC: 0.35505 (Simulation time: 0 hr 11 min 30 sec) 
Heartbeat CPU 0 instructions: 230000000 cycles: 433977576 heartbeat IPC: 0.361934 cumulative IPC: 0.35557 (Simulation time: 0 hr 12 min 10 sec) 
Heartbeat CPU 0 instructions: 240000000 cycles: 459944815 heartbeat IPC: 0.385101 cumulative IPC: 0.357528 (Simulation time: 0 hr 12 min 47 sec) 
Heartbeat CPU 0 instructions: 250000000 cycles: 490145927 heartbeat IPC: 0.331114 cumulative IPC: 0.355637 (Simulation time: 0 hr 13 min 30 sec) 
Heartbeat CPU 0 instructions: 260000000 cycles: 517321451 heartbeat IPC: 0.367978 cumulative IPC: 0.356384 (Simulation time: 0 hr 14 min 9 sec) 
Heartbeat CPU 0 instructions: 270000003 cycles: 545899731 heartbeat IPC: 0.349916 cumulative IPC: 0.355997 (Simulation time: 0 hr 14 min 51 sec) 
Heartbeat CPU 0 instructions: 280000000 cycles: 574220583 heartbeat IPC: 0.353097 cumulative IPC: 0.355834 (Simulation time: 0 hr 15 min 32 sec) 
Heartbeat CPU 0 instructions: 290000000 cycles: 603153185 heartbeat IPC: 0.345631 cumulative IPC: 0.355282 (Simulation time: 0 hr 16 min 14 sec) 
Heartbeat CPU 0 instructions: 300000000 cycles: 633269500 heartbeat IPC: 0.332046 cumulative IPC: 0.354044 (Simulation time: 0 hr 16 min 54 sec) 
Heartbeat CPU 0 instructions: 310000001 cycles: 662724024 heartbeat IPC: 0.339506 cumulative IPC: 0.353323 (Simulation time: 0 hr 17 min 34 sec) 
Heartbeat CPU 0 instructions: 320000000 cycles: 691082436 heartbeat IPC: 0.352629 cumulative IPC: 0.353292 (Simulation time: 0 hr 18 min 13 sec) 
Heartbeat CPU 0 instructions: 330000000 cycles: 719841502 heartbeat IPC: 0.347716 cumulative IPC: 0.353045 (Simulation time: 0 hr 18 min 53 sec) 
Heartbeat CPU 0 instructions: 340000000 cycles: 749238239 heartbeat IPC: 0.340174 cumulative IPC: 0.35249 (Simulation time: 0 hr 19 min 33 sec) 
Heartbeat CPU 0 instructions: 350000003 cycles: 776342419 heartbeat IPC: 0.368947 cumulative IPC: 0.35312 (Simulation time: 0 hr 20 min 13 sec) 
Heartbeat CPU 0 instructions: 360000000 cycles: 804557627 heartbeat IPC: 0.354419 cumulative IPC: 0.35317 (Simulation time: 0 hr 20 min 51 sec) 
Heartbeat CPU 0 instructions: 370000000 cycles: 832759149 heartbeat IPC: 0.354591 cumulative IPC: 0.353222 (Simulation time: 0 hr 21 min 30 sec) 
Heartbeat CPU 0 instructions: 380000000 cycles: 861311393 heartbeat IPC: 0.350235 cumulative IPC: 0.353114 (Simulation time: 0 hr 22 min 9 sec) 
Heartbeat CPU 0 instructions: 390000001 cycles: 888930140 heartbeat IPC: 0.362073 cumulative IPC: 0.353416 (Simulation time: 0 hr 22 min 47 sec) 
Heartbeat CPU 0 instructions: 400000000 cycles: 917604093 heartbeat IPC: 0.348749 cumulative IPC: 0.353258 (Simulation time: 0 hr 23 min 25 sec) 
Heartbeat CPU 0 instructions: 410000001 cycles: 944894385 heartbeat IPC: 0.366431 cumulative IPC: 0.353668 (Simulation time: 0 hr 24 min 4 sec) 
Heartbeat CPU 0 instructions: 420000000 cycles: 972181262 heartbeat IPC: 0.366477 cumulative IPC: 0.354055 (Simulation time: 0 hr 24 min 42 sec) 
Heartbeat CPU 0 instructions: 430000002 cycles: 999888802 heartbeat IPC: 0.360913 cumulative IPC: 0.354259 (Simulation time: 0 hr 25 min 20 sec) 
Heartbeat CPU 0 instructions: 440000000 cycles: 1029529853 heartbeat IPC: 0.33737 cumulative IPC: 0.353738 (Simulation time: 0 hr 25 min 59 sec) 
Heartbeat CPU 0 instructions: 450000002 cycles: 1058850289 heartbeat IPC: 0.341059 cumulative IPC: 0.353363 (Simulation time: 0 hr 26 min 37 sec) 
Heartbeat CPU 0 instructions: 460000000 cycles: 1086554572 heartbeat IPC: 0.360955 cumulative IPC: 0.35357 (Simulation time: 0 hr 27 min 15 sec) 
Heartbeat CPU 0 instructions: 470000000 cycles: 1114178430 heartbeat IPC: 0.362006 cumulative IPC: 0.353792 (Simulation time: 0 hr 27 min 53 sec) 
Heartbeat CPU 0 instructions: 480000000 cycles: 1142057397 heartbeat IPC: 0.358693 cumulative IPC: 0.35392 (Simulation time: 0 hr 28 min 32 sec) 
Heartbeat CPU 0 instructions: 490000000 cycles: 1169634436 heartbeat IPC: 0.362621 cumulative IPC: 0.354138 (Simulation time: 0 hr 29 min 10 sec) 
Heartbeat CPU 0 instructions: 500000000 cycles: 1197953741 heartbeat IPC: 0.353116 cumulative IPC: 0.354112 (Simulation time: 0 hr 29 min 48 sec) 
Heartbeat CPU 0 instructions: 510000000 cycles: 1233216350 heartbeat IPC: 0.283587 cumulative IPC: 0.351977 (Simulation time: 0 hr 30 min 32 sec) 
Heartbeat CPU 0 instructions: 520000000 cycles: 1261246473 heartbeat IPC: 0.356759 cumulative IPC: 0.352089 (Simulation time: 0 hr 31 min 12 sec) 
Heartbeat CPU 0 instructions: 530000001 cycles: 1290703388 heartbeat IPC: 0.339479 cumulative IPC: 0.351785 (Simulation time: 0 hr 31 min 52 sec) 
Heartbeat CPU 0 instructions: 540000000 cycles: 1318834842 heartbeat IPC: 0.355474 cumulative IPC: 0.351868 (Simulation time: 0 hr 32 min 32 sec) 
Heartbeat CPU 0 instructions: 550000001 cycles: 1348089182 heartbeat IPC: 0.34183 cumulative IPC: 0.351639 (Simulation time: 0 hr 33 min 13 sec) 
Heartbeat CPU 0 instructions: 560000000 cycles: 1373526937 heartbeat IPC: 0.393116 cumulative IPC: 0.352447 (Simulation time: 0 hr 33 min 52 sec) 
Heartbeat CPU 0 instructions: 570000000 cycles: 1403278388 heartbeat IPC: 0.336118 cumulative IPC: 0.352083 (Simulation time: 0 hr 34 min 33 sec) 
Heartbeat CPU 0 instructions: 580000000 cycles: 1431343545 heartbeat IPC: 0.356314 cumulative IPC: 0.35217 (Simulation time: 0 hr 35 min 13 sec) 
Heartbeat CPU 0 instructions: 590000001 cycles: 1456111625 heartbeat IPC: 0.403746 cumulative IPC: 0.353091 (Simulation time: 0 hr 35 min 50 sec) 
Heartbeat CPU 0 instructions: 600000000 cycles: 1482243750 heartbeat IPC: 0.382671 cumulative IPC: 0.353638 (Simulation time: 0 hr 36 min 28 sec) 
Finished CPU 0 instructions: 500000000 cycles: 1413876454 cumulative IPC: 0.353638 (Simulation time: 0 hr 36 min 28 sec) 

CPU 0 Branch Prediction Accuracy: 86.4311% MPKI: 26.2662
Number of Branches: 96788573 Number of Mispredictions: 13133102
Number of LOAD Instructions: 164682285
Number of LOAD Instructions (ROI): 164682285
Number of STORE Instructions: 78194750
Number of STORE Instructions (ROI): 78194750
Total Destination Memory Operands: 83268534
Total Destination Memory Operands (ROI): 83268534
Total Source Memory Operands: 164712438
Total Source Memory Operands (ROI): 164712438
Number of DEPENDED LOADS: 7060099
Number of DEPENDED LOADS (ROI): 7060099
Number of SQ_ADDED: 83268522
Number of SQ_ADDED (ROI): 83268522
Number of LQ_ADDED: 236517545
Number of LQ_ADDED (ROI): 236517545
Number of Instructions read from trace: 600000066

ChampSim completed all CPUs

Region of Interest Statistics

CPU 0 cumulative IPC: 0.353638 instructions: 500000000 cycles: 1413876454
ITLB TOTAL     ACCESS:  100510894  HIT:  100306448  MISS:     204446
ITLB LOAD      ACCESS:  100510894  HIT:  100306448  MISS:     204446
ITLB RFO       ACCESS:          0  HIT:          0  MISS:          0
ITLB PREFETCH  ACCESS:          0  HIT:          0  MISS:          0
ITLB WRITEBACK ACCESS:          0  HIT:          0  MISS:          0
ITLB PREFETCH  REQUESTED:          0  ISSUED:          0  USEFUL:          0  USELESS:          0
ITLB TOTAL MSHR MERGED:     172424
ITLB LOAD MSHR MERGED:     172424
ITLB RFO MSHR MERGED:          0
ITLB PREFETCH MSHR MERGED:          0
ITLB WRITEBACK MSHR MERGED:          0
ITLB TOTAL ACCESSES:  100683318 HITS:  100306448 MISSES:     376870
ITLB LOAD ACCESSES:  100683318 HITS:  100306448 MISSES:     376870
ITLB RFO ACCESSES:          0 HITS:          0 MISSES:          0
ITLB PREFETCH ACCESSES:          0 HITS:          0 MISSES:          0
ITLB WRITEBACK ACCESSES:          0 HITS:          0 MISSES:          0
ITLB RQ ACCESS:  500000057
ITLB RQ TO_CACHE:  100683318
ITLB RQ MERGED:  399316739
ITLB RQ FORWARD:          0
ITLB WQ ACCESS:          0
ITLB WQ TO_CACHE:          0
ITLB WQ MERGED:          0
ITLB WQ FORWARD:          0
DTLB TOTAL     ACCESS:  165337260  HIT:  164702911  MISS:     634349
DTLB LOAD      ACCESS:  106292812  HIT:  105722843  MISS:     569969
DTLB RFO       ACCESS:   59044448  HIT:   58980068  MISS:      64380
DTLB PREFETCH  ACCESS:          0  HIT:          0  MISS:          0
DTLB WRITEBACK ACCESS:          0  HIT:          0  MISS:          0
DTLB PREFETCH  REQUESTED:          0  ISSUED:          0  USEFUL:          0  USELESS:          0
DTLB TOTAL MSHR MERGED:      99933
DTLB LOAD MSHR MERGED:      59421
DTLB RFO MSHR MERGED:      40512
DTLB PREFETCH MSHR MERGED:          0
DTLB WRITEBACK MSHR MERGED:          0
DTLB TOTAL ACCESSES:  165437193 HITS:  164702911 MISSES:     734282
DTLB LOAD ACCESSES:  106352233 HITS:  105722843 MISSES:     629390
DTLB RFO ACCESSES:   59084960 HITS:   58980068 MISSES:     104892
DTLB PREFETCH ACCESSES:          0 HITS:          0 MISSES:          0
DTLB WRITEBACK ACCESSES:          0 HITS:          0 MISSES:          0
DTLB RQ ACCESS:  200310771
DTLB RQ TO_CACHE:  165437193
DTLB RQ MERGED:   34873578
DTLB RQ FORWARD:          0
DTLB WQ ACCESS:          0
DTLB WQ TO_CACHE:          0
DTLB WQ MERGED:          0
DTLB WQ FORWARD:          0
L1D TOTAL     ACCESS:  281858432  HIT:  273949056  MISS:    7909376
L1D LOAD      ACCESS:  110429294  HIT:  107155135  MISS:    3274159
L1D RFO       ACCESS:   67110380  HIT:   66219469  MISS:     890911
L1D PREFETCH  ACCESS:  104318758  HIT:  100574452  MISS:    3744306
L1D WRITEBACK ACCESS:          0  HIT:          0  MISS:          0
L1D PREFETCH  REQUESTED:  110816867  ISSUED:  109117474  USEFUL:    1665056  USELESS:    2079214
L1D TOTAL MSHR MERGED:    2845879
L1D LOAD MSHR MERGED:     481247
L1D RFO MSHR MERGED:    1875829
L1D PREFETCH MSHR MERGED:     488803
L1D WRITEBACK MSHR MERGED:          0
L1D TOTAL ACCESSES:  284731797 HITS:  273976542 MISSES:   10755255
L1D LOAD ACCESSES:  110818351 HITS:  107156619 MISSES:    3661732
L1D RFO ACCESSES:   68974095 HITS:   66219469 MISSES:    2754626
L1D PREFETCH ACCESSES:  104939351 HITS:  100600454 MISSES:    4338897
L1D WRITEBACK ACCESSES:          0 HITS:          0 MISSES:          0
L1D RQ ACCESS:  130758168
L1D RQ TO_CACHE:  110816870
L1D RQ MERGED:   19939814
L1D RQ FORWARD:          0
L1D WQ ACCESS:   69552603
L1D WQ TO_CACHE:   68974096
L1D WQ MERGED:     578507
L1D WQ FORWARD:      27486
L1I TOTAL     ACCESS:  126558143  HIT:  122319589  MISS:    4238554
L1I LOAD      ACCESS:  126558143  HIT:  122319589  MISS:    4238554
L1I RFO       ACCESS:          0  HIT:          0  MISS:          0
L1I PREFETCH  ACCESS:          0  HIT:          0  MISS:          0
L1I WRITEBACK ACCESS:          0  HIT:          0  MISS:          0
L1I PREFETCH  REQUESTED:          0  ISSUED:          0  USEFUL:          0  USELESS:          0
L1I TOTAL MSHR MERGED:    1834997
L1I LOAD MSHR MERGED:    1834997
L1I RFO MSHR MERGED:          0
L1I PREFETCH MSHR MERGED:          0
L1I WRITEBACK MSHR MERGED:          0
L1I TOTAL ACCESSES:  128393143 HITS:  122319589 MISSES:    6073554
L1I LOAD ACCESSES:  128393143 HITS:  122319589 MISSES:    6073554
L1I RFO ACCESSES:          0 HITS:          0 MISSES:          0
L1I PREFETCH ACCESSES:          0 HITS:          0 MISSES:          0
L1I WRITEBACK ACCESSES:          0 HITS:          0 MISSES:          0
L1I RQ ACCESS:  500000057
L1I RQ TO_CACHE:  128393143
L1I RQ MERGED:  371606914
L1I RQ FORWARD:          0
L1I WQ ACCESS:          0
L1I WQ TO_CACHE:          0
L1I WQ MERGED:          0
L1I WQ FORWARD:          0
L2C TOTAL     ACCESS:   14905515  HIT:   11159116  MISS:    3746399
L2C LOAD      ACCESS:    7418832  HIT:    5098936  MISS:    2319896
L2C RFO       ACCESS:     878699  HIT:     409933  MISS:     468766
L2C PREFETCH  ACCESS:    4568740  HIT:    3628260  MISS:     940480
L2C WRITEBACK ACCESS:    2039244  HIT:    2021987  MISS:      17257
L2C PREFETCH  REQUESTED:     842751  ISSUED:     842751  USEFUL:     203433  USELESS:     736753
L2C TOTAL MSHR MERGED:       6855
L2C LOAD MSHR MERGED:        758
L2C RFO MSHR MERGED:          0
L2C PREFETCH MSHR MERGED:       6097
L2C WRITEBACK MSHR MERGED:          0
L2C TOTAL ACCESSES:   14913207 HITS:   11159566 MISSES:    3753641
L2C LOAD ACCESSES:    7419039 HITS:    5099143 MISSES:    2319896
L2C RFO ACCESSES:     878797 HITS:     410031 MISSES:     468766
L2C PREFETCH ACCESSES:    4576127 HITS:    3628405 MISSES:     947722
L2C WRITEBACK ACCESSES:    2039244 HITS:    2021987 MISSES:      17257
L2C RQ ACCESS:    8297839
L2C RQ TO_CACHE:    8297534
L2C RQ MERGED:          0
L2C RQ FORWARD:          0
L2C WQ ACCESS:    2039244
L2C WQ TO_CACHE:    2039244
L2C WQ MERGED:          0
L2C WQ FORWARD:        450
LLC TOTAL     ACCESS:    4609647  HIT:    3966476  MISS:     643171
LLC LOAD      ACCESS:    2319124  HIT:    2033862  MISS:     285262
LLC RFO       ACCESS:     468755  HIT:     389686  MISS:      79069
LLC PREFETCH  ACCESS:     941526  HIT:     713108  MISS:     228418
LLC WRITEBACK ACCESS:     880242  HIT:     829820  MISS:      50422
LLC PREFETCH  REQUESTED:          0  ISSUED:          0  USEFUL:      28103  USELESS:     200805
LLC TOTAL MSHR MERGED:         82
LLC LOAD MSHR MERGED:         27
LLC RFO MSHR MERGED:          0
LLC PREFETCH MSHR MERGED:         55
LLC WRITEBACK MSHR MERGED:          0
LLC TOTAL ACCESSES:    4609766 HITS:    3966513 MISSES:     643253
LLC LOAD ACCESSES:    2319138 HITS:    2033876 MISSES:     285262
LLC RFO ACCESSES:     468766 HITS:     389697 MISSES:      79069
LLC PREFETCH ACCESSES:     941620 HITS:     713120 MISSES:     228500
LLC WRITEBACK ACCESSES:     880242 HITS:     829820 MISSES:      50422
LLC 0 RQ ACCESS:    2787904
LLC 0 RQ TO_CACHE:    2787879
LLC 0 RQ MERGED:          0
LLC 0 RQ FORWARD:          0
LLC WQ ACCESS:     880242
LLC WQ TO_CACHE:     880242
LLC WQ MERGED:          0
LLC WQ FORWARD:         37
Major fault: 0 Minor fault: 12862
CPU 0 L1D next line prefetcher final stats
CPU 0 L2C PC-based stride prefetcher final stats
All Misses: 760901
All Hits: 4665752
SD Algo Stats - Switches: 0 SRR-Repls: 333197 BRR-Repls: 0

DRAM Statistics
 CHANNEL 0
 RQ ROW_BUFFER_HIT:     127539  ROW_BUFFER_MISS:     463814
 DBUS_CONGESTED:     382145
 WQ ROW_BUFFER_HIT:      18895  ROW_BUFFER_MISS:     198477  FULL:          0

 AVG_CONGESTED_CYCLE: 13
LOADS RETIRED: 136549171
INSTR RETIRED: 500000000
