
*** ChampSim Multicore Out-of-Order Simulator ***

Warmup Instructions: 100000000
Simulation Instructions: 500000000
Number of CPUs: 1
LLC sets: 2048
LLC ways: 16
Clean RRIP Policies: 1213130112131301 Dirty RRIP Policies: 2213130122131301 PSEL Width: 10 Track Set: 4294967295 PSEL Mask: 1 Demote Mask: 1340211013402110DS Algo: 0Window size: 0
Off-chip DRAM Size: 4096 MB Channels: 1 Width: 64-bit Data Rate: 1600 MT/s

CPU 0 runs /mnt/beegfs/iconst01/spec2017/Roms.trace.gz
NOT SORTED
TRACE STRING: /mnt/beegfs/iconst01/spec2017/Roms.trace.gz
SORTED
TRACE STRING: /mnt/beegfs/iconst01/spec2017/Roms.trace.gz
INITIAL
TRACE STRING: /mnt/beegfs/iconst01/spec2017/Roms.trace.gz

champsim_seed used: 417

CPU 0 L1D next line prefetcher
CPU 0 L2C IP-based stride prefetcher
Initialize DRRIP state
Assign rand_sets[0]: 454  LLC: 2048
rand_sets[0]: 454
Assign rand_sets[1]: 1662  LLC: 2048
rand_sets[1]: 1662
Assign rand_sets[2]: 1921  LLC: 2048
rand_sets[2]: 1921
Assign rand_sets[3]: 1131  LLC: 2048
rand_sets[3]: 1131
Assign rand_sets[4]: 331  LLC: 2048
rand_sets[4]: 331
Assign rand_sets[5]: 1531  LLC: 2048
rand_sets[5]: 1531
Assign rand_sets[6]: 482  LLC: 2048
rand_sets[6]: 482
Assign rand_sets[7]: 1275  LLC: 2048
rand_sets[7]: 1275
Assign rand_sets[8]: 1876  LLC: 2048
rand_sets[8]: 1876
Assign rand_sets[9]: 2038  LLC: 2048
rand_sets[9]: 2038
Assign rand_sets[10]: 701  LLC: 2048
rand_sets[10]: 701
Assign rand_sets[11]: 479  LLC: 2048
rand_sets[11]: 479
Assign rand_sets[12]: 892  LLC: 2048
rand_sets[12]: 892
Assign rand_sets[13]: 1820  LLC: 2048
rand_sets[13]: 1820
Assign rand_sets[14]: 1505  LLC: 2048
rand_sets[14]: 1505
Assign rand_sets[15]: 1159  LLC: 2048
rand_sets[15]: 1159
Assign rand_sets[16]: 513  LLC: 2048
rand_sets[16]: 513
Assign rand_sets[17]: 703  LLC: 2048
rand_sets[17]: 703
Assign rand_sets[18]: 561  LLC: 2048
rand_sets[18]: 561
Assign rand_sets[19]: 990  LLC: 2048
rand_sets[19]: 990
Assign rand_sets[20]: 342  LLC: 2048
rand_sets[20]: 342
Assign rand_sets[21]: 882  LLC: 2048
rand_sets[21]: 882
Assign rand_sets[22]: 15  LLC: 2048
rand_sets[22]: 15
Assign rand_sets[23]: 71  LLC: 2048
rand_sets[23]: 71
Assign rand_sets[24]: 1127  LLC: 2048
rand_sets[24]: 1127
Assign rand_sets[25]: 1382  LLC: 2048
rand_sets[25]: 1382
Assign rand_sets[26]: 647  LLC: 2048
rand_sets[26]: 647
Assign rand_sets[27]: 857  LLC: 2048
rand_sets[27]: 857
Assign rand_sets[28]: 1450  LLC: 2048
rand_sets[28]: 1450
Assign rand_sets[29]: 1160  LLC: 2048
rand_sets[29]: 1160
Assign rand_sets[30]: 1852  LLC: 2048
rand_sets[30]: 1852
Assign rand_sets[31]: 1881  LLC: 2048
rand_sets[31]: 1881
Assign rand_sets[32]: 1770  LLC: 2048
rand_sets[32]: 1770
Assign rand_sets[33]: 1622  LLC: 2048
rand_sets[33]: 1622
Assign rand_sets[34]: 275  LLC: 2048
rand_sets[34]: 275
Assign rand_sets[35]: 635  LLC: 2048
rand_sets[35]: 635
Assign rand_sets[36]: 466  LLC: 2048
rand_sets[36]: 466
Assign rand_sets[37]: 1413  LLC: 2048
rand_sets[37]: 1413
Assign rand_sets[38]: 417  LLC: 2048
rand_sets[38]: 417
Assign rand_sets[39]: 472  LLC: 2048
rand_sets[39]: 472
Assign rand_sets[40]: 1340  LLC: 2048
rand_sets[40]: 1340
Assign rand_sets[41]: 852  LLC: 2048
rand_sets[41]: 852
Assign rand_sets[42]: 1365  LLC: 2048
rand_sets[42]: 1365
Assign rand_sets[43]: 47  LLC: 2048
rand_sets[43]: 47
Assign rand_sets[44]: 823  LLC: 2048
rand_sets[44]: 823
Assign rand_sets[45]: 686  LLC: 2048
rand_sets[45]: 686
Assign rand_sets[46]: 1637  LLC: 2048
rand_sets[46]: 1637
Assign rand_sets[47]: 1115  LLC: 2048
rand_sets[47]: 1115
Assign rand_sets[48]: 986  LLC: 2048
rand_sets[48]: 986
Assign rand_sets[49]: 258  LLC: 2048
rand_sets[49]: 258
Assign rand_sets[50]: 633  LLC: 2048
rand_sets[50]: 633
Assign rand_sets[51]: 920  LLC: 2048
rand_sets[51]: 920
Assign rand_sets[52]: 204  LLC: 2048
rand_sets[52]: 204
Assign rand_sets[53]: 227  LLC: 2048
rand_sets[53]: 227
Assign rand_sets[54]: 1818  LLC: 2048
rand_sets[54]: 1818
Assign rand_sets[55]: 886  LLC: 2048
rand_sets[55]: 886
Assign rand_sets[56]: 1422  LLC: 2048
rand_sets[56]: 1422
Assign rand_sets[57]: 607  LLC: 2048
rand_sets[57]: 607
Assign rand_sets[58]: 217  LLC: 2048
rand_sets[58]: 217
Assign rand_sets[59]: 1945  LLC: 2048
rand_sets[59]: 1945
Assign rand_sets[60]: 143  LLC: 2048
rand_sets[60]: 143
Assign rand_sets[61]: 1311  LLC: 2048
rand_sets[61]: 1311
Assign rand_sets[62]: 319  LLC: 2048
rand_sets[62]: 319
Assign rand_sets[63]: 1846  LLC: 2048
rand_sets[63]: 1846
 CLEAN-RRIP-POLICY-1: 1-2-1-3-1-3-0-1- CLEAN-RRIP-POLICY-2: 1-2-1-3-1-3-0-1-
 DIRTY-RRIP-POLICY-1: 2-2-1-3-1-3-0-1- DIRTY-RRIP-POLICY-2: 2-2-1-3-1-3-0-1-
 PSEL width: 10
Heartbeat CPU 0 instructions: 10000000 cycles: 4688066 heartbeat IPC: 2.13308 cumulative IPC: 2.13308 (Simulation time: 0 hr 0 min 17 sec) 
Heartbeat CPU 0 instructions: 20000000 cycles: 9325334 heartbeat IPC: 2.15644 cumulative IPC: 2.1447 (Simulation time: 0 hr 0 min 34 sec) 
Heartbeat CPU 0 instructions: 30000003 cycles: 14019728 heartbeat IPC: 2.1302 cumulative IPC: 2.13984 (Simulation time: 0 hr 0 min 51 sec) 
Heartbeat CPU 0 instructions: 40000000 cycles: 18670144 heartbeat IPC: 2.15034 cumulative IPC: 2.14246 (Simulation time: 0 hr 1 min 8 sec) 
Heartbeat CPU 0 instructions: 50000003 cycles: 23323510 heartbeat IPC: 2.14898 cumulative IPC: 2.14376 (Simulation time: 0 hr 1 min 24 sec) 
Heartbeat CPU 0 instructions: 60000000 cycles: 27976119 heartbeat IPC: 2.14933 cumulative IPC: 2.14469 (Simulation time: 0 hr 1 min 41 sec) 
Heartbeat CPU 0 instructions: 70000002 cycles: 32367365 heartbeat IPC: 2.27726 cumulative IPC: 2.16267 (Simulation time: 0 hr 1 min 55 sec) 
Heartbeat CPU 0 instructions: 80000000 cycles: 36304231 heartbeat IPC: 2.54009 cumulative IPC: 2.2036 (Simulation time: 0 hr 2 min 7 sec) 
Heartbeat CPU 0 instructions: 90000000 cycles: 40249649 heartbeat IPC: 2.53459 cumulative IPC: 2.23604 (Simulation time: 0 hr 2 min 19 sec) 
Heartbeat CPU 0 instructions: 100000000 cycles: 44212125 heartbeat IPC: 2.52367 cumulative IPC: 2.26182 (Simulation time: 0 hr 2 min 30 sec) 

Warmup complete CPU 0 instructions: 100000002 cycles: 44212126 (Simulation time: 0 hr 2 min 30 sec) 

Heartbeat CPU 0 instructions: 110000001 cycles: 53454196 heartbeat IPC: 1.08201 cumulative IPC: 1.08201 (Simulation time: 0 hr 2 min 49 sec) 
Heartbeat CPU 0 instructions: 120000000 cycles: 62622600 heartbeat IPC: 1.0907 cumulative IPC: 1.08634 (Simulation time: 0 hr 3 min 8 sec) 
Heartbeat CPU 0 instructions: 130000002 cycles: 71813989 heartbeat IPC: 1.08798 cumulative IPC: 1.08688 (Simulation time: 0 hr 3 min 27 sec) 
Heartbeat CPU 0 instructions: 140000000 cycles: 80840453 heartbeat IPC: 1.10785 cumulative IPC: 1.09205 (Simulation time: 0 hr 3 min 45 sec) 
Heartbeat CPU 0 instructions: 150000003 cycles: 90034721 heartbeat IPC: 1.08763 cumulative IPC: 1.09116 (Simulation time: 0 hr 4 min 4 sec) 
Heartbeat CPU 0 instructions: 160000000 cycles: 100739607 heartbeat IPC: 0.934153 cumulative IPC: 1.06143 (Simulation time: 0 hr 4 min 25 sec) 
Heartbeat CPU 0 instructions: 170000000 cycles: 113277975 heartbeat IPC: 0.797552 cumulative IPC: 1.01353 (Simulation time: 0 hr 4 min 48 sec) 
Heartbeat CPU 0 instructions: 180000000 cycles: 125813977 heartbeat IPC: 0.797702 cumulative IPC: 0.98037 (Simulation time: 0 hr 5 min 11 sec) 
Heartbeat CPU 0 instructions: 190000000 cycles: 138601113 heartbeat IPC: 0.782036 cumulative IPC: 0.953501 (Simulation time: 0 hr 5 min 34 sec) 
Heartbeat CPU 0 instructions: 200000000 cycles: 152519998 heartbeat IPC: 0.718448 cumulative IPC: 0.923294 (Simulation time: 0 hr 5 min 57 sec) 
Heartbeat CPU 0 instructions: 210000001 cycles: 166466181 heartbeat IPC: 0.717042 cumulative IPC: 0.899766 (Simulation time: 0 hr 6 min 20 sec) 
Heartbeat CPU 0 instructions: 220000000 cycles: 180224176 heartbeat IPC: 0.72685 cumulative IPC: 0.882275 (Simulation time: 0 hr 6 min 43 sec) 
Heartbeat CPU 0 instructions: 230000000 cycles: 193814245 heartbeat IPC: 0.735831 cumulative IPC: 0.868972 (Simulation time: 0 hr 7 min 8 sec) 
Heartbeat CPU 0 instructions: 240000000 cycles: 207472781 heartbeat IPC: 0.732143 cumulative IPC: 0.857524 (Simulation time: 0 hr 7 min 32 sec) 
Heartbeat CPU 0 instructions: 250000003 cycles: 218584330 heartbeat IPC: 0.899965 cumulative IPC: 0.860229 (Simulation time: 0 hr 7 min 54 sec) 
Heartbeat CPU 0 instructions: 260000000 cycles: 226506642 heartbeat IPC: 1.26226 cumulative IPC: 0.877701 (Simulation time: 0 hr 8 min 13 sec) 
Heartbeat CPU 0 instructions: 270000003 cycles: 235041032 heartbeat IPC: 1.17173 cumulative IPC: 0.89085 (Simulation time: 0 hr 8 min 33 sec) 
Heartbeat CPU 0 instructions: 280000000 cycles: 244678378 heartbeat IPC: 1.03763 cumulative IPC: 0.897907 (Simulation time: 0 hr 8 min 53 sec) 
Heartbeat CPU 0 instructions: 290000000 cycles: 254063522 heartbeat IPC: 1.06551 cumulative IPC: 0.905403 (Simulation time: 0 hr 9 min 14 sec) 
Heartbeat CPU 0 instructions: 300000000 cycles: 263297142 heartbeat IPC: 1.083 cumulative IPC: 0.912888 (Simulation time: 0 hr 9 min 35 sec) 
Heartbeat CPU 0 instructions: 310000000 cycles: 272566977 heartbeat IPC: 1.07877 cumulative IPC: 0.919621 (Simulation time: 0 hr 9 min 56 sec) 
Heartbeat CPU 0 instructions: 320000000 cycles: 281815233 heartbeat IPC: 1.08128 cumulative IPC: 0.925914 (Simulation time: 0 hr 10 min 18 sec) 
Heartbeat CPU 0 instructions: 330000002 cycles: 290998481 heartbeat IPC: 1.08894 cumulative IPC: 0.93198 (Simulation time: 0 hr 10 min 39 sec) 
Heartbeat CPU 0 instructions: 340000000 cycles: 301455923 heartbeat IPC: 0.956257 cumulative IPC: 0.932967 (Simulation time: 0 hr 11 min 1 sec) 
Heartbeat CPU 0 instructions: 350000001 cycles: 310501593 heartbeat IPC: 1.1055 cumulative IPC: 0.938828 (Simulation time: 0 hr 11 min 22 sec) 
Heartbeat CPU 0 instructions: 360000000 cycles: 319501120 heartbeat IPC: 1.11117 cumulative IPC: 0.944462 (Simulation time: 0 hr 11 min 43 sec) 
Heartbeat CPU 0 instructions: 370000001 cycles: 328478157 heartbeat IPC: 1.11395 cumulative IPC: 0.949814 (Simulation time: 0 hr 12 min 3 sec) 
Heartbeat CPU 0 instructions: 380000000 cycles: 337351926 heartbeat IPC: 1.12692 cumulative IPC: 0.955176 (Simulation time: 0 hr 12 min 23 sec) 
Heartbeat CPU 0 instructions: 390000001 cycles: 346025594 heartbeat IPC: 1.15291 cumulative IPC: 0.960858 (Simulation time: 0 hr 12 min 44 sec) 
Heartbeat CPU 0 instructions: 400000000 cycles: 354772037 heartbeat IPC: 1.14332 cumulative IPC: 0.965997 (Simulation time: 0 hr 13 min 4 sec) 
Heartbeat CPU 0 instructions: 410000003 cycles: 363399819 heartbeat IPC: 1.15905 cumulative IPC: 0.971215 (Simulation time: 0 hr 13 min 24 sec) 
Heartbeat CPU 0 instructions: 420000000 cycles: 372087643 heartbeat IPC: 1.15104 cumulative IPC: 0.97598 (Simulation time: 0 hr 13 min 44 sec) 
Heartbeat CPU 0 instructions: 430000001 cycles: 380669607 heartbeat IPC: 1.16523 cumulative IPC: 0.980807 (Simulation time: 0 hr 14 min 4 sec) 
Heartbeat CPU 0 instructions: 440000000 cycles: 389199086 heartbeat IPC: 1.1724 cumulative IPC: 0.985545 (Simulation time: 0 hr 14 min 24 sec) 
Heartbeat CPU 0 instructions: 450000001 cycles: 399135475 heartbeat IPC: 1.0064 cumulative IPC: 0.986128 (Simulation time: 0 hr 14 min 46 sec) 
Heartbeat CPU 0 instructions: 460000000 cycles: 407674210 heartbeat IPC: 1.17113 cumulative IPC: 0.990475 (Simulation time: 0 hr 15 min 6 sec) 
Heartbeat CPU 0 instructions: 470000003 cycles: 416059247 heartbeat IPC: 1.1926 cumulative IPC: 0.995033 (Simulation time: 0 hr 15 min 25 sec) 
Heartbeat CPU 0 instructions: 480000000 cycles: 424475029 heartbeat IPC: 1.18824 cumulative IPC: 0.999309 (Simulation time: 0 hr 15 min 45 sec) 
Heartbeat CPU 0 instructions: 490000000 cycles: 432846398 heartbeat IPC: 1.19455 cumulative IPC: 1.00351 (Simulation time: 0 hr 16 min 5 sec) 
Heartbeat CPU 0 instructions: 500000000 cycles: 441225481 heartbeat IPC: 1.19345 cumulative IPC: 1.00752 (Simulation time: 0 hr 16 min 25 sec) 
Heartbeat CPU 0 instructions: 510000001 cycles: 449560956 heartbeat IPC: 1.19969 cumulative IPC: 1.01147 (Simulation time: 0 hr 16 min 44 sec) 
Heartbeat CPU 0 instructions: 520000000 cycles: 457932119 heartbeat IPC: 1.19458 cumulative IPC: 1.01518 (Simulation time: 0 hr 17 min 4 sec) 
Heartbeat CPU 0 instructions: 530000001 cycles: 466280409 heartbeat IPC: 1.19785 cumulative IPC: 1.01879 (Simulation time: 0 hr 17 min 24 sec) 
Heartbeat CPU 0 instructions: 540000000 cycles: 474813507 heartbeat IPC: 1.17191 cumulative IPC: 1.02183 (Simulation time: 0 hr 17 min 43 sec) 
Heartbeat CPU 0 instructions: 550000001 cycles: 483401491 heartbeat IPC: 1.16442 cumulative IPC: 1.02461 (Simulation time: 0 hr 18 min 3 sec) 
Heartbeat CPU 0 instructions: 560000000 cycles: 491758581 heartbeat IPC: 1.19659 cumulative IPC: 1.02783 (Simulation time: 0 hr 18 min 23 sec) 
Heartbeat CPU 0 instructions: 570000000 cycles: 503569680 heartbeat IPC: 0.846661 cumulative IPC: 1.02317 (Simulation time: 0 hr 18 min 45 sec) 
Heartbeat CPU 0 instructions: 580000000 cycles: 515071814 heartbeat IPC: 0.869404 cumulative IPC: 1.01941 (Simulation time: 0 hr 19 min 6 sec) 
Heartbeat CPU 0 instructions: 590000001 cycles: 526784713 heartbeat IPC: 0.85376 cumulative IPC: 1.01539 (Simulation time: 0 hr 19 min 28 sec) 
Heartbeat CPU 0 instructions: 600000000 cycles: 538205812 heartbeat IPC: 0.875572 cumulative IPC: 1.01216 (Simulation time: 0 hr 19 min 49 sec) 
Finished CPU 0 instructions: 500000001 cycles: 493993699 cumulative IPC: 1.01216 (Simulation time: 0 hr 19 min 49 sec) 

CPU 0 Branch Prediction Accuracy: 99.7422% MPKI: 0.173296
Number of Branches: 33608403 Number of Mispredictions: 86648
Number of LOAD Instructions: 180215231
Number of LOAD Instructions (ROI): 180215231
Number of STORE Instructions: 36067263
Number of STORE Instructions (ROI): 36067263
Total Destination Memory Operands: 38428915
Total Destination Memory Operands (ROI): 38428915
Total Source Memory Operands: 180215231
Total Source Memory Operands (ROI): 180215231
Number of DEPENDED LOADS: 3041698
Number of DEPENDED LOADS (ROI): 3041698
Number of SQ_ADDED: 38428892
Number of SQ_ADDED (ROI): 38428892
Number of LQ_ADDED: 207896959
Number of LQ_ADDED (ROI): 207896959
Number of Instructions read from trace: 600000257

ChampSim completed all CPUs

Region of Interest Statistics

CPU 0 cumulative IPC: 1.01216 instructions: 500000001 cycles: 493993699
ITLB TOTAL     ACCESS:   92047992  HIT:   92047973  MISS:         19
ITLB LOAD      ACCESS:   92047992  HIT:   92047973  MISS:         19
ITLB RFO       ACCESS:          0  HIT:          0  MISS:          0
ITLB PREFETCH  ACCESS:          0  HIT:          0  MISS:          0
ITLB WRITEBACK ACCESS:          0  HIT:          0  MISS:          0
ITLB PREFETCH  REQUESTED:          0  ISSUED:          0  USEFUL:          0  USELESS:          0
ITLB TOTAL MSHR MERGED:         40
ITLB LOAD MSHR MERGED:         40
ITLB RFO MSHR MERGED:          0
ITLB PREFETCH MSHR MERGED:          0
ITLB WRITEBACK MSHR MERGED:          0
ITLB TOTAL ACCESSES:   92048032 HITS:   92047973 MISSES:         59
ITLB LOAD ACCESSES:   92048032 HITS:   92047973 MISSES:         59
ITLB RFO ACCESSES:          0 HITS:          0 MISSES:          0
ITLB PREFETCH ACCESSES:          0 HITS:          0 MISSES:          0
ITLB WRITEBACK ACCESSES:          0 HITS:          0 MISSES:          0
ITLB RQ ACCESS:  500000003
ITLB RQ TO_CACHE:   92048032
ITLB RQ MERGED:  407951971
ITLB RQ FORWARD:          0
ITLB WQ ACCESS:          0
ITLB WQ TO_CACHE:          0
ITLB WQ MERGED:          0
ITLB WQ FORWARD:          0
DTLB TOTAL     ACCESS:  141945618  HIT:  141579156  MISS:     366462
DTLB LOAD      ACCESS:  119331845  HIT:  119018259  MISS:     313586
DTLB RFO       ACCESS:   22613773  HIT:   22560897  MISS:      52876
DTLB PREFETCH  ACCESS:          0  HIT:          0  MISS:          0
DTLB WRITEBACK ACCESS:          0  HIT:          0  MISS:          0
DTLB PREFETCH  REQUESTED:          0  ISSUED:          0  USEFUL:          0  USELESS:          0
DTLB TOTAL MSHR MERGED:     288604
DTLB LOAD MSHR MERGED:     240225
DTLB RFO MSHR MERGED:      48379
DTLB PREFETCH MSHR MERGED:          0
DTLB WRITEBACK MSHR MERGED:          0
DTLB TOTAL ACCESSES:  142234222 HITS:  141579156 MISSES:     655066
DTLB LOAD ACCESSES:  119572070 HITS:  119018259 MISSES:     553811
DTLB RFO ACCESSES:   22662152 HITS:   22560897 MISSES:     101255
DTLB PREFETCH ACCESSES:          0 HITS:          0 MISSES:          0
DTLB WRITEBACK ACCESSES:          0 HITS:          0 MISSES:          0
DTLB RQ ACCESS:  184791279
DTLB RQ TO_CACHE:  142234222
DTLB RQ MERGED:   42557057
DTLB RQ FORWARD:          0
DTLB WQ ACCESS:          0
DTLB WQ TO_CACHE:          0
DTLB WQ MERGED:          0
DTLB WQ FORWARD:          0
L1D TOTAL     ACCESS:  187351281  HIT:  173908393  MISS:   13442888
L1D LOAD      ACCESS:  111604643  HIT:  108118101  MISS:    3486542
L1D RFO       ACCESS:   17836992  HIT:   15055215  MISS:    2781777
L1D PREFETCH  ACCESS:   57909646  HIT:   50735077  MISS:    7174569
L1D WRITEBACK ACCESS:          0  HIT:          0  MISS:          0
L1D PREFETCH  REQUESTED:  116460935  ISSUED:  115100083  USEFUL:    6965263  USELESS:     209306
L1D TOTAL MSHR MERGED:   34612451
L1D LOAD MSHR MERGED:    7786683
L1D RFO MSHR MERGED:   10415643
L1D PREFETCH MSHR MERGED:   16410125
L1D WRITEBACK MSHR MERGED:          0
L1D TOTAL ACCESSES:  221964230 HITS:  173908890 MISSES:   48055340
L1D LOAD ACCESSES:  116461063 HITS:  108118229 MISSES:    8342834
L1D RFO ACCESSES:   28252554 HITS:   15055215 MISSES:   13197339
L1D PREFETCH ACCESSES:   77250613 HITS:   50735446 MISSES:   26515167
L1D WRITEBACK ACCESSES:          0 HITS:          0 MISSES:          0
L1D RQ ACCESS:  156535213
L1D RQ TO_CACHE:  116460938
L1D RQ MERGED:   40074147
L1D RQ FORWARD:          0
L1D WQ ACCESS:   28256066
L1D WQ TO_CACHE:   28252554
L1D WQ MERGED:       3512
L1D WQ FORWARD:        497
L1I TOTAL     ACCESS:  116031813  HIT:  116030865  MISS:        948
L1I LOAD      ACCESS:  116031813  HIT:  116030865  MISS:        948
L1I RFO       ACCESS:          0  HIT:          0  MISS:          0
L1I PREFETCH  ACCESS:          0  HIT:          0  MISS:          0
L1I WRITEBACK ACCESS:          0  HIT:          0  MISS:          0
L1I PREFETCH  REQUESTED:          0  ISSUED:          0  USEFUL:          0  USELESS:          0
L1I TOTAL MSHR MERGED:       1614
L1I LOAD MSHR MERGED:       1614
L1I RFO MSHR MERGED:          0
L1I PREFETCH MSHR MERGED:          0
L1I WRITEBACK MSHR MERGED:          0
L1I TOTAL ACCESSES:  116033427 HITS:  116030865 MISSES:       2562
L1I LOAD ACCESSES:  116033427 HITS:  116030865 MISSES:       2562
L1I RFO ACCESSES:          0 HITS:          0 MISSES:          0
L1I PREFETCH ACCESSES:          0 HITS:          0 MISSES:          0
L1I WRITEBACK ACCESSES:          0 HITS:          0 MISSES:          0
L1I RQ ACCESS:  500000007
L1I RQ TO_CACHE:  116033427
L1I RQ MERGED:  383966580
L1I RQ FORWARD:          0
L1I WQ ACCESS:          0
L1I WQ TO_CACHE:          0
L1I WQ MERGED:          0
L1I WQ FORWARD:          0
L2C TOTAL     ACCESS:   16688334  HIT:    4843742  MISS:   11844592
L2C LOAD      ACCESS:     557075  HIT:      95458  MISS:     461617
L2C RFO       ACCESS:    2781696  HIT:     266668  MISS:    2515028
L2C PREFETCH  ACCESS:   10128935  HIT:    1263271  MISS:    8865664
L2C WRITEBACK ACCESS:    3220628  HIT:    3218345  MISS:       2283
L2C PREFETCH  REQUESTED:      26089  ISSUED:      26089  USEFUL:      92835  USELESS:    8770916
L2C TOTAL MSHR MERGED:        624
L2C LOAD MSHR MERGED:         14
L2C RFO MSHR MERGED:          0
L2C PREFETCH MSHR MERGED:        610
L2C WRITEBACK MSHR MERGED:          0
L2C TOTAL ACCESSES:   16689121 HITS:    4843784 MISSES:   11845337
L2C LOAD ACCESSES:     557099 HITS:      95482 MISSES:     461617
L2C RFO ACCESSES:    2781696 HITS:     266668 MISSES:    2515028
L2C PREFETCH ACCESSES:   10129698 HITS:    1263289 MISSES:    8866409
L2C WRITEBACK ACCESSES:    3220628 HITS:    3218345 MISSES:       2283
L2C RQ ACCESS:    3338795
L2C RQ TO_CACHE:    3338771
L2C RQ MERGED:          0
L2C RQ FORWARD:          0
L2C WQ ACCESS:    3220629
L2C WQ TO_CACHE:    3220629
L2C WQ MERGED:          0
L2C WQ FORWARD:         42
LLC TOTAL     ACCESS:   14742817  HIT:    6208419  MISS:    8534398
LLC LOAD      ACCESS:     461600  HIT:     249061  MISS:     212539
LLC RFO       ACCESS:    2515011  HIT:    1487718  MISS:    1027293
LLC PREFETCH  ACCESS:    8865740  HIT:    2624130  MISS:    6241610
LLC WRITEBACK ACCESS:    2900466  HIT:    1847510  MISS:    1052956
LLC PREFETCH  REQUESTED:          0  ISSUED:          0  USEFUL:       5096  USELESS:    6237551
LLC TOTAL MSHR MERGED:          6
LLC LOAD MSHR MERGED:          0
LLC RFO MSHR MERGED:          0
LLC PREFETCH MSHR MERGED:          6
LLC WRITEBACK MSHR MERGED:          0
LLC TOTAL ACCESSES:   14742884 HITS:    6208479 MISSES:    8534405
LLC LOAD ACCESSES:     461603 HITS:     249064 MISSES:     212539
LLC RFO ACCESSES:    2515028 HITS:    1487735 MISSES:    1027293
LLC PREFETCH ACCESSES:    8865787 HITS:    2624170 MISSES:    6241617
LLC WRITEBACK ACCESSES:    2900466 HITS:    1847510 MISSES:    1052956
LLC 0 RQ ACCESS:    2976631
LLC 0 RQ TO_CACHE:    2976611
LLC 0 RQ MERGED:          0
LLC 0 RQ FORWARD:          0
LLC WQ ACCESS:    2900466
LLC WQ TO_CACHE:    2900466
LLC WQ MERGED:          0
LLC WQ FORWARD:         60
Major fault: 0 Minor fault: 57518
CPU 0 L1D next line prefetcher final stats
CPU 0 L2C PC-based stride prefetcher final stats
All Misses: 9250452
All Hits: 6988546
SD Algo Stats - Switches: 0 SRR-Repls: 220040 BRR-Repls: 0

DRAM Statistics
 CHANNEL 0
 RQ ROW_BUFFER_HIT:    3850154  ROW_BUFFER_MISS:    3625069
 DBUS_CONGESTED:    3742543
 WQ ROW_BUFFER_HIT:     175361  ROW_BUFFER_MISS:    1140211  FULL:          0

 AVG_CONGESTED_CYCLE: 12
LOADS RETIRED: 157818985
INSTR RETIRED: 500000000
