
*** ChampSim Multicore Out-of-Order Simulator ***

Warmup Instructions: 100000000
Simulation Instructions: 500000000
Number of CPUs: 1
LLC sets: 2048
LLC ways: 16
Clean RRIP Policies: 1213130112131301 Dirty RRIP Policies: 2213130122131301 PSEL Width: 10 Track Set: 4294967295 PSEL Mask: 1 Demote Mask: 1340211013402110DS Algo: 0Window size: 0
Off-chip DRAM Size: 4096 MB Channels: 1 Width: 64-bit Data Rate: 1600 MT/s

CPU 0 runs /mnt/beegfs/iconst01/spec2017/Wrf.trace.gz
NOT SORTED
TRACE STRING: /mnt/beegfs/iconst01/spec2017/Wrf.trace.gz
SORTED
TRACE STRING: /mnt/beegfs/iconst01/spec2017/Wrf.trace.gz
INITIAL
TRACE STRING: /mnt/beegfs/iconst01/spec2017/Wrf.trace.gz

champsim_seed used: 303

CPU 0 L1D next line prefetcher
CPU 0 L2C IP-based stride prefetcher
Initialize DRRIP state
Assign rand_sets[0]: 454  LLC: 2048
rand_sets[0]: 454
Assign rand_sets[1]: 1662  LLC: 2048
rand_sets[1]: 1662
Assign rand_sets[2]: 1921  LLC: 2048
rand_sets[2]: 1921
Assign rand_sets[3]: 1131  LLC: 2048
rand_sets[3]: 1131
Assign rand_sets[4]: 331  LLC: 2048
rand_sets[4]: 331
Assign rand_sets[5]: 1531  LLC: 2048
rand_sets[5]: 1531
Assign rand_sets[6]: 482  LLC: 2048
rand_sets[6]: 482
Assign rand_sets[7]: 1275  LLC: 2048
rand_sets[7]: 1275
Assign rand_sets[8]: 1876  LLC: 2048
rand_sets[8]: 1876
Assign rand_sets[9]: 2038  LLC: 2048
rand_sets[9]: 2038
Assign rand_sets[10]: 701  LLC: 2048
rand_sets[10]: 701
Assign rand_sets[11]: 479  LLC: 2048
rand_sets[11]: 479
Assign rand_sets[12]: 892  LLC: 2048
rand_sets[12]: 892
Assign rand_sets[13]: 1820  LLC: 2048
rand_sets[13]: 1820
Assign rand_sets[14]: 1505  LLC: 2048
rand_sets[14]: 1505
Assign rand_sets[15]: 1159  LLC: 2048
rand_sets[15]: 1159
Assign rand_sets[16]: 513  LLC: 2048
rand_sets[16]: 513
Assign rand_sets[17]: 703  LLC: 2048
rand_sets[17]: 703
Assign rand_sets[18]: 561  LLC: 2048
rand_sets[18]: 561
Assign rand_sets[19]: 990  LLC: 2048
rand_sets[19]: 990
Assign rand_sets[20]: 342  LLC: 2048
rand_sets[20]: 342
Assign rand_sets[21]: 882  LLC: 2048
rand_sets[21]: 882
Assign rand_sets[22]: 15  LLC: 2048
rand_sets[22]: 15
Assign rand_sets[23]: 71  LLC: 2048
rand_sets[23]: 71
Assign rand_sets[24]: 1127  LLC: 2048
rand_sets[24]: 1127
Assign rand_sets[25]: 1382  LLC: 2048
rand_sets[25]: 1382
Assign rand_sets[26]: 647  LLC: 2048
rand_sets[26]: 647
Assign rand_sets[27]: 857  LLC: 2048
rand_sets[27]: 857
Assign rand_sets[28]: 1450  LLC: 2048
rand_sets[28]: 1450
Assign rand_sets[29]: 1160  LLC: 2048
rand_sets[29]: 1160
Assign rand_sets[30]: 1852  LLC: 2048
rand_sets[30]: 1852
Assign rand_sets[31]: 1881  LLC: 2048
rand_sets[31]: 1881
Assign rand_sets[32]: 1770  LLC: 2048
rand_sets[32]: 1770
Assign rand_sets[33]: 1622  LLC: 2048
rand_sets[33]: 1622
Assign rand_sets[34]: 275  LLC: 2048
rand_sets[34]: 275
Assign rand_sets[35]: 635  LLC: 2048
rand_sets[35]: 635
Assign rand_sets[36]: 466  LLC: 2048
rand_sets[36]: 466
Assign rand_sets[37]: 1413  LLC: 2048
rand_sets[37]: 1413
Assign rand_sets[38]: 417  LLC: 2048
rand_sets[38]: 417
Assign rand_sets[39]: 472  LLC: 2048
rand_sets[39]: 472
Assign rand_sets[40]: 1340  LLC: 2048
rand_sets[40]: 1340
Assign rand_sets[41]: 852  LLC: 2048
rand_sets[41]: 852
Assign rand_sets[42]: 1365  LLC: 2048
rand_sets[42]: 1365
Assign rand_sets[43]: 47  LLC: 2048
rand_sets[43]: 47
Assign rand_sets[44]: 823  LLC: 2048
rand_sets[44]: 823
Assign rand_sets[45]: 686  LLC: 2048
rand_sets[45]: 686
Assign rand_sets[46]: 1637  LLC: 2048
rand_sets[46]: 1637
Assign rand_sets[47]: 1115  LLC: 2048
rand_sets[47]: 1115
Assign rand_sets[48]: 986  LLC: 2048
rand_sets[48]: 986
Assign rand_sets[49]: 258  LLC: 2048
rand_sets[49]: 258
Assign rand_sets[50]: 633  LLC: 2048
rand_sets[50]: 633
Assign rand_sets[51]: 920  LLC: 2048
rand_sets[51]: 920
Assign rand_sets[52]: 204  LLC: 2048
rand_sets[52]: 204
Assign rand_sets[53]: 227  LLC: 2048
rand_sets[53]: 227
Assign rand_sets[54]: 1818  LLC: 2048
rand_sets[54]: 1818
Assign rand_sets[55]: 886  LLC: 2048
rand_sets[55]: 886
Assign rand_sets[56]: 1422  LLC: 2048
rand_sets[56]: 1422
Assign rand_sets[57]: 607  LLC: 2048
rand_sets[57]: 607
Assign rand_sets[58]: 217  LLC: 2048
rand_sets[58]: 217
Assign rand_sets[59]: 1945  LLC: 2048
rand_sets[59]: 1945
Assign rand_sets[60]: 143  LLC: 2048
rand_sets[60]: 143
Assign rand_sets[61]: 1311  LLC: 2048
rand_sets[61]: 1311
Assign rand_sets[62]: 319  LLC: 2048
rand_sets[62]: 319
Assign rand_sets[63]: 1846  LLC: 2048
rand_sets[63]: 1846
 CLEAN-RRIP-POLICY-1: 1-2-1-3-1-3-0-1- CLEAN-RRIP-POLICY-2: 1-2-1-3-1-3-0-1-
 DIRTY-RRIP-POLICY-1: 2-2-1-3-1-3-0-1- DIRTY-RRIP-POLICY-2: 2-2-1-3-1-3-0-1-
 PSEL width: 10
Heartbeat CPU 0 instructions: 10000002 cycles: 6559549 heartbeat IPC: 1.5245 cumulative IPC: 1.5245 (Simulation time: 0 hr 0 min 21 sec) 
Heartbeat CPU 0 instructions: 20000000 cycles: 12222128 heartbeat IPC: 1.76598 cumulative IPC: 1.63638 (Simulation time: 0 hr 0 min 40 sec) 
Heartbeat CPU 0 instructions: 30000003 cycles: 18203905 heartbeat IPC: 1.67174 cumulative IPC: 1.648 (Simulation time: 0 hr 1 min 0 sec) 
Heartbeat CPU 0 instructions: 40000000 cycles: 24059244 heartbeat IPC: 1.70784 cumulative IPC: 1.66256 (Simulation time: 0 hr 1 min 21 sec) 
Heartbeat CPU 0 instructions: 50000000 cycles: 29527682 heartbeat IPC: 1.82868 cumulative IPC: 1.69333 (Simulation time: 0 hr 1 min 41 sec) 
Heartbeat CPU 0 instructions: 60000000 cycles: 35640417 heartbeat IPC: 1.63593 cumulative IPC: 1.68348 (Simulation time: 0 hr 2 min 2 sec) 
Heartbeat CPU 0 instructions: 70000000 cycles: 41360131 heartbeat IPC: 1.74834 cumulative IPC: 1.69245 (Simulation time: 0 hr 2 min 22 sec) 
Heartbeat CPU 0 instructions: 80000000 cycles: 47231024 heartbeat IPC: 1.70332 cumulative IPC: 1.6938 (Simulation time: 0 hr 2 min 42 sec) 
Heartbeat CPU 0 instructions: 90000000 cycles: 52984507 heartbeat IPC: 1.73808 cumulative IPC: 1.69861 (Simulation time: 0 hr 3 min 2 sec) 
Heartbeat CPU 0 instructions: 100000000 cycles: 58537313 heartbeat IPC: 1.80089 cumulative IPC: 1.70831 (Simulation time: 0 hr 3 min 22 sec) 

Warmup complete CPU 0 instructions: 100000004 cycles: 58537315 (Simulation time: 0 hr 3 min 22 sec) 

Heartbeat CPU 0 instructions: 110000001 cycles: 72789928 heartbeat IPC: 0.701626 cumulative IPC: 0.701626 (Simulation time: 0 hr 3 min 47 sec) 
Heartbeat CPU 0 instructions: 120000000 cycles: 84397199 heartbeat IPC: 0.861529 cumulative IPC: 0.773399 (Simulation time: 0 hr 4 min 11 sec) 
Heartbeat CPU 0 instructions: 130000000 cycles: 94903643 heartbeat IPC: 0.951797 cumulative IPC: 0.824939 (Simulation time: 0 hr 4 min 34 sec) 
Heartbeat CPU 0 instructions: 140000000 cycles: 106048123 heartbeat IPC: 0.897305 cumulative IPC: 0.841914 (Simulation time: 0 hr 4 min 57 sec) 
Heartbeat CPU 0 instructions: 150000002 cycles: 117491922 heartbeat IPC: 0.873836 cumulative IPC: 0.84811 (Simulation time: 0 hr 5 min 21 sec) 
Heartbeat CPU 0 instructions: 160000000 cycles: 126635341 heartbeat IPC: 1.09368 cumulative IPC: 0.881083 (Simulation time: 0 hr 5 min 42 sec) 
Heartbeat CPU 0 instructions: 170000003 cycles: 137584561 heartbeat IPC: 0.913307 cumulative IPC: 0.885546 (Simulation time: 0 hr 6 min 5 sec) 
Heartbeat CPU 0 instructions: 180000000 cycles: 150496644 heartbeat IPC: 0.774468 cumulative IPC: 0.86995 (Simulation time: 0 hr 6 min 29 sec) 
Heartbeat CPU 0 instructions: 190000000 cycles: 165589249 heartbeat IPC: 0.662576 cumulative IPC: 0.840713 (Simulation time: 0 hr 6 min 53 sec) 
Heartbeat CPU 0 instructions: 200000000 cycles: 180673695 heartbeat IPC: 0.662935 cumulative IPC: 0.818757 (Simulation time: 0 hr 7 min 17 sec) 
Heartbeat CPU 0 instructions: 210000000 cycles: 195743375 heartbeat IPC: 0.663584 cumulative IPC: 0.801714 (Simulation time: 0 hr 7 min 41 sec) 
Heartbeat CPU 0 instructions: 220000000 cycles: 211560450 heartbeat IPC: 0.632228 cumulative IPC: 0.784195 (Simulation time: 0 hr 8 min 6 sec) 
Heartbeat CPU 0 instructions: 230000003 cycles: 230045300 heartbeat IPC: 0.540984 cumulative IPC: 0.757982 (Simulation time: 0 hr 8 min 34 sec) 
Heartbeat CPU 0 instructions: 240000000 cycles: 239662094 heartbeat IPC: 1.03985 cumulative IPC: 0.772948 (Simulation time: 0 hr 8 min 56 sec) 
Heartbeat CPU 0 instructions: 250000000 cycles: 248840949 heartbeat IPC: 1.08946 cumulative IPC: 0.788214 (Simulation time: 0 hr 9 min 17 sec) 
Heartbeat CPU 0 instructions: 260000000 cycles: 258557764 heartbeat IPC: 1.02914 cumulative IPC: 0.799918 (Simulation time: 0 hr 9 min 39 sec) 
Heartbeat CPU 0 instructions: 270000000 cycles: 268491239 heartbeat IPC: 1.0067 cumulative IPC: 0.809701 (Simulation time: 0 hr 10 min 2 sec) 
Heartbeat CPU 0 instructions: 280000000 cycles: 278362966 heartbeat IPC: 1.01299 cumulative IPC: 0.818831 (Simulation time: 0 hr 10 min 25 sec) 
Heartbeat CPU 0 instructions: 290000000 cycles: 288502275 heartbeat IPC: 0.986261 cumulative IPC: 0.826213 (Simulation time: 0 hr 10 min 49 sec) 
Heartbeat CPU 0 instructions: 300000000 cycles: 297359136 heartbeat IPC: 1.12907 cumulative IPC: 0.837444 (Simulation time: 0 hr 11 min 11 sec) 
Heartbeat CPU 0 instructions: 310000002 cycles: 311372671 heartbeat IPC: 0.713596 cumulative IPC: 0.83058 (Simulation time: 0 hr 11 min 37 sec) 
Heartbeat CPU 0 instructions: 320000000 cycles: 327470634 heartbeat IPC: 0.621197 cumulative IPC: 0.818047 (Simulation time: 0 hr 12 min 4 sec) 
Heartbeat CPU 0 instructions: 330000002 cycles: 338228587 heartbeat IPC: 0.929545 cumulative IPC: 0.822335 (Simulation time: 0 hr 12 min 27 sec) 
Heartbeat CPU 0 instructions: 340000000 cycles: 348782534 heartbeat IPC: 0.947513 cumulative IPC: 0.826887 (Simulation time: 0 hr 12 min 51 sec) 
Heartbeat CPU 0 instructions: 350000002 cycles: 362198434 heartbeat IPC: 0.745384 cumulative IPC: 0.823286 (Simulation time: 0 hr 13 min 16 sec) 
Heartbeat CPU 0 instructions: 360000000 cycles: 373325862 heartbeat IPC: 0.89868 cumulative IPC: 0.825951 (Simulation time: 0 hr 13 min 40 sec) 
Heartbeat CPU 0 instructions: 370000002 cycles: 384203473 heartbeat IPC: 0.91932 cumulative IPC: 0.82907 (Simulation time: 0 hr 14 min 3 sec) 
Heartbeat CPU 0 instructions: 380000000 cycles: 394740389 heartbeat IPC: 0.949044 cumulative IPC: 0.83283 (Simulation time: 0 hr 14 min 26 sec) 
Heartbeat CPU 0 instructions: 390000003 cycles: 412222369 heartbeat IPC: 0.572018 cumulative IPC: 0.819939 (Simulation time: 0 hr 14 min 54 sec) 
Heartbeat CPU 0 instructions: 400000000 cycles: 424249402 heartbeat IPC: 0.83146 cumulative IPC: 0.820317 (Simulation time: 0 hr 15 min 17 sec) 
Heartbeat CPU 0 instructions: 410000002 cycles: 434985173 heartbeat IPC: 0.931466 cumulative IPC: 0.823487 (Simulation time: 0 hr 15 min 39 sec) 
Heartbeat CPU 0 instructions: 420000000 cycles: 445221300 heartbeat IPC: 0.976932 cumulative IPC: 0.827549 (Simulation time: 0 hr 16 min 0 sec) 
Heartbeat CPU 0 instructions: 430000001 cycles: 455455567 heartbeat IPC: 0.97711 cumulative IPC: 0.831405 (Simulation time: 0 hr 16 min 22 sec) 
Heartbeat CPU 0 instructions: 440000000 cycles: 467292080 heartbeat IPC: 0.844843 cumulative IPC: 0.831795 (Simulation time: 0 hr 16 min 44 sec) 
Heartbeat CPU 0 instructions: 450000002 cycles: 482398511 heartbeat IPC: 0.66197 cumulative IPC: 0.825742 (Simulation time: 0 hr 17 min 8 sec) 
Heartbeat CPU 0 instructions: 460000000 cycles: 497489633 heartbeat IPC: 0.662641 cumulative IPC: 0.820135 (Simulation time: 0 hr 17 min 31 sec) 
Heartbeat CPU 0 instructions: 470000003 cycles: 512560147 heartbeat IPC: 0.663548 cumulative IPC: 0.814937 (Simulation time: 0 hr 17 min 54 sec) 
Heartbeat CPU 0 instructions: 480000000 cycles: 528322956 heartbeat IPC: 0.634404 cumulative IPC: 0.80888 (Simulation time: 0 hr 18 min 19 sec) 
Heartbeat CPU 0 instructions: 490000002 cycles: 546901035 heartbeat IPC: 0.538269 cumulative IPC: 0.798585 (Simulation time: 0 hr 18 min 47 sec) 
Heartbeat CPU 0 instructions: 500000000 cycles: 556456265 heartbeat IPC: 1.04655 cumulative IPC: 0.803344 (Simulation time: 0 hr 19 min 8 sec) 
Heartbeat CPU 0 instructions: 510000002 cycles: 565687749 heartbeat IPC: 1.08325 cumulative IPC: 0.808439 (Simulation time: 0 hr 19 min 29 sec) 
Heartbeat CPU 0 instructions: 520000000 cycles: 575392006 heartbeat IPC: 1.03048 cumulative IPC: 0.812607 (Simulation time: 0 hr 19 min 50 sec) 
Heartbeat CPU 0 instructions: 530000002 cycles: 585346266 heartbeat IPC: 1.0046 cumulative IPC: 0.816235 (Simulation time: 0 hr 20 min 12 sec) 
Heartbeat CPU 0 instructions: 540000000 cycles: 595160547 heartbeat IPC: 1.01892 cumulative IPC: 0.819942 (Simulation time: 0 hr 20 min 35 sec) 
Heartbeat CPU 0 instructions: 550000002 cycles: 605337756 heartbeat IPC: 0.982588 cumulative IPC: 0.822969 (Simulation time: 0 hr 20 min 59 sec) 
Heartbeat CPU 0 instructions: 560000000 cycles: 614197502 heartbeat IPC: 1.1287 cumulative IPC: 0.827844 (Simulation time: 0 hr 21 min 21 sec) 
Heartbeat CPU 0 instructions: 570000001 cycles: 628028719 heartbeat IPC: 0.723002 cumulative IPC: 0.825298 (Simulation time: 0 hr 21 min 46 sec) 
Heartbeat CPU 0 instructions: 580000000 cycles: 644264684 heartbeat IPC: 0.615916 cumulative IPC: 0.819494 (Simulation time: 0 hr 22 min 13 sec) 
Heartbeat CPU 0 instructions: 590000002 cycles: 654532786 heartbeat IPC: 0.97389 cumulative IPC: 0.822154 (Simulation time: 0 hr 22 min 36 sec) 
Heartbeat CPU 0 instructions: 600000000 cycles: 665575508 heartbeat IPC: 0.905574 cumulative IPC: 0.823671 (Simulation time: 0 hr 22 min 59 sec) 
Finished CPU 0 instructions: 500000000 cycles: 607038212 cumulative IPC: 0.823671 (Simulation time: 0 hr 22 min 59 sec) 

CPU 0 Branch Prediction Accuracy: 99.5219% MPKI: 0.251582
Number of Branches: 26312578 Number of Mispredictions: 125791
Number of LOAD Instructions: 235643083
Number of LOAD Instructions (ROI): 235643083
Number of STORE Instructions: 37593550
Number of STORE Instructions (ROI): 37593550
Total Destination Memory Operands: 40480968
Total Destination Memory Operands (ROI): 40480968
Total Source Memory Operands: 235643083
Total Source Memory Operands (ROI): 235643083
Number of DEPENDED LOADS: 6699925
Number of DEPENDED LOADS (ROI): 6699925
Number of SQ_ADDED: 40480950
Number of SQ_ADDED (ROI): 40480950
Number of LQ_ADDED: 390986620
Number of LQ_ADDED (ROI): 390986620
Number of Instructions read from trace: 600000259

ChampSim completed all CPUs

Region of Interest Statistics

CPU 0 cumulative IPC: 0.823671 instructions: 500000000 cycles: 607038212
ITLB TOTAL     ACCESS:  109367051  HIT:  109366538  MISS:        513
ITLB LOAD      ACCESS:  109367051  HIT:  109366538  MISS:        513
ITLB RFO       ACCESS:          0  HIT:          0  MISS:          0
ITLB PREFETCH  ACCESS:          0  HIT:          0  MISS:          0
ITLB WRITEBACK ACCESS:          0  HIT:          0  MISS:          0
ITLB PREFETCH  REQUESTED:          0  ISSUED:          0  USEFUL:          0  USELESS:          0
ITLB TOTAL MSHR MERGED:        969
ITLB LOAD MSHR MERGED:        969
ITLB RFO MSHR MERGED:          0
ITLB PREFETCH MSHR MERGED:          0
ITLB WRITEBACK MSHR MERGED:          0
ITLB TOTAL ACCESSES:  109368020 HITS:  109366538 MISSES:       1482
ITLB LOAD ACCESSES:  109368020 HITS:  109366538 MISSES:       1482
ITLB RFO ACCESSES:          0 HITS:          0 MISSES:          0
ITLB PREFETCH ACCESSES:          0 HITS:          0 MISSES:          0
ITLB WRITEBACK ACCESSES:          0 HITS:          0 MISSES:          0
ITLB RQ ACCESS:  500000003
ITLB RQ TO_CACHE:  109368020
ITLB RQ MERGED:  390631983
ITLB RQ FORWARD:          0
ITLB WQ ACCESS:          0
ITLB WQ TO_CACHE:          0
ITLB WQ MERGED:          0
ITLB WQ FORWARD:          0
DTLB TOTAL     ACCESS:  130436730  HIT:  130179097  MISS:     257633
DTLB LOAD      ACCESS:  109068541  HIT:  108847765  MISS:     220776
DTLB RFO       ACCESS:   21368189  HIT:   21331332  MISS:      36857
DTLB PREFETCH  ACCESS:          0  HIT:          0  MISS:          0
DTLB WRITEBACK ACCESS:          0  HIT:          0  MISS:          0
DTLB PREFETCH  REQUESTED:          0  ISSUED:          0  USEFUL:          0  USELESS:          0
DTLB TOTAL MSHR MERGED:     121646
DTLB LOAD MSHR MERGED:      83618
DTLB RFO MSHR MERGED:      38028
DTLB PREFETCH MSHR MERGED:          0
DTLB WRITEBACK MSHR MERGED:          0
DTLB TOTAL ACCESSES:  130558376 HITS:  130179097 MISSES:     379279
DTLB LOAD ACCESSES:  109152159 HITS:  108847765 MISSES:     304394
DTLB RFO ACCESSES:   21406217 HITS:   21331332 MISSES:      74885
DTLB PREFETCH ACCESSES:          0 HITS:          0 MISSES:          0
DTLB WRITEBACK ACCESSES:          0 HITS:          0 MISSES:          0
DTLB RQ ACCESS:  218634486
DTLB RQ TO_CACHE:  130558377
DTLB RQ MERGED:   88076109
DTLB RQ FORWARD:          0
DTLB WQ ACCESS:          0
DTLB WQ TO_CACHE:          0
DTLB WQ MERGED:          0
DTLB WQ FORWARD:          0
L1D TOTAL     ACCESS:  204632151  HIT:  193556863  MISS:   11075288
L1D LOAD      ACCESS:  106254575  HIT:  103064629  MISS:    3189946
L1D RFO       ACCESS:   26948705  HIT:   25199055  MISS:    1749650
L1D PREFETCH  ACCESS:   71428871  HIT:   65293179  MISS:    6135692
L1D WRITEBACK ACCESS:          0  HIT:          0  MISS:          0
L1D PREFETCH  REQUESTED:  108949317  ISSUED:  107288048  USEFUL:    5677639  USELESS:     458047
L1D TOTAL MSHR MERGED:   18389240
L1D LOAD MSHR MERGED:    4721980
L1D RFO MSHR MERGED:    6486208
L1D PREFETCH MSHR MERGED:    7181052
L1D WRITEBACK MSHR MERGED:          0
L1D TOTAL ACCESSES:  223084129 HITS:  193619601 MISSES:   29464528
L1D LOAD ACCESSES:  108975846 HITS:  103091158 MISSES:    5884688
L1D RFO ACCESSES:   33432939 HITS:   25199055 MISSES:    8233884
L1D PREFETCH ACCESSES:   80675344 HITS:   65329388 MISSES:   15345956
L1D WRITEBACK ACCESSES:          0 HITS:          0 MISSES:          0
L1D RQ ACCESS:  184991048
L1D RQ TO_CACHE:  108949317
L1D RQ MERGED:   76015202
L1D RQ FORWARD:          0
L1D WQ ACCESS:   33643426
L1D WQ TO_CACHE:   33432938
L1D WQ MERGED:     210488
L1D WQ FORWARD:      62738
L1I TOTAL     ACCESS:  134049911  HIT:  134025333  MISS:      24578
L1I LOAD      ACCESS:  134049911  HIT:  134025333  MISS:      24578
L1I RFO       ACCESS:          0  HIT:          0  MISS:          0
L1I PREFETCH  ACCESS:          0  HIT:          0  MISS:          0
L1I WRITEBACK ACCESS:          0  HIT:          0  MISS:          0
L1I PREFETCH  REQUESTED:          0  ISSUED:          0  USEFUL:          0  USELESS:          0
L1I TOTAL MSHR MERGED:      30311
L1I LOAD MSHR MERGED:      30311
L1I RFO MSHR MERGED:          0
L1I PREFETCH MSHR MERGED:          0
L1I WRITEBACK MSHR MERGED:          0
L1I TOTAL ACCESSES:  134080222 HITS:  134025333 MISSES:      54889
L1I LOAD ACCESSES:  134080222 HITS:  134025333 MISSES:      54889
L1I RFO ACCESSES:          0 HITS:          0 MISSES:          0
L1I PREFETCH ACCESSES:          0 HITS:          0 MISSES:          0
L1I WRITEBACK ACCESSES:          0 HITS:          0 MISSES:          0
L1I RQ ACCESS:  500000005
L1I RQ TO_CACHE:  134080222
L1I RQ MERGED:  365919783
L1I RQ FORWARD:          0
L1I WQ ACCESS:          0
L1I WQ TO_CACHE:          0
L1I WQ MERGED:          0
L1I WQ FORWARD:          0
L2C TOTAL     ACCESS:   14941978  HIT:    6943298  MISS:    7998680
L2C LOAD      ACCESS:    1187098  HIT:     298375  MISS:     888723
L2C RFO       ACCESS:    1747472  HIT:     369331  MISS:    1378141
L2C PREFETCH  ACCESS:    8325413  HIT:    2602285  MISS:    5723128
L2C WRITEBACK ACCESS:    3681995  HIT:    3673307  MISS:       8688
L2C PREFETCH  REQUESTED:     387068  ISSUED:     387068  USEFUL:     113843  USELESS:    5610120
L2C TOTAL MSHR MERGED:      41862
L2C LOAD MSHR MERGED:       2296
L2C RFO MSHR MERGED:       1263
L2C PREFETCH MSHR MERGED:      38303
L2C WRITEBACK MSHR MERGED:          0
L2C TOTAL ACCESSES:   15105601 HITS:    6943961 MISSES:    8161640
L2C LOAD ACCESSES:    1187286 HITS:     298563 MISSES:     888723
L2C RFO ACCESSES:    1747676 HITS:     369535 MISSES:    1378141
L2C PREFETCH ACCESSES:    8488644 HITS:    2602556 MISSES:    5886088
L2C WRITEBACK ACCESSES:    3681995 HITS:    3673307 MISSES:       8688
L2C RQ ACCESS:    2934962
L2C RQ TO_CACHE:    2934570
L2C RQ MERGED:          0
L2C RQ FORWARD:          0
L2C WQ ACCESS:    3681995
L2C WQ TO_CACHE:    3681995
L2C WQ MERGED:          0
L2C WQ FORWARD:        663
LLC TOTAL     ACCESS:   11185942  HIT:    2740609  MISS:    8445333
LLC LOAD      ACCESS:     886423  HIT:     281214  MISS:     605209
LLC RFO       ACCESS:    1376876  HIT:     203381  MISS:    1173495
LLC PREFETCH  ACCESS:    5817907  HIT:    1070638  MISS:    4747269
LLC WRITEBACK ACCESS:    3104736  HIT:    1185376  MISS:    1919360
LLC PREFETCH  REQUESTED:          0  ISSUED:          0  USEFUL:      30788  USELESS:    4716253
LLC TOTAL MSHR MERGED:      22614
LLC LOAD MSHR MERGED:       6845
LLC RFO MSHR MERGED:        591
LLC PREFETCH MSHR MERGED:      15178
LLC WRITEBACK MSHR MERGED:          0
LLC TOTAL ACCESSES:   11208567 HITS:    2740620 MISSES:    8467947
LLC LOAD ACCESSES:     886427 HITS:     281218 MISSES:     605209
LLC RFO ACCESSES:    1376878 HITS:     203383 MISSES:    1173495
LLC PREFETCH ACCESSES:    5840526 HITS:    1070643 MISSES:    4769883
LLC WRITEBACK ACCESSES:    3104736 HITS:    1185376 MISSES:    1919360
LLC 0 RQ ACCESS:    2263305
LLC 0 RQ TO_CACHE:    2263299
LLC 0 RQ MERGED:          0
LLC 0 RQ FORWARD:          0
LLC WQ ACCESS:    3104736
LLC WQ TO_CACHE:    3104736
LLC WQ MERGED:          0
LLC WQ FORWARD:         11
Major fault: 0 Minor fault: 11519
CPU 0 L1D next line prefetcher final stats
CPU 0 L2C PC-based stride prefetcher final stats
All Misses: 10594890
All Hits: 3202192
SD Algo Stats - Switches: 0 SRR-Repls: 680729 BRR-Repls: 0

DRAM Statistics
 CHANNEL 0
 RQ ROW_BUFFER_HIT:    3917920  ROW_BUFFER_MISS:    2607313
 DBUS_CONGESTED:    4593046
 WQ ROW_BUFFER_HIT:     544207  ROW_BUFFER_MISS:    1777993  FULL:        146

 AVG_CONGESTED_CYCLE: 13
LOADS RETIRED: 190375692
INSTR RETIRED: 500000000
