
*** ChampSim Multicore Out-of-Order Simulator ***

Warmup Instructions: 100000000
Simulation Instructions: 500000000
Number of CPUs: 1
LLC sets: 2048
LLC ways: 16
Clean RRIP Policies: 2213231222132312 Dirty RRIP Policies: 1203130212031302 PSEL Width: 10 Track Set: 4294967295 PSEL Mask: 1 Demote Mask: 1040100010401000DS Algo: 0Window size: 0
Off-chip DRAM Size: 4096 MB Channels: 1 Width: 64-bit Data Rate: 1600 MT/s

CPU 0 runs /mnt/beegfs/iconst01/spec2017/x264.trace.gz
NOT SORTED
TRACE STRING: /mnt/beegfs/iconst01/spec2017/x264.trace.gz
SORTED
TRACE STRING: /mnt/beegfs/iconst01/spec2017/x264.trace.gz
INITIAL
TRACE STRING: /mnt/beegfs/iconst01/spec2017/x264.trace.gz

champsim_seed used: 276

CPU 0 L1D next line prefetcher
CPU 0 L2C IP-based stride prefetcher
Initialize DRRIP state
Assign rand_sets[0]: 454  LLC: 2048
rand_sets[0]: 454
Assign rand_sets[1]: 1662  LLC: 2048
rand_sets[1]: 1662
Assign rand_sets[2]: 1921  LLC: 2048
rand_sets[2]: 1921
Assign rand_sets[3]: 1131  LLC: 2048
rand_sets[3]: 1131
Assign rand_sets[4]: 331  LLC: 2048
rand_sets[4]: 331
Assign rand_sets[5]: 1531  LLC: 2048
rand_sets[5]: 1531
Assign rand_sets[6]: 482  LLC: 2048
rand_sets[6]: 482
Assign rand_sets[7]: 1275  LLC: 2048
rand_sets[7]: 1275
Assign rand_sets[8]: 1876  LLC: 2048
rand_sets[8]: 1876
Assign rand_sets[9]: 2038  LLC: 2048
rand_sets[9]: 2038
Assign rand_sets[10]: 701  LLC: 2048
rand_sets[10]: 701
Assign rand_sets[11]: 479  LLC: 2048
rand_sets[11]: 479
Assign rand_sets[12]: 892  LLC: 2048
rand_sets[12]: 892
Assign rand_sets[13]: 1820  LLC: 2048
rand_sets[13]: 1820
Assign rand_sets[14]: 1505  LLC: 2048
rand_sets[14]: 1505
Assign rand_sets[15]: 1159  LLC: 2048
rand_sets[15]: 1159
Assign rand_sets[16]: 513  LLC: 2048
rand_sets[16]: 513
Assign rand_sets[17]: 703  LLC: 2048
rand_sets[17]: 703
Assign rand_sets[18]: 561  LLC: 2048
rand_sets[18]: 561
Assign rand_sets[19]: 990  LLC: 2048
rand_sets[19]: 990
Assign rand_sets[20]: 342  LLC: 2048
rand_sets[20]: 342
Assign rand_sets[21]: 882  LLC: 2048
rand_sets[21]: 882
Assign rand_sets[22]: 15  LLC: 2048
rand_sets[22]: 15
Assign rand_sets[23]: 71  LLC: 2048
rand_sets[23]: 71
Assign rand_sets[24]: 1127  LLC: 2048
rand_sets[24]: 1127
Assign rand_sets[25]: 1382  LLC: 2048
rand_sets[25]: 1382
Assign rand_sets[26]: 647  LLC: 2048
rand_sets[26]: 647
Assign rand_sets[27]: 857  LLC: 2048
rand_sets[27]: 857
Assign rand_sets[28]: 1450  LLC: 2048
rand_sets[28]: 1450
Assign rand_sets[29]: 1160  LLC: 2048
rand_sets[29]: 1160
Assign rand_sets[30]: 1852  LLC: 2048
rand_sets[30]: 1852
Assign rand_sets[31]: 1881  LLC: 2048
rand_sets[31]: 1881
Assign rand_sets[32]: 1770  LLC: 2048
rand_sets[32]: 1770
Assign rand_sets[33]: 1622  LLC: 2048
rand_sets[33]: 1622
Assign rand_sets[34]: 275  LLC: 2048
rand_sets[34]: 275
Assign rand_sets[35]: 635  LLC: 2048
rand_sets[35]: 635
Assign rand_sets[36]: 466  LLC: 2048
rand_sets[36]: 466
Assign rand_sets[37]: 1413  LLC: 2048
rand_sets[37]: 1413
Assign rand_sets[38]: 417  LLC: 2048
rand_sets[38]: 417
Assign rand_sets[39]: 472  LLC: 2048
rand_sets[39]: 472
Assign rand_sets[40]: 1340  LLC: 2048
rand_sets[40]: 1340
Assign rand_sets[41]: 852  LLC: 2048
rand_sets[41]: 852
Assign rand_sets[42]: 1365  LLC: 2048
rand_sets[42]: 1365
Assign rand_sets[43]: 47  LLC: 2048
rand_sets[43]: 47
Assign rand_sets[44]: 823  LLC: 2048
rand_sets[44]: 823
Assign rand_sets[45]: 686  LLC: 2048
rand_sets[45]: 686
Assign rand_sets[46]: 1637  LLC: 2048
rand_sets[46]: 1637
Assign rand_sets[47]: 1115  LLC: 2048
rand_sets[47]: 1115
Assign rand_sets[48]: 986  LLC: 2048
rand_sets[48]: 986
Assign rand_sets[49]: 258  LLC: 2048
rand_sets[49]: 258
Assign rand_sets[50]: 633  LLC: 2048
rand_sets[50]: 633
Assign rand_sets[51]: 920  LLC: 2048
rand_sets[51]: 920
Assign rand_sets[52]: 204  LLC: 2048
rand_sets[52]: 204
Assign rand_sets[53]: 227  LLC: 2048
rand_sets[53]: 227
Assign rand_sets[54]: 1818  LLC: 2048
rand_sets[54]: 1818
Assign rand_sets[55]: 886  LLC: 2048
rand_sets[55]: 886
Assign rand_sets[56]: 1422  LLC: 2048
rand_sets[56]: 1422
Assign rand_sets[57]: 607  LLC: 2048
rand_sets[57]: 607
Assign rand_sets[58]: 217  LLC: 2048
rand_sets[58]: 217
Assign rand_sets[59]: 1945  LLC: 2048
rand_sets[59]: 1945
Assign rand_sets[60]: 143  LLC: 2048
rand_sets[60]: 143
Assign rand_sets[61]: 1311  LLC: 2048
rand_sets[61]: 1311
Assign rand_sets[62]: 319  LLC: 2048
rand_sets[62]: 319
Assign rand_sets[63]: 1846  LLC: 2048
rand_sets[63]: 1846
 CLEAN-RRIP-POLICY-1: 2-2-1-3-2-3-1-2- CLEAN-RRIP-POLICY-2: 2-2-1-3-2-3-1-2-
 DIRTY-RRIP-POLICY-1: 1-2-0-3-1-3-0-2- DIRTY-RRIP-POLICY-2: 1-2-0-3-1-3-0-2-
 PSEL width: 10
Heartbeat CPU 0 instructions: 10000000 cycles: 4124759 heartbeat IPC: 2.42438 cumulative IPC: 2.42438 (Simulation time: 0 hr 0 min 14 sec) 
Heartbeat CPU 0 instructions: 20000000 cycles: 8233863 heartbeat IPC: 2.43362 cumulative IPC: 2.42899 (Simulation time: 0 hr 0 min 27 sec) 
Heartbeat CPU 0 instructions: 30000003 cycles: 12464696 heartbeat IPC: 2.3636 cumulative IPC: 2.4068 (Simulation time: 0 hr 0 min 40 sec) 
Heartbeat CPU 0 instructions: 40000000 cycles: 16636669 heartbeat IPC: 2.39695 cumulative IPC: 2.40433 (Simulation time: 0 hr 0 min 53 sec) 
Heartbeat CPU 0 instructions: 50000000 cycles: 20699150 heartbeat IPC: 2.46155 cumulative IPC: 2.41556 (Simulation time: 0 hr 1 min 6 sec) 
Heartbeat CPU 0 instructions: 60000000 cycles: 25022635 heartbeat IPC: 2.31295 cumulative IPC: 2.39783 (Simulation time: 0 hr 1 min 19 sec) 
Heartbeat CPU 0 instructions: 70000000 cycles: 29370931 heartbeat IPC: 2.29975 cumulative IPC: 2.38331 (Simulation time: 0 hr 1 min 31 sec) 
Heartbeat CPU 0 instructions: 80000000 cycles: 33721082 heartbeat IPC: 2.29877 cumulative IPC: 2.3724 (Simulation time: 0 hr 1 min 44 sec) 
Heartbeat CPU 0 instructions: 90000002 cycles: 38032066 heartbeat IPC: 2.31966 cumulative IPC: 2.36642 (Simulation time: 0 hr 1 min 57 sec) 
Heartbeat CPU 0 instructions: 100000000 cycles: 42328977 heartbeat IPC: 2.32725 cumulative IPC: 2.36245 (Simulation time: 0 hr 2 min 10 sec) 

Warmup complete CPU 0 instructions: 100000001 cycles: 42328978 (Simulation time: 0 hr 2 min 10 sec) 

Heartbeat CPU 0 instructions: 110000001 cycles: 49385905 heartbeat IPC: 1.41705 cumulative IPC: 1.41705 (Simulation time: 0 hr 2 min 26 sec) 
Heartbeat CPU 0 instructions: 120000000 cycles: 58885356 heartbeat IPC: 1.05269 cumulative IPC: 1.20799 (Simulation time: 0 hr 2 min 45 sec) 
Heartbeat CPU 0 instructions: 130000000 cycles: 63696859 heartbeat IPC: 2.07835 cumulative IPC: 1.40398 (Simulation time: 0 hr 3 min 1 sec) 
Heartbeat CPU 0 instructions: 140000000 cycles: 68612299 heartbeat IPC: 2.03441 cumulative IPC: 1.52188 (Simulation time: 0 hr 3 min 17 sec) 
Heartbeat CPU 0 instructions: 150000002 cycles: 75444928 heartbeat IPC: 1.46357 cumulative IPC: 1.50985 (Simulation time: 0 hr 3 min 34 sec) 
Heartbeat CPU 0 instructions: 160000000 cycles: 83282134 heartbeat IPC: 1.27596 cumulative IPC: 1.46509 (Simulation time: 0 hr 3 min 51 sec) 
Heartbeat CPU 0 instructions: 170000000 cycles: 90683737 heartbeat IPC: 1.35106 cumulative IPC: 1.44763 (Simulation time: 0 hr 4 min 8 sec) 
Heartbeat CPU 0 instructions: 180000000 cycles: 97988945 heartbeat IPC: 1.36889 cumulative IPC: 1.4373 (Simulation time: 0 hr 4 min 25 sec) 
Heartbeat CPU 0 instructions: 190000002 cycles: 105159468 heartbeat IPC: 1.3946 cumulative IPC: 1.43243 (Simulation time: 0 hr 4 min 41 sec) 
Heartbeat CPU 0 instructions: 200000000 cycles: 112390108 heartbeat IPC: 1.383 cumulative IPC: 1.42733 (Simulation time: 0 hr 4 min 58 sec) 
Heartbeat CPU 0 instructions: 210000000 cycles: 119265135 heartbeat IPC: 1.45454 cumulative IPC: 1.42976 (Simulation time: 0 hr 5 min 14 sec) 
Heartbeat CPU 0 instructions: 220000000 cycles: 126039022 heartbeat IPC: 1.47626 cumulative IPC: 1.43352 (Simulation time: 0 hr 5 min 30 sec) 
Heartbeat CPU 0 instructions: 230000003 cycles: 132766819 heartbeat IPC: 1.48637 cumulative IPC: 1.43745 (Simulation time: 0 hr 5 min 46 sec) 
Heartbeat CPU 0 instructions: 240000000 cycles: 139516497 heartbeat IPC: 1.48155 cumulative IPC: 1.44051 (Simulation time: 0 hr 6 min 2 sec) 
Heartbeat CPU 0 instructions: 250000001 cycles: 146243074 heartbeat IPC: 1.48664 cumulative IPC: 1.4435 (Simulation time: 0 hr 6 min 18 sec) 
Heartbeat CPU 0 instructions: 260000000 cycles: 152947858 heartbeat IPC: 1.49147 cumulative IPC: 1.44641 (Simulation time: 0 hr 6 min 33 sec) 
Heartbeat CPU 0 instructions: 270000001 cycles: 159925719 heartbeat IPC: 1.4331 cumulative IPC: 1.44562 (Simulation time: 0 hr 6 min 50 sec) 
Heartbeat CPU 0 instructions: 280000000 cycles: 167459442 heartbeat IPC: 1.32736 cumulative IPC: 1.4385 (Simulation time: 0 hr 7 min 6 sec) 
Heartbeat CPU 0 instructions: 290000000 cycles: 175377312 heartbeat IPC: 1.26297 cumulative IPC: 1.42805 (Simulation time: 0 hr 7 min 23 sec) 
Heartbeat CPU 0 instructions: 300000000 cycles: 183550242 heartbeat IPC: 1.22355 cumulative IPC: 1.41622 (Simulation time: 0 hr 7 min 41 sec) 
Heartbeat CPU 0 instructions: 310000002 cycles: 191861253 heartbeat IPC: 1.20322 cumulative IPC: 1.40438 (Simulation time: 0 hr 7 min 58 sec) 
Heartbeat CPU 0 instructions: 320000000 cycles: 201847154 heartbeat IPC: 1.00141 cumulative IPC: 1.37915 (Simulation time: 0 hr 8 min 17 sec) 
Heartbeat CPU 0 instructions: 330000002 cycles: 206480081 heartbeat IPC: 2.15846 cumulative IPC: 1.40115 (Simulation time: 0 hr 8 min 34 sec) 
Heartbeat CPU 0 instructions: 340000000 cycles: 211714119 heartbeat IPC: 1.91057 cumulative IPC: 1.41689 (Simulation time: 0 hr 8 min 50 sec) 
Heartbeat CPU 0 instructions: 350000000 cycles: 218933908 heartbeat IPC: 1.38508 cumulative IPC: 1.41559 (Simulation time: 0 hr 9 min 7 sec) 
Heartbeat CPU 0 instructions: 360000000 cycles: 226593392 heartbeat IPC: 1.30557 cumulative IPC: 1.41102 (Simulation time: 0 hr 9 min 24 sec) 
Heartbeat CPU 0 instructions: 370000000 cycles: 234000779 heartbeat IPC: 1.35 cumulative IPC: 1.40866 (Simulation time: 0 hr 9 min 41 sec) 
Heartbeat CPU 0 instructions: 380000000 cycles: 241273807 heartbeat IPC: 1.37494 cumulative IPC: 1.40743 (Simulation time: 0 hr 9 min 57 sec) 
Heartbeat CPU 0 instructions: 390000000 cycles: 249392488 heartbeat IPC: 1.23173 cumulative IPC: 1.40054 (Simulation time: 0 hr 10 min 15 sec) 
Heartbeat CPU 0 instructions: 400000000 cycles: 257593570 heartbeat IPC: 1.21935 cumulative IPC: 1.39363 (Simulation time: 0 hr 10 min 32 sec) 
Heartbeat CPU 0 instructions: 410000001 cycles: 265413209 heartbeat IPC: 1.27883 cumulative IPC: 1.38961 (Simulation time: 0 hr 10 min 49 sec) 
Heartbeat CPU 0 instructions: 420000000 cycles: 273466419 heartbeat IPC: 1.24174 cumulative IPC: 1.38446 (Simulation time: 0 hr 11 min 6 sec) 
Heartbeat CPU 0 instructions: 430000001 cycles: 281722592 heartbeat IPC: 1.21122 cumulative IPC: 1.37848 (Simulation time: 0 hr 11 min 24 sec) 
Heartbeat CPU 0 instructions: 440000000 cycles: 289764291 heartbeat IPC: 1.24352 cumulative IPC: 1.3741 (Simulation time: 0 hr 11 min 41 sec) 
Heartbeat CPU 0 instructions: 450000001 cycles: 297636462 heartbeat IPC: 1.2703 cumulative IPC: 1.3709 (Simulation time: 0 hr 11 min 58 sec) 
Heartbeat CPU 0 instructions: 460000000 cycles: 307569691 heartbeat IPC: 1.00672 cumulative IPC: 1.35726 (Simulation time: 0 hr 12 min 17 sec) 
Heartbeat CPU 0 instructions: 470000002 cycles: 312193589 heartbeat IPC: 2.16268 cumulative IPC: 1.37106 (Simulation time: 0 hr 12 min 33 sec) 
Heartbeat CPU 0 instructions: 480000000 cycles: 317451138 heartbeat IPC: 1.90203 cumulative IPC: 1.3812 (Simulation time: 0 hr 12 min 49 sec) 
Heartbeat CPU 0 instructions: 490000001 cycles: 324767359 heartbeat IPC: 1.36683 cumulative IPC: 1.38083 (Simulation time: 0 hr 13 min 7 sec) 
Heartbeat CPU 0 instructions: 500000000 cycles: 333497539 heartbeat IPC: 1.14545 cumulative IPC: 1.37377 (Simulation time: 0 hr 13 min 27 sec) 
Heartbeat CPU 0 instructions: 510000002 cycles: 342230099 heartbeat IPC: 1.14514 cumulative IPC: 1.36712 (Simulation time: 0 hr 13 min 46 sec) 
Heartbeat CPU 0 instructions: 520000000 cycles: 350961218 heartbeat IPC: 1.14533 cumulative IPC: 1.36084 (Simulation time: 0 hr 14 min 5 sec) 
Heartbeat CPU 0 instructions: 530000000 cycles: 359668539 heartbeat IPC: 1.14846 cumulative IPC: 1.35502 (Simulation time: 0 hr 14 min 24 sec) 
Heartbeat CPU 0 instructions: 540000000 cycles: 367923618 heartbeat IPC: 1.21138 cumulative IPC: 1.35137 (Simulation time: 0 hr 14 min 43 sec) 
Heartbeat CPU 0 instructions: 550000000 cycles: 374963494 heartbeat IPC: 1.42048 cumulative IPC: 1.35284 (Simulation time: 0 hr 15 min 0 sec) 
Heartbeat CPU 0 instructions: 560000000 cycles: 381576959 heartbeat IPC: 1.51207 cumulative IPC: 1.35594 (Simulation time: 0 hr 15 min 16 sec) 
Heartbeat CPU 0 instructions: 570000002 cycles: 388172062 heartbeat IPC: 1.51628 cumulative IPC: 1.359 (Simulation time: 0 hr 15 min 33 sec) 
Heartbeat CPU 0 instructions: 580000000 cycles: 394822394 heartbeat IPC: 1.50368 cumulative IPC: 1.36173 (Simulation time: 0 hr 15 min 49 sec) 
Heartbeat CPU 0 instructions: 590000002 cycles: 401507826 heartbeat IPC: 1.49579 cumulative IPC: 1.36422 (Simulation time: 0 hr 16 min 6 sec) 
Heartbeat CPU 0 instructions: 600000000 cycles: 408317403 heartbeat IPC: 1.46852 cumulative IPC: 1.36616 (Simulation time: 0 hr 16 min 22 sec) 
Finished CPU 0 instructions: 500000000 cycles: 365988433 cumulative IPC: 1.36616 (Simulation time: 0 hr 16 min 22 sec) 

CPU 0 Branch Prediction Accuracy: 93.4682% MPKI: 2.44079
Number of Branches: 18683822 Number of Mispredictions: 1220394
Number of LOAD Instructions: 142551610
Number of LOAD Instructions (ROI): 142551610
Number of STORE Instructions: 44807454
Number of STORE Instructions (ROI): 44807454
Total Destination Memory Operands: 48357071
Total Destination Memory Operands (ROI): 48357071
Total Source Memory Operands: 142551610
Total Source Memory Operands (ROI): 142551610
Number of DEPENDED LOADS: 7395137
Number of DEPENDED LOADS (ROI): 7395137
Number of SQ_ADDED: 48357051
Number of SQ_ADDED (ROI): 48357051
Number of LQ_ADDED: 157210598
Number of LQ_ADDED (ROI): 157210598
Number of Instructions read from trace: 600000256

ChampSim completed all CPUs

Region of Interest Statistics

CPU 0 cumulative IPC: 1.36616 instructions: 500000000 cycles: 365988433
ITLB TOTAL     ACCESS:   88177336  HIT:   88177267  MISS:         69
ITLB LOAD      ACCESS:   88177336  HIT:   88177267  MISS:         69
ITLB RFO       ACCESS:          0  HIT:          0  MISS:          0
ITLB PREFETCH  ACCESS:          0  HIT:          0  MISS:          0
ITLB WRITEBACK ACCESS:          0  HIT:          0  MISS:          0
ITLB PREFETCH  REQUESTED:          0  ISSUED:          0  USEFUL:          0  USELESS:          0
ITLB TOTAL MSHR MERGED:         86
ITLB LOAD MSHR MERGED:         86
ITLB RFO MSHR MERGED:          0
ITLB PREFETCH MSHR MERGED:          0
ITLB WRITEBACK MSHR MERGED:          0
ITLB TOTAL ACCESSES:   88177422 HITS:   88177267 MISSES:        155
ITLB LOAD ACCESSES:   88177422 HITS:   88177267 MISSES:        155
ITLB RFO ACCESSES:          0 HITS:          0 MISSES:          0
ITLB PREFETCH ACCESSES:          0 HITS:          0 MISSES:          0
ITLB WRITEBACK ACCESSES:          0 HITS:          0 MISSES:          0
ITLB RQ ACCESS:  500000000
ITLB RQ TO_CACHE:   88177422
ITLB RQ MERGED:  411822578
ITLB RQ FORWARD:          0
ITLB WQ ACCESS:          0
ITLB WQ TO_CACHE:          0
ITLB WQ MERGED:          0
ITLB WQ FORWARD:          0
DTLB TOTAL     ACCESS:   88203189  HIT:   88075774  MISS:     127415
DTLB LOAD      ACCESS:   59485368  HIT:   59392900  MISS:      92468
DTLB RFO       ACCESS:   28717821  HIT:   28682874  MISS:      34947
DTLB PREFETCH  ACCESS:          0  HIT:          0  MISS:          0
DTLB WRITEBACK ACCESS:          0  HIT:          0  MISS:          0
DTLB PREFETCH  REQUESTED:          0  ISSUED:          0  USEFUL:          0  USELESS:          0
DTLB TOTAL MSHR MERGED:     141152
DTLB LOAD MSHR MERGED:     107675
DTLB RFO MSHR MERGED:      33477
DTLB PREFETCH MSHR MERGED:          0
DTLB WRITEBACK MSHR MERGED:          0
DTLB TOTAL ACCESSES:   88344341 HITS:   88075774 MISSES:     268567
DTLB LOAD ACCESSES:   59593043 HITS:   59392900 MISSES:     200143
DTLB RFO ACCESSES:   28751298 HITS:   28682874 MISSES:      68424
DTLB PREFETCH ACCESSES:          0 HITS:          0 MISSES:          0
DTLB WRITEBACK ACCESSES:          0 HITS:          0 MISSES:          0
DTLB RQ ACCESS:  154558769
DTLB RQ TO_CACHE:   88344341
DTLB RQ MERGED:   66214428
DTLB RQ FORWARD:          0
DTLB WQ ACCESS:          0
DTLB WQ TO_CACHE:          0
DTLB WQ MERGED:          0
DTLB WQ FORWARD:          0
L1D TOTAL     ACCESS:  128101486  HIT:  124875908  MISS:    3225578
L1D LOAD      ACCESS:   53172363  HIT:   51977033  MISS:    1195330
L1D RFO       ACCESS:   37381947  HIT:   36767759  MISS:     614188
L1D PREFETCH  ACCESS:   37547176  HIT:   36131116  MISS:    1416060
L1D WRITEBACK ACCESS:          0  HIT:          0  MISS:          0
L1D PREFETCH  REQUESTED:   53657147  ISSUED:   52457140  USEFUL:     352045  USELESS:    1063980
L1D TOTAL MSHR MERGED:    2804026
L1D LOAD MSHR MERGED:     523507
L1D RFO MSHR MERGED:    1572610
L1D PREFETCH MSHR MERGED:     707909
L1D WRITEBACK MSHR MERGED:          0
L1D TOTAL ACCESSES:  130940348 HITS:  124910744 MISSES:    6029604
L1D LOAD ACCESSES:   53659992 HITS:   51979878 MISSES:    1680114
L1D RFO ACCESSES:   38952805 HITS:   36767759 MISSES:    2185046
L1D PREFETCH ACCESSES:   38327551 HITS:   36163107 MISSES:    2164444
L1D WRITEBACK ACCESSES:          0 HITS:          0 MISSES:          0
L1D RQ ACCESS:  113713877
L1D RQ TO_CACHE:   53657147
L1D RQ MERGED:   60053885
L1D RQ FORWARD:          0
L1D WQ ACCESS:   40844891
L1D WQ TO_CACHE:   38952805
L1D WQ MERGED:    1892086
L1D WQ FORWARD:      34836
L1I TOTAL     ACCESS:  108368978  HIT:  107809845  MISS:     559133
L1I LOAD      ACCESS:  108368978  HIT:  107809845  MISS:     559133
L1I RFO       ACCESS:          0  HIT:          0  MISS:          0
L1I PREFETCH  ACCESS:          0  HIT:          0  MISS:          0
L1I WRITEBACK ACCESS:          0  HIT:          0  MISS:          0
L1I PREFETCH  REQUESTED:          0  ISSUED:          0  USEFUL:          0  USELESS:          0
L1I TOTAL MSHR MERGED:     525735
L1I LOAD MSHR MERGED:     525735
L1I RFO MSHR MERGED:          0
L1I PREFETCH MSHR MERGED:          0
L1I WRITEBACK MSHR MERGED:          0
L1I TOTAL ACCESSES:  108894713 HITS:  107809845 MISSES:    1084868
L1I LOAD ACCESSES:  108894713 HITS:  107809845 MISSES:    1084868
L1I RFO ACCESSES:          0 HITS:          0 MISSES:          0
L1I PREFETCH ACCESSES:          0 HITS:          0 MISSES:          0
L1I WRITEBACK ACCESSES:          0 HITS:          0 MISSES:          0
L1I RQ ACCESS:  500000002
L1I RQ TO_CACHE:  108894713
L1I RQ MERGED:  391105289
L1I RQ FORWARD:          0
L1I WQ ACCESS:          0
L1I WQ TO_CACHE:          0
L1I WQ MERGED:          0
L1I WQ FORWARD:          0
L2C TOTAL     ACCESS:    4691874  HIT:    3865812  MISS:     826062
L2C LOAD      ACCESS:    1715624  HIT:    1562594  MISS:     153030
L2C RFO       ACCESS:     611006  HIT:     421188  MISS:     189818
L2C PREFETCH  ACCESS:    1662329  HIT:    1181297  MISS:     481032
L2C WRITEBACK ACCESS:     702915  HIT:     700733  MISS:       2182
L2C PREFETCH  REQUESTED:     256464  ISSUED:     256464  USEFUL:     173055  USELESS:     308643
L2C TOTAL MSHR MERGED:      13369
L2C LOAD MSHR MERGED:       4073
L2C RFO MSHR MERGED:          0
L2C PREFETCH MSHR MERGED:       9296
L2C WRITEBACK MSHR MERGED:          0
L2C TOTAL ACCESSES:    4712275 HITS:    3867424 MISSES:     844851
L2C LOAD ACCESSES:    1715740 HITS:    1562710 MISSES:     153030
L2C RFO ACCESSES:     612436 HITS:     422618 MISSES:     189818
L2C PREFETCH ACCESSES:    1681184 HITS:    1181363 MISSES:     499821
L2C WRITEBACK ACCESSES:     702915 HITS:     700733 MISSES:       2182
L2C RQ ACCESS:    2328176
L2C RQ TO_CACHE:    2326630
L2C RQ MERGED:          0
L2C RQ FORWARD:          0
L2C WQ ACCESS:     702915
L2C WQ TO_CACHE:     702915
L2C WQ MERGED:          0
L2C WQ FORWARD:       1612
LLC TOTAL     ACCESS:    1047718  HIT:     289698  MISS:     758020
LLC LOAD      ACCESS:     148953  HIT:      89248  MISS:      59705
LLC RFO       ACCESS:     189811  HIT:       6204  MISS:     183607
LLC PREFETCH  ACCESS:     488081  HIT:     155438  MISS:     332643
LLC WRITEBACK ACCESS:     220873  HIT:      38808  MISS:     182065
LLC PREFETCH  REQUESTED:          0  ISSUED:          0  USEFUL:       2268  USELESS:     330863
LLC TOTAL MSHR MERGED:       1695
LLC LOAD MSHR MERGED:        571
LLC RFO MSHR MERGED:          0
LLC PREFETCH MSHR MERGED:       1124
LLC WRITEBACK MSHR MERGED:          0
LLC TOTAL ACCESSES:    1049424 HITS:     289709 MISSES:     759715
LLC LOAD ACCESSES:     148957 HITS:      89252 MISSES:      59705
LLC RFO ACCESSES:     189818 HITS:       6211 MISSES:     183607
LLC PREFETCH ACCESSES:     489776 HITS:     155438 MISSES:     334338
LLC WRITEBACK ACCESSES:     220873 HITS:      38808 MISSES:     182065
LLC 0 RQ ACCESS:     338775
LLC 0 RQ TO_CACHE:     338764
LLC 0 RQ MERGED:          0
LLC 0 RQ FORWARD:          0
LLC WQ ACCESS:     220873
LLC WQ TO_CACHE:     220873
LLC WQ MERGED:          0
LLC WQ FORWARD:         11
Major fault: 0 Minor fault: 6811
CPU 0 L1D next line prefetcher final stats
CPU 0 L2C PC-based stride prefetcher final stats
All Misses: 897208
All Hits: 357493
SD Algo Stats - Switches: 0 SRR-Repls: 67220 BRR-Repls: 0

DRAM Statistics
 CHANNEL 0
 RQ ROW_BUFFER_HIT:     287972  ROW_BUFFER_MISS:     287905
 DBUS_CONGESTED:     398543
 WQ ROW_BUFFER_HIT:      24365  ROW_BUFFER_MISS:     191186  FULL:          0

 AVG_CONGESTED_CYCLE: 13
LOADS RETIRED: 119922929
INSTR RETIRED: 500000000
