
*** ChampSim Multicore Out-of-Order Simulator ***

Warmup Instructions: 100000000
Simulation Instructions: 500000000
Number of CPUs: 1
LLC sets: 2048
LLC ways: 16
Clean RRIP Policies: 1213030112130301 Dirty RRIP Policies: 2203130122031301 PSEL Width: 10 Track Set: 4294967295 PSEL Mask: 1 Demote Mask: 3040201030402010DS Algo: 0Window size: 0
Off-chip DRAM Size: 4096 MB Channels: 1 Width: 64-bit Data Rate: 1600 MT/s

CPU 0 runs /mnt/beegfs/iconst01/spec2017/Mcf.trace.gz
NOT SORTED
TRACE STRING: /mnt/beegfs/iconst01/spec2017/Mcf.trace.gz
SORTED
TRACE STRING: /mnt/beegfs/iconst01/spec2017/Mcf.trace.gz
INITIAL
TRACE STRING: /mnt/beegfs/iconst01/spec2017/Mcf.trace.gz

champsim_seed used: 278

CPU 0 L1D next line prefetcher
CPU 0 L2C IP-based stride prefetcher
Initialize DRRIP state
Assign rand_sets[0]: 454  LLC: 2048
rand_sets[0]: 454
Assign rand_sets[1]: 1662  LLC: 2048
rand_sets[1]: 1662
Assign rand_sets[2]: 1921  LLC: 2048
rand_sets[2]: 1921
Assign rand_sets[3]: 1131  LLC: 2048
rand_sets[3]: 1131
Assign rand_sets[4]: 331  LLC: 2048
rand_sets[4]: 331
Assign rand_sets[5]: 1531  LLC: 2048
rand_sets[5]: 1531
Assign rand_sets[6]: 482  LLC: 2048
rand_sets[6]: 482
Assign rand_sets[7]: 1275  LLC: 2048
rand_sets[7]: 1275
Assign rand_sets[8]: 1876  LLC: 2048
rand_sets[8]: 1876
Assign rand_sets[9]: 2038  LLC: 2048
rand_sets[9]: 2038
Assign rand_sets[10]: 701  LLC: 2048
rand_sets[10]: 701
Assign rand_sets[11]: 479  LLC: 2048
rand_sets[11]: 479
Assign rand_sets[12]: 892  LLC: 2048
rand_sets[12]: 892
Assign rand_sets[13]: 1820  LLC: 2048
rand_sets[13]: 1820
Assign rand_sets[14]: 1505  LLC: 2048
rand_sets[14]: 1505
Assign rand_sets[15]: 1159  LLC: 2048
rand_sets[15]: 1159
Assign rand_sets[16]: 513  LLC: 2048
rand_sets[16]: 513
Assign rand_sets[17]: 703  LLC: 2048
rand_sets[17]: 703
Assign rand_sets[18]: 561  LLC: 2048
rand_sets[18]: 561
Assign rand_sets[19]: 990  LLC: 2048
rand_sets[19]: 990
Assign rand_sets[20]: 342  LLC: 2048
rand_sets[20]: 342
Assign rand_sets[21]: 882  LLC: 2048
rand_sets[21]: 882
Assign rand_sets[22]: 15  LLC: 2048
rand_sets[22]: 15
Assign rand_sets[23]: 71  LLC: 2048
rand_sets[23]: 71
Assign rand_sets[24]: 1127  LLC: 2048
rand_sets[24]: 1127
Assign rand_sets[25]: 1382  LLC: 2048
rand_sets[25]: 1382
Assign rand_sets[26]: 647  LLC: 2048
rand_sets[26]: 647
Assign rand_sets[27]: 857  LLC: 2048
rand_sets[27]: 857
Assign rand_sets[28]: 1450  LLC: 2048
rand_sets[28]: 1450
Assign rand_sets[29]: 1160  LLC: 2048
rand_sets[29]: 1160
Assign rand_sets[30]: 1852  LLC: 2048
rand_sets[30]: 1852
Assign rand_sets[31]: 1881  LLC: 2048
rand_sets[31]: 1881
Assign rand_sets[32]: 1770  LLC: 2048
rand_sets[32]: 1770
Assign rand_sets[33]: 1622  LLC: 2048
rand_sets[33]: 1622
Assign rand_sets[34]: 275  LLC: 2048
rand_sets[34]: 275
Assign rand_sets[35]: 635  LLC: 2048
rand_sets[35]: 635
Assign rand_sets[36]: 466  LLC: 2048
rand_sets[36]: 466
Assign rand_sets[37]: 1413  LLC: 2048
rand_sets[37]: 1413
Assign rand_sets[38]: 417  LLC: 2048
rand_sets[38]: 417
Assign rand_sets[39]: 472  LLC: 2048
rand_sets[39]: 472
Assign rand_sets[40]: 1340  LLC: 2048
rand_sets[40]: 1340
Assign rand_sets[41]: 852  LLC: 2048
rand_sets[41]: 852
Assign rand_sets[42]: 1365  LLC: 2048
rand_sets[42]: 1365
Assign rand_sets[43]: 47  LLC: 2048
rand_sets[43]: 47
Assign rand_sets[44]: 823  LLC: 2048
rand_sets[44]: 823
Assign rand_sets[45]: 686  LLC: 2048
rand_sets[45]: 686
Assign rand_sets[46]: 1637  LLC: 2048
rand_sets[46]: 1637
Assign rand_sets[47]: 1115  LLC: 2048
rand_sets[47]: 1115
Assign rand_sets[48]: 986  LLC: 2048
rand_sets[48]: 986
Assign rand_sets[49]: 258  LLC: 2048
rand_sets[49]: 258
Assign rand_sets[50]: 633  LLC: 2048
rand_sets[50]: 633
Assign rand_sets[51]: 920  LLC: 2048
rand_sets[51]: 920
Assign rand_sets[52]: 204  LLC: 2048
rand_sets[52]: 204
Assign rand_sets[53]: 227  LLC: 2048
rand_sets[53]: 227
Assign rand_sets[54]: 1818  LLC: 2048
rand_sets[54]: 1818
Assign rand_sets[55]: 886  LLC: 2048
rand_sets[55]: 886
Assign rand_sets[56]: 1422  LLC: 2048
rand_sets[56]: 1422
Assign rand_sets[57]: 607  LLC: 2048
rand_sets[57]: 607
Assign rand_sets[58]: 217  LLC: 2048
rand_sets[58]: 217
Assign rand_sets[59]: 1945  LLC: 2048
rand_sets[59]: 1945
Assign rand_sets[60]: 143  LLC: 2048
rand_sets[60]: 143
Assign rand_sets[61]: 1311  LLC: 2048
rand_sets[61]: 1311
Assign rand_sets[62]: 319  LLC: 2048
rand_sets[62]: 319
Assign rand_sets[63]: 1846  LLC: 2048
rand_sets[63]: 1846
 CLEAN-RRIP-POLICY-1: 1-2-1-3-0-3-0-1- CLEAN-RRIP-POLICY-2: 1-2-1-3-0-3-0-1-
 DIRTY-RRIP-POLICY-1: 2-2-0-3-1-3-0-1- DIRTY-RRIP-POLICY-2: 2-2-0-3-1-3-0-1-
 PSEL width: 10
Heartbeat CPU 0 instructions: 10000002 cycles: 6248377 heartbeat IPC: 1.60042 cumulative IPC: 1.60042 (Simulation time: 0 hr 0 min 12 sec) 
Heartbeat CPU 0 instructions: 20000000 cycles: 12468907 heartbeat IPC: 1.60758 cumulative IPC: 1.60399 (Simulation time: 0 hr 0 min 25 sec) 
Heartbeat CPU 0 instructions: 30000000 cycles: 18678966 heartbeat IPC: 1.61029 cumulative IPC: 1.60608 (Simulation time: 0 hr 0 min 37 sec) 
Heartbeat CPU 0 instructions: 40000000 cycles: 24889312 heartbeat IPC: 1.61022 cumulative IPC: 1.60712 (Simulation time: 0 hr 0 min 49 sec) 
Heartbeat CPU 0 instructions: 50000003 cycles: 31101561 heartbeat IPC: 1.60972 cumulative IPC: 1.60764 (Simulation time: 0 hr 1 min 2 sec) 
Heartbeat CPU 0 instructions: 60000000 cycles: 37297535 heartbeat IPC: 1.61395 cumulative IPC: 1.60869 (Simulation time: 0 hr 1 min 15 sec) 
Heartbeat CPU 0 instructions: 70000003 cycles: 43515747 heartbeat IPC: 1.60818 cumulative IPC: 1.60861 (Simulation time: 0 hr 1 min 27 sec) 
Heartbeat CPU 0 instructions: 80000000 cycles: 49746008 heartbeat IPC: 1.60507 cumulative IPC: 1.60817 (Simulation time: 0 hr 1 min 40 sec) 
Heartbeat CPU 0 instructions: 90000000 cycles: 55974812 heartbeat IPC: 1.60544 cumulative IPC: 1.60787 (Simulation time: 0 hr 1 min 52 sec) 
Heartbeat CPU 0 instructions: 100000000 cycles: 62193523 heartbeat IPC: 1.60805 cumulative IPC: 1.60788 (Simulation time: 0 hr 2 min 5 sec) 

Warmup complete CPU 0 instructions: 100000001 cycles: 62193524 (Simulation time: 0 hr 2 min 5 sec) 

Heartbeat CPU 0 instructions: 110000000 cycles: 86760166 heartbeat IPC: 0.407056 cumulative IPC: 0.407056 (Simulation time: 0 hr 2 min 29 sec) 
Heartbeat CPU 0 instructions: 120000000 cycles: 111428715 heartbeat IPC: 0.405374 cumulative IPC: 0.406213 (Simulation time: 0 hr 2 min 53 sec) 
Heartbeat CPU 0 instructions: 130000000 cycles: 136171691 heartbeat IPC: 0.404155 cumulative IPC: 0.405525 (Simulation time: 0 hr 3 min 16 sec) 
Heartbeat CPU 0 instructions: 140000000 cycles: 160870837 heartbeat IPC: 0.404872 cumulative IPC: 0.405362 (Simulation time: 0 hr 3 min 40 sec) 
Heartbeat CPU 0 instructions: 150000003 cycles: 185454555 heartbeat IPC: 0.406773 cumulative IPC: 0.405643 (Simulation time: 0 hr 4 min 4 sec) 
Heartbeat CPU 0 instructions: 160000000 cycles: 210305845 heartbeat IPC: 0.402393 cumulative IPC: 0.405098 (Simulation time: 0 hr 4 min 28 sec) 
Heartbeat CPU 0 instructions: 170000001 cycles: 235026193 heartbeat IPC: 0.404525 cumulative IPC: 0.405016 (Simulation time: 0 hr 4 min 52 sec) 
Heartbeat CPU 0 instructions: 180000000 cycles: 259747670 heartbeat IPC: 0.404507 cumulative IPC: 0.404952 (Simulation time: 0 hr 5 min 15 sec) 
Heartbeat CPU 0 instructions: 190000003 cycles: 284425487 heartbeat IPC: 0.405222 cumulative IPC: 0.404982 (Simulation time: 0 hr 5 min 39 sec) 
Heartbeat CPU 0 instructions: 200000000 cycles: 309141914 heartbeat IPC: 0.404589 cumulative IPC: 0.404943 (Simulation time: 0 hr 6 min 3 sec) 
Heartbeat CPU 0 instructions: 210000003 cycles: 333922865 heartbeat IPC: 0.403536 cumulative IPC: 0.404815 (Simulation time: 0 hr 6 min 27 sec) 
Heartbeat CPU 0 instructions: 220000000 cycles: 358891975 heartbeat IPC: 0.400495 cumulative IPC: 0.404451 (Simulation time: 0 hr 6 min 51 sec) 
Heartbeat CPU 0 instructions: 230000002 cycles: 383516146 heartbeat IPC: 0.406105 cumulative IPC: 0.404578 (Simulation time: 0 hr 7 min 15 sec) 
Heartbeat CPU 0 instructions: 240000000 cycles: 408446993 heartbeat IPC: 0.401109 cumulative IPC: 0.404328 (Simulation time: 0 hr 7 min 39 sec) 
Heartbeat CPU 0 instructions: 250000000 cycles: 433199216 heartbeat IPC: 0.404004 cumulative IPC: 0.404306 (Simulation time: 0 hr 8 min 2 sec) 
Heartbeat CPU 0 instructions: 260000000 cycles: 457906103 heartbeat IPC: 0.404745 cumulative IPC: 0.404334 (Simulation time: 0 hr 8 min 26 sec) 
Heartbeat CPU 0 instructions: 270000001 cycles: 482704435 heartbeat IPC: 0.403253 cumulative IPC: 0.40427 (Simulation time: 0 hr 8 min 50 sec) 
Heartbeat CPU 0 instructions: 280000000 cycles: 507435550 heartbeat IPC: 0.404349 cumulative IPC: 0.404274 (Simulation time: 0 hr 9 min 14 sec) 
Heartbeat CPU 0 instructions: 290000001 cycles: 532257196 heartbeat IPC: 0.402874 cumulative IPC: 0.404201 (Simulation time: 0 hr 9 min 38 sec) 
Heartbeat CPU 0 instructions: 300000000 cycles: 557226252 heartbeat IPC: 0.400496 cumulative IPC: 0.404014 (Simulation time: 0 hr 10 min 3 sec) 
Heartbeat CPU 0 instructions: 310000003 cycles: 581848559 heartbeat IPC: 0.406136 cumulative IPC: 0.404114 (Simulation time: 0 hr 10 min 27 sec) 
Heartbeat CPU 0 instructions: 320000000 cycles: 606829480 heartbeat IPC: 0.400305 cumulative IPC: 0.40394 (Simulation time: 0 hr 10 min 51 sec) 
Heartbeat CPU 0 instructions: 330000003 cycles: 631556571 heartbeat IPC: 0.404415 cumulative IPC: 0.40396 (Simulation time: 0 hr 11 min 15 sec) 
Heartbeat CPU 0 instructions: 340000000 cycles: 656582102 heartbeat IPC: 0.399592 cumulative IPC: 0.403776 (Simulation time: 0 hr 11 min 39 sec) 
Heartbeat CPU 0 instructions: 350000002 cycles: 681570502 heartbeat IPC: 0.400186 cumulative IPC: 0.403631 (Simulation time: 0 hr 12 min 3 sec) 
Heartbeat CPU 0 instructions: 360000000 cycles: 706696582 heartbeat IPC: 0.397993 cumulative IPC: 0.403412 (Simulation time: 0 hr 12 min 27 sec) 
Heartbeat CPU 0 instructions: 370000000 cycles: 731603186 heartbeat IPC: 0.4015 cumulative IPC: 0.40334 (Simulation time: 0 hr 12 min 50 sec) 
Heartbeat CPU 0 instructions: 380000000 cycles: 756322514 heartbeat IPC: 0.404542 cumulative IPC: 0.403383 (Simulation time: 0 hr 13 min 14 sec) 
Heartbeat CPU 0 instructions: 390000002 cycles: 781062971 heartbeat IPC: 0.404196 cumulative IPC: 0.403411 (Simulation time: 0 hr 13 min 38 sec) 
Heartbeat CPU 0 instructions: 400000000 cycles: 805978282 heartbeat IPC: 0.40136 cumulative IPC: 0.403342 (Simulation time: 0 hr 14 min 2 sec) 
Heartbeat CPU 0 instructions: 410000002 cycles: 830793393 heartbeat IPC: 0.40298 cumulative IPC: 0.403331 (Simulation time: 0 hr 14 min 25 sec) 
Heartbeat CPU 0 instructions: 420000000 cycles: 855417888 heartbeat IPC: 0.4061 cumulative IPC: 0.403417 (Simulation time: 0 hr 14 min 49 sec) 
Heartbeat CPU 0 instructions: 430000000 cycles: 880276496 heartbeat IPC: 0.402275 cumulative IPC: 0.403382 (Simulation time: 0 hr 15 min 13 sec) 
Heartbeat CPU 0 instructions: 440000000 cycles: 904836399 heartbeat IPC: 0.407168 cumulative IPC: 0.403492 (Simulation time: 0 hr 15 min 37 sec) 
Heartbeat CPU 0 instructions: 450000000 cycles: 929828519 heartbeat IPC: 0.400126 cumulative IPC: 0.403395 (Simulation time: 0 hr 16 min 1 sec) 
Heartbeat CPU 0 instructions: 460000000 cycles: 954732073 heartbeat IPC: 0.401549 cumulative IPC: 0.403344 (Simulation time: 0 hr 16 min 26 sec) 
Heartbeat CPU 0 instructions: 470000001 cycles: 979425429 heartbeat IPC: 0.404967 cumulative IPC: 0.403388 (Simulation time: 0 hr 16 min 50 sec) 
Heartbeat CPU 0 instructions: 480000000 cycles: 1004299923 heartbeat IPC: 0.402018 cumulative IPC: 0.403351 (Simulation time: 0 hr 17 min 14 sec) 
Heartbeat CPU 0 instructions: 490000000 cycles: 1029274617 heartbeat IPC: 0.400405 cumulative IPC: 0.403275 (Simulation time: 0 hr 17 min 39 sec) 
Heartbeat CPU 0 instructions: 500000000 cycles: 1054570470 heartbeat IPC: 0.395322 cumulative IPC: 0.403073 (Simulation time: 0 hr 18 min 3 sec) 
Heartbeat CPU 0 instructions: 510000003 cycles: 1079737260 heartbeat IPC: 0.397349 cumulative IPC: 0.402931 (Simulation time: 0 hr 18 min 27 sec) 
Heartbeat CPU 0 instructions: 520000000 cycles: 1105059910 heartbeat IPC: 0.394903 cumulative IPC: 0.402736 (Simulation time: 0 hr 18 min 52 sec) 
Heartbeat CPU 0 instructions: 530000003 cycles: 1130408135 heartbeat IPC: 0.394505 cumulative IPC: 0.402541 (Simulation time: 0 hr 19 min 16 sec) 
Heartbeat CPU 0 instructions: 540000000 cycles: 1155662634 heartbeat IPC: 0.395969 cumulative IPC: 0.402389 (Simulation time: 0 hr 19 min 41 sec) 
Heartbeat CPU 0 instructions: 550000000 cycles: 1180942348 heartbeat IPC: 0.395574 cumulative IPC: 0.402235 (Simulation time: 0 hr 20 min 5 sec) 
Heartbeat CPU 0 instructions: 560000000 cycles: 1206520178 heartbeat IPC: 0.390964 cumulative IPC: 0.401983 (Simulation time: 0 hr 20 min 29 sec) 
Heartbeat CPU 0 instructions: 570000001 cycles: 1232034600 heartbeat IPC: 0.391935 cumulative IPC: 0.401764 (Simulation time: 0 hr 20 min 54 sec) 
Heartbeat CPU 0 instructions: 580000000 cycles: 1257554711 heartbeat IPC: 0.391848 cumulative IPC: 0.401552 (Simulation time: 0 hr 21 min 18 sec) 
Heartbeat CPU 0 instructions: 590000000 cycles: 1283227457 heartbeat IPC: 0.389518 cumulative IPC: 0.401299 (Simulation time: 0 hr 21 min 43 sec) 
Heartbeat CPU 0 instructions: 600000000 cycles: 1308982089 heartbeat IPC: 0.38828 cumulative IPC: 0.40103 (Simulation time: 0 hr 22 min 7 sec) 
Finished CPU 0 instructions: 500000003 cycles: 1246788578 cumulative IPC: 0.40103 (Simulation time: 0 hr 22 min 7 sec) 

CPU 0 Branch Prediction Accuracy: 91.1342% MPKI: 18.7968
Number of Branches: 106006945 Number of Mispredictions: 9398408
Number of LOAD Instructions: 207894007
Number of LOAD Instructions (ROI): 207894007
Number of STORE Instructions: 54285997
Number of STORE Instructions (ROI): 54285997
Total Destination Memory Operands: 57463404
Total Destination Memory Operands (ROI): 57463404
Total Source Memory Operands: 207894007
Total Source Memory Operands (ROI): 207894007
Number of DEPENDED LOADS: 18105945
Number of DEPENDED LOADS (ROI): 18105945
Number of SQ_ADDED: 57463404
Number of SQ_ADDED (ROI): 57463404
Number of LQ_ADDED: 209237471
Number of LQ_ADDED (ROI): 209237471
Number of Instructions read from trace: 600000039

ChampSim completed all CPUs

Region of Interest Statistics

CPU 0 cumulative IPC: 0.40103 instructions: 500000003 cycles: 1246788578
ITLB TOTAL     ACCESS:   96420669  HIT:   96420669  MISS:          0
ITLB LOAD      ACCESS:   96420669  HIT:   96420669  MISS:          0
ITLB RFO       ACCESS:          0  HIT:          0  MISS:          0
ITLB PREFETCH  ACCESS:          0  HIT:          0  MISS:          0
ITLB WRITEBACK ACCESS:          0  HIT:          0  MISS:          0
ITLB PREFETCH  REQUESTED:          0  ISSUED:          0  USEFUL:          0  USELESS:          0
ITLB TOTAL MSHR MERGED:          0
ITLB LOAD MSHR MERGED:          0
ITLB RFO MSHR MERGED:          0
ITLB PREFETCH MSHR MERGED:          0
ITLB WRITEBACK MSHR MERGED:          0
ITLB TOTAL ACCESSES:   96420669 HITS:   96420669 MISSES:          0
ITLB LOAD ACCESSES:   96420669 HITS:   96420669 MISSES:          0
ITLB RFO ACCESSES:          0 HITS:          0 MISSES:          0
ITLB PREFETCH ACCESSES:          0 HITS:          0 MISSES:          0
ITLB WRITEBACK ACCESSES:          0 HITS:          0 MISSES:          0
ITLB RQ ACCESS:  499999980
ITLB RQ TO_CACHE:   96420669
ITLB RQ MERGED:  403579311
ITLB RQ FORWARD:          0
ITLB WQ ACCESS:          0
ITLB WQ TO_CACHE:          0
ITLB WQ MERGED:          0
ITLB WQ FORWARD:          0
DTLB TOTAL     ACCESS:  155173360  HIT:  150261292  MISS:    4912068
DTLB LOAD      ACCESS:  117722716  HIT:  113332346  MISS:    4390370
DTLB RFO       ACCESS:   37450644  HIT:   36928946  MISS:     521698
DTLB PREFETCH  ACCESS:          0  HIT:          0  MISS:          0
DTLB WRITEBACK ACCESS:          0  HIT:          0  MISS:          0
DTLB PREFETCH  REQUESTED:          0  ISSUED:          0  USEFUL:          0  USELESS:          0
DTLB TOTAL MSHR MERGED:     452993
DTLB LOAD MSHR MERGED:     161511
DTLB RFO MSHR MERGED:     291482
DTLB PREFETCH MSHR MERGED:          0
DTLB WRITEBACK MSHR MERGED:          0
DTLB TOTAL ACCESSES:  155626353 HITS:  150261292 MISSES:    5365061
DTLB LOAD ACCESSES:  117884227 HITS:  113332346 MISSES:    4551881
DTLB RFO ACCESSES:   37742126 HITS:   36928946 MISSES:     813180
DTLB PREFETCH ACCESSES:          0 HITS:          0 MISSES:          0
DTLB WRITEBACK ACCESSES:          0 HITS:          0 MISSES:          0
DTLB RQ ACCESS:  205976985
DTLB RQ TO_CACHE:  155626353
DTLB RQ MERGED:   50350632
DTLB RQ FORWARD:          0
DTLB WQ ACCESS:          0
DTLB WQ TO_CACHE:          0
DTLB WQ MERGED:          0
DTLB WQ FORWARD:          0
L1D TOTAL     ACCESS:  277177339  HIT:  242354963  MISS:   34822376
L1D LOAD      ACCESS:  125414768  HIT:  107775260  MISS:   17639508
L1D RFO       ACCESS:   41135524  HIT:   38823692  MISS:    2311832
L1D PREFETCH  ACCESS:  110627047  HIT:   95756011  MISS:   14871036
L1D WRITEBACK ACCESS:          0  HIT:          0  MISS:          0
L1D PREFETCH  REQUESTED:  126271422  ISSUED:  124752224  USEFUL:    2705128  USELESS:   12165934
L1D TOTAL MSHR MERGED:    8491614
L1D LOAD MSHR MERGED:    1549081
L1D RFO MSHR MERGED:    3769143
L1D PREFETCH MSHR MERGED:    3173390
L1D WRITEBACK MSHR MERGED:          0
L1D TOTAL ACCESSES:  285756252 HITS:  242442260 MISSES:   43313992
L1D LOAD ACCESSES:  126271452 HITS:  107775290 MISSES:   18496162
L1D RFO ACCESSES:   44904172 HITS:   38823692 MISSES:    6080480
L1D PREFETCH ACCESSES:  114580628 HITS:   95843278 MISSES:   18737350
L1D WRITEBACK ACCESSES:          0 HITS:          0 MISSES:          0
L1D RQ ACCESS:  158430104
L1D RQ TO_CACHE:  126271422
L1D RQ MERGED:   32158652
L1D RQ FORWARD:          0
L1D WQ ACCESS:   47546882
L1D WQ TO_CACHE:   44904172
L1D WQ MERGED:    2642710
L1D WQ FORWARD:      87297
L1I TOTAL     ACCESS:  132830312  HIT:  132830312  MISS:          0
L1I LOAD      ACCESS:  132830312  HIT:  132830312  MISS:          0
L1I RFO       ACCESS:          0  HIT:          0  MISS:          0
L1I PREFETCH  ACCESS:          0  HIT:          0  MISS:          0
L1I WRITEBACK ACCESS:          0  HIT:          0  MISS:          0
L1I PREFETCH  REQUESTED:          0  ISSUED:          0  USEFUL:          0  USELESS:          0
L1I TOTAL MSHR MERGED:          0
L1I LOAD MSHR MERGED:          0
L1I RFO MSHR MERGED:          0
L1I PREFETCH MSHR MERGED:          0
L1I WRITEBACK MSHR MERGED:          0
L1I TOTAL ACCESSES:  132830312 HITS:  132830312 MISSES:          0
L1I LOAD ACCESSES:  132830312 HITS:  132830312 MISSES:          0
L1I RFO ACCESSES:          0 HITS:          0 MISSES:          0
L1I PREFETCH ACCESSES:          0 HITS:          0 MISSES:          0
L1I WRITEBACK ACCESSES:          0 HITS:          0 MISSES:          0
L1I RQ ACCESS:  499999980
L1I RQ TO_CACHE:  132830312
L1I RQ MERGED:  367169668
L1I RQ FORWARD:          0
L1I WQ ACCESS:          0
L1I WQ TO_CACHE:          0
L1I WQ MERGED:          0
L1I WQ FORWARD:          0
L2C TOTAL     ACCESS:   39596828  HIT:   20627494  MISS:   18969334
L2C LOAD      ACCESS:   16947020  HIT:    8567849  MISS:    8379171
L2C RFO       ACCESS:    2311283  HIT:     630832  MISS:    1680451
L2C PREFETCH  ACCESS:   17116085  HIT:    8210124  MISS:    8905961
L2C WRITEBACK ACCESS:    3222440  HIT:    3218689  MISS:       3751
L2C PREFETCH  REQUESTED:    2878730  ISSUED:    2878730  USEFUL:    1307151  USELESS:    7598554
L2C TOTAL MSHR MERGED:     531998
L2C LOAD MSHR MERGED:      89045
L2C RFO MSHR MERGED:          0
L2C PREFETCH MSHR MERGED:     442953
L2C WRITEBACK MSHR MERGED:          0
L2C TOTAL ACCESSES:   40242780 HITS:   20627661 MISSES:   19615119
L2C LOAD ACCESSES:   16947081 HITS:    8567910 MISSES:    8379171
L2C RFO ACCESSES:    2311337 HITS:     630886 MISSES:    1680451
L2C PREFETCH ACCESSES:   17761922 HITS:    8210176 MISSES:    9551746
L2C WRITEBACK ACCESSES:    3222440 HITS:    3218689 MISSES:       3751
L2C RQ ACCESS:   19258418
L2C RQ TO_CACHE:   19258303
L2C RQ MERGED:          0
L2C RQ FORWARD:          0
L2C WQ ACCESS:    3222440
L2C WQ TO_CACHE:    3222440
L2C WQ MERGED:          0
L2C WQ FORWARD:        167
LLC TOTAL     ACCESS:   21198182  HIT:   14089793  MISS:    7108389
LLC LOAD      ACCESS:    8290102  HIT:    5780928  MISS:    2509174
LLC RFO       ACCESS:    1680367  HIT:    1669247  MISS:      11120
LLC PREFETCH  ACCESS:    9052051  HIT:    4472407  MISS:    4579644
LLC WRITEBACK ACCESS:    2175662  HIT:    2167211  MISS:       8451
LLC PREFETCH  REQUESTED:          0  ISSUED:          0  USEFUL:     202336  USELESS:    4379745
LLC TOTAL MSHR MERGED:      47827
LLC LOAD MSHR MERGED:      14944
LLC RFO MSHR MERGED:          0
LLC PREFETCH MSHR MERGED:      32883
LLC WRITEBACK MSHR MERGED:          0
LLC TOTAL ACCESSES:   21246148 HITS:   14089930 MISSES:    7156218
LLC LOAD ACCESSES:    8290126 HITS:    5780952 MISSES:    2509174
LLC RFO ACCESSES:    1680451 HITS:    1669331 MISSES:      11120
LLC PREFETCH ACCESSES:    9099909 HITS:    4472436 MISSES:    4627473
LLC WRITEBACK ACCESSES:    2175662 HITS:    2167211 MISSES:       8451
LLC 0 RQ ACCESS:    9970577
LLC 0 RQ TO_CACHE:    9970469
LLC 0 RQ MERGED:          0
LLC 0 RQ FORWARD:          0
LLC WQ ACCESS:    2175663
LLC WQ TO_CACHE:    2175663
LLC WQ MERGED:          0
LLC WQ FORWARD:        137
Major fault: 0 Minor fault: 56391
CPU 0 L1D next line prefetcher final stats
CPU 0 L2C PC-based stride prefetcher final stats
All Misses: 8352401
All Hits: 16222626
SD Algo Stats - Switches: 0 SRR-Repls: 2631940 BRR-Repls: 0

DRAM Statistics
 CHANNEL 0
 RQ ROW_BUFFER_HIT:    4569961  ROW_BUFFER_MISS:    2514615
 DBUS_CONGESTED:    3306289
 WQ ROW_BUFFER_HIT:        874  ROW_BUFFER_MISS:      27214  FULL:          0

 AVG_CONGESTED_CYCLE: 12
LOADS RETIRED: 173631671
INSTR RETIRED: 500000000
