
*** ChampSim Multicore Out-of-Order Simulator ***

Warmup Instructions: 100000000
Simulation Instructions: 500000000
Number of CPUs: 1
LLC sets: 2048
LLC ways: 16
Clean RRIP Policies: 1112030111120301 Dirty RRIP Policies: 2112131121121311 PSEL Width: 10 Track Set: 4294967295 PSEL Mask: 1 Demote Mask: 2230141022301410DS Algo: 0Window size: 0
Off-chip DRAM Size: 4096 MB Channels: 1 Width: 64-bit Data Rate: 1600 MT/s

CPU 0 runs /mnt/beegfs/iconst01/spec2017/Gcc.trace.gz
NOT SORTED
TRACE STRING: /mnt/beegfs/iconst01/spec2017/Gcc.trace.gz
SORTED
TRACE STRING: /mnt/beegfs/iconst01/spec2017/Gcc.trace.gz
INITIAL
TRACE STRING: /mnt/beegfs/iconst01/spec2017/Gcc.trace.gz

champsim_seed used: 269

CPU 0 L1D next line prefetcher
CPU 0 L2C IP-based stride prefetcher
Initialize DRRIP state
Assign rand_sets[0]: 454  LLC: 2048
rand_sets[0]: 454
Assign rand_sets[1]: 1662  LLC: 2048
rand_sets[1]: 1662
Assign rand_sets[2]: 1921  LLC: 2048
rand_sets[2]: 1921
Assign rand_sets[3]: 1131  LLC: 2048
rand_sets[3]: 1131
Assign rand_sets[4]: 331  LLC: 2048
rand_sets[4]: 331
Assign rand_sets[5]: 1531  LLC: 2048
rand_sets[5]: 1531
Assign rand_sets[6]: 482  LLC: 2048
rand_sets[6]: 482
Assign rand_sets[7]: 1275  LLC: 2048
rand_sets[7]: 1275
Assign rand_sets[8]: 1876  LLC: 2048
rand_sets[8]: 1876
Assign rand_sets[9]: 2038  LLC: 2048
rand_sets[9]: 2038
Assign rand_sets[10]: 701  LLC: 2048
rand_sets[10]: 701
Assign rand_sets[11]: 479  LLC: 2048
rand_sets[11]: 479
Assign rand_sets[12]: 892  LLC: 2048
rand_sets[12]: 892
Assign rand_sets[13]: 1820  LLC: 2048
rand_sets[13]: 1820
Assign rand_sets[14]: 1505  LLC: 2048
rand_sets[14]: 1505
Assign rand_sets[15]: 1159  LLC: 2048
rand_sets[15]: 1159
Assign rand_sets[16]: 513  LLC: 2048
rand_sets[16]: 513
Assign rand_sets[17]: 703  LLC: 2048
rand_sets[17]: 703
Assign rand_sets[18]: 561  LLC: 2048
rand_sets[18]: 561
Assign rand_sets[19]: 990  LLC: 2048
rand_sets[19]: 990
Assign rand_sets[20]: 342  LLC: 2048
rand_sets[20]: 342
Assign rand_sets[21]: 882  LLC: 2048
rand_sets[21]: 882
Assign rand_sets[22]: 15  LLC: 2048
rand_sets[22]: 15
Assign rand_sets[23]: 71  LLC: 2048
rand_sets[23]: 71
Assign rand_sets[24]: 1127  LLC: 2048
rand_sets[24]: 1127
Assign rand_sets[25]: 1382  LLC: 2048
rand_sets[25]: 1382
Assign rand_sets[26]: 647  LLC: 2048
rand_sets[26]: 647
Assign rand_sets[27]: 857  LLC: 2048
rand_sets[27]: 857
Assign rand_sets[28]: 1450  LLC: 2048
rand_sets[28]: 1450
Assign rand_sets[29]: 1160  LLC: 2048
rand_sets[29]: 1160
Assign rand_sets[30]: 1852  LLC: 2048
rand_sets[30]: 1852
Assign rand_sets[31]: 1881  LLC: 2048
rand_sets[31]: 1881
Assign rand_sets[32]: 1770  LLC: 2048
rand_sets[32]: 1770
Assign rand_sets[33]: 1622  LLC: 2048
rand_sets[33]: 1622
Assign rand_sets[34]: 275  LLC: 2048
rand_sets[34]: 275
Assign rand_sets[35]: 635  LLC: 2048
rand_sets[35]: 635
Assign rand_sets[36]: 466  LLC: 2048
rand_sets[36]: 466
Assign rand_sets[37]: 1413  LLC: 2048
rand_sets[37]: 1413
Assign rand_sets[38]: 417  LLC: 2048
rand_sets[38]: 417
Assign rand_sets[39]: 472  LLC: 2048
rand_sets[39]: 472
Assign rand_sets[40]: 1340  LLC: 2048
rand_sets[40]: 1340
Assign rand_sets[41]: 852  LLC: 2048
rand_sets[41]: 852
Assign rand_sets[42]: 1365  LLC: 2048
rand_sets[42]: 1365
Assign rand_sets[43]: 47  LLC: 2048
rand_sets[43]: 47
Assign rand_sets[44]: 823  LLC: 2048
rand_sets[44]: 823
Assign rand_sets[45]: 686  LLC: 2048
rand_sets[45]: 686
Assign rand_sets[46]: 1637  LLC: 2048
rand_sets[46]: 1637
Assign rand_sets[47]: 1115  LLC: 2048
rand_sets[47]: 1115
Assign rand_sets[48]: 986  LLC: 2048
rand_sets[48]: 986
Assign rand_sets[49]: 258  LLC: 2048
rand_sets[49]: 258
Assign rand_sets[50]: 633  LLC: 2048
rand_sets[50]: 633
Assign rand_sets[51]: 920  LLC: 2048
rand_sets[51]: 920
Assign rand_sets[52]: 204  LLC: 2048
rand_sets[52]: 204
Assign rand_sets[53]: 227  LLC: 2048
rand_sets[53]: 227
Assign rand_sets[54]: 1818  LLC: 2048
rand_sets[54]: 1818
Assign rand_sets[55]: 886  LLC: 2048
rand_sets[55]: 886
Assign rand_sets[56]: 1422  LLC: 2048
rand_sets[56]: 1422
Assign rand_sets[57]: 607  LLC: 2048
rand_sets[57]: 607
Assign rand_sets[58]: 217  LLC: 2048
rand_sets[58]: 217
Assign rand_sets[59]: 1945  LLC: 2048
rand_sets[59]: 1945
Assign rand_sets[60]: 143  LLC: 2048
rand_sets[60]: 143
Assign rand_sets[61]: 1311  LLC: 2048
rand_sets[61]: 1311
Assign rand_sets[62]: 319  LLC: 2048
rand_sets[62]: 319
Assign rand_sets[63]: 1846  LLC: 2048
rand_sets[63]: 1846
 CLEAN-RRIP-POLICY-1: 1-1-1-2-0-3-0-1- CLEAN-RRIP-POLICY-2: 1-1-1-2-0-3-0-1-
 DIRTY-RRIP-POLICY-1: 2-1-1-2-1-3-1-1- DIRTY-RRIP-POLICY-2: 2-1-1-2-1-3-1-1-
 PSEL width: 10
Heartbeat CPU 0 instructions: 10000001 cycles: 7315909 heartbeat IPC: 1.36688 cumulative IPC: 1.36688 (Simulation time: 0 hr 0 min 18 sec) 
Heartbeat CPU 0 instructions: 20000000 cycles: 14307421 heartbeat IPC: 1.43031 cumulative IPC: 1.39788 (Simulation time: 0 hr 0 min 37 sec) 
Heartbeat CPU 0 instructions: 30000001 cycles: 21020405 heartbeat IPC: 1.48965 cumulative IPC: 1.42718 (Simulation time: 0 hr 0 min 57 sec) 
Heartbeat CPU 0 instructions: 40000000 cycles: 27481244 heartbeat IPC: 1.54779 cumulative IPC: 1.45554 (Simulation time: 0 hr 1 min 18 sec) 
Heartbeat CPU 0 instructions: 50000001 cycles: 33583072 heartbeat IPC: 1.63885 cumulative IPC: 1.48885 (Simulation time: 0 hr 1 min 38 sec) 
Heartbeat CPU 0 instructions: 60000000 cycles: 40064302 heartbeat IPC: 1.54292 cumulative IPC: 1.49759 (Simulation time: 0 hr 1 min 58 sec) 
Heartbeat CPU 0 instructions: 70000000 cycles: 47102673 heartbeat IPC: 1.42078 cumulative IPC: 1.48612 (Simulation time: 0 hr 2 min 17 sec) 
Heartbeat CPU 0 instructions: 80000000 cycles: 54192254 heartbeat IPC: 1.41052 cumulative IPC: 1.47623 (Simulation time: 0 hr 2 min 36 sec) 
Heartbeat CPU 0 instructions: 90000003 cycles: 61196608 heartbeat IPC: 1.42768 cumulative IPC: 1.47067 (Simulation time: 0 hr 2 min 55 sec) 
Heartbeat CPU 0 instructions: 100000000 cycles: 68363855 heartbeat IPC: 1.39524 cumulative IPC: 1.46276 (Simulation time: 0 hr 3 min 14 sec) 

Warmup complete CPU 0 instructions: 100000004 cycles: 68363856 (Simulation time: 0 hr 3 min 14 sec) 

Heartbeat CPU 0 instructions: 110000003 cycles: 96026587 heartbeat IPC: 0.361497 cumulative IPC: 0.361497 (Simulation time: 0 hr 3 min 51 sec) 
Heartbeat CPU 0 instructions: 120000000 cycles: 123495802 heartbeat IPC: 0.364044 cumulative IPC: 0.362766 (Simulation time: 0 hr 4 min 29 sec) 
Heartbeat CPU 0 instructions: 130000000 cycles: 148495527 heartbeat IPC: 0.400004 cumulative IPC: 0.374384 (Simulation time: 0 hr 5 min 7 sec) 
Heartbeat CPU 0 instructions: 140000000 cycles: 177944156 heartbeat IPC: 0.339574 cumulative IPC: 0.365029 (Simulation time: 0 hr 5 min 44 sec) 
Heartbeat CPU 0 instructions: 150000000 cycles: 207786189 heartbeat IPC: 0.335098 cumulative IPC: 0.358623 (Simulation time: 0 hr 6 min 21 sec) 
Heartbeat CPU 0 instructions: 160000000 cycles: 235198809 heartbeat IPC: 0.364795 cumulative IPC: 0.359637 (Simulation time: 0 hr 6 min 57 sec) 
Heartbeat CPU 0 instructions: 170000001 cycles: 263238024 heartbeat IPC: 0.356643 cumulative IPC: 0.359206 (Simulation time: 0 hr 7 min 37 sec) 
Heartbeat CPU 0 instructions: 180000000 cycles: 291689754 heartbeat IPC: 0.351472 cumulative IPC: 0.358221 (Simulation time: 0 hr 8 min 15 sec) 
Heartbeat CPU 0 instructions: 190000002 cycles: 319714134 heartbeat IPC: 0.356832 cumulative IPC: 0.358066 (Simulation time: 0 hr 8 min 52 sec) 
Heartbeat CPU 0 instructions: 200000000 cycles: 348046115 heartbeat IPC: 0.352958 cumulative IPC: 0.357549 (Simulation time: 0 hr 9 min 31 sec) 
Heartbeat CPU 0 instructions: 210000002 cycles: 375884443 heartbeat IPC: 0.359217 cumulative IPC: 0.3577 (Simulation time: 0 hr 10 min 9 sec) 
Heartbeat CPU 0 instructions: 220000000 cycles: 404994433 heartbeat IPC: 0.343525 cumulative IPC: 0.356474 (Simulation time: 0 hr 10 min 45 sec) 
Heartbeat CPU 0 instructions: 230000000 cycles: 432541028 heartbeat IPC: 0.363021 cumulative IPC: 0.356969 (Simulation time: 0 hr 11 min 21 sec) 
Heartbeat CPU 0 instructions: 240000000 cycles: 458471422 heartbeat IPC: 0.385648 cumulative IPC: 0.358875 (Simulation time: 0 hr 11 min 57 sec) 
Heartbeat CPU 0 instructions: 250000000 cycles: 488606763 heartbeat IPC: 0.331836 cumulative IPC: 0.356936 (Simulation time: 0 hr 12 min 36 sec) 
Heartbeat CPU 0 instructions: 260000000 cycles: 515713691 heartbeat IPC: 0.368909 cumulative IPC: 0.357662 (Simulation time: 0 hr 13 min 13 sec) 
Heartbeat CPU 0 instructions: 270000003 cycles: 544188380 heartbeat IPC: 0.351189 cumulative IPC: 0.357275 (Simulation time: 0 hr 13 min 52 sec) 
Heartbeat CPU 0 instructions: 280000000 cycles: 572392322 heartbeat IPC: 0.35456 cumulative IPC: 0.357123 (Simulation time: 0 hr 14 min 31 sec) 
Heartbeat CPU 0 instructions: 290000000 cycles: 601295048 heartbeat IPC: 0.345988 cumulative IPC: 0.356519 (Simulation time: 0 hr 15 min 10 sec) 
Heartbeat CPU 0 instructions: 300000000 cycles: 631219722 heartbeat IPC: 0.334172 cumulative IPC: 0.355331 (Simulation time: 0 hr 15 min 47 sec) 
Heartbeat CPU 0 instructions: 310000001 cycles: 660585017 heartbeat IPC: 0.340538 cumulative IPC: 0.354597 (Simulation time: 0 hr 16 min 24 sec) 
Heartbeat CPU 0 instructions: 320000000 cycles: 688796369 heartbeat IPC: 0.354467 cumulative IPC: 0.354591 (Simulation time: 0 hr 17 min 1 sec) 
Heartbeat CPU 0 instructions: 330000000 cycles: 717424295 heartbeat IPC: 0.349309 cumulative IPC: 0.354358 (Simulation time: 0 hr 17 min 39 sec) 
Heartbeat CPU 0 instructions: 340000000 cycles: 746699467 heartbeat IPC: 0.341586 cumulative IPC: 0.353807 (Simulation time: 0 hr 18 min 16 sec) 
Heartbeat CPU 0 instructions: 350000003 cycles: 773713705 heartbeat IPC: 0.370175 cumulative IPC: 0.354434 (Simulation time: 0 hr 18 min 53 sec) 
Heartbeat CPU 0 instructions: 360000000 cycles: 801797419 heartbeat IPC: 0.356078 cumulative IPC: 0.354497 (Simulation time: 0 hr 19 min 29 sec) 
Heartbeat CPU 0 instructions: 370000000 cycles: 829937834 heartbeat IPC: 0.355361 cumulative IPC: 0.354529 (Simulation time: 0 hr 20 min 4 sec) 
Heartbeat CPU 0 instructions: 380000000 cycles: 858404026 heartbeat IPC: 0.351294 cumulative IPC: 0.354412 (Simulation time: 0 hr 20 min 40 sec) 
Heartbeat CPU 0 instructions: 390000001 cycles: 885974738 heartbeat IPC: 0.362704 cumulative IPC: 0.354692 (Simulation time: 0 hr 21 min 16 sec) 
Heartbeat CPU 0 instructions: 400000000 cycles: 914574372 heartbeat IPC: 0.349655 cumulative IPC: 0.354522 (Simulation time: 0 hr 21 min 52 sec) 
Heartbeat CPU 0 instructions: 410000001 cycles: 941827837 heartbeat IPC: 0.366926 cumulative IPC: 0.354909 (Simulation time: 0 hr 22 min 27 sec) 
Heartbeat CPU 0 instructions: 420000000 cycles: 969088446 heartbeat IPC: 0.36683 cumulative IPC: 0.35527 (Simulation time: 0 hr 23 min 3 sec) 
Heartbeat CPU 0 instructions: 430000002 cycles: 996742857 heartbeat IPC: 0.361606 cumulative IPC: 0.355458 (Simulation time: 0 hr 23 min 38 sec) 
Heartbeat CPU 0 instructions: 440000000 cycles: 1026274396 heartbeat IPC: 0.338621 cumulative IPC: 0.354939 (Simulation time: 0 hr 24 min 15 sec) 
Heartbeat CPU 0 instructions: 450000002 cycles: 1055489578 heartbeat IPC: 0.342288 cumulative IPC: 0.354565 (Simulation time: 0 hr 24 min 51 sec) 
Heartbeat CPU 0 instructions: 460000000 cycles: 1083143644 heartbeat IPC: 0.36161 cumulative IPC: 0.354757 (Simulation time: 0 hr 25 min 27 sec) 
Heartbeat CPU 0 instructions: 470000000 cycles: 1110739788 heartbeat IPC: 0.362369 cumulative IPC: 0.354958 (Simulation time: 0 hr 26 min 2 sec) 
Heartbeat CPU 0 instructions: 480000000 cycles: 1138593318 heartbeat IPC: 0.359021 cumulative IPC: 0.355064 (Simulation time: 0 hr 26 min 38 sec) 
Heartbeat CPU 0 instructions: 490000000 cycles: 1166147245 heartbeat IPC: 0.362925 cumulative IPC: 0.355261 (Simulation time: 0 hr 27 min 14 sec) 
Heartbeat CPU 0 instructions: 500000000 cycles: 1194436693 heartbeat IPC: 0.353489 cumulative IPC: 0.355217 (Simulation time: 0 hr 27 min 50 sec) 
Heartbeat CPU 0 instructions: 510000000 cycles: 1229035683 heartbeat IPC: 0.289026 cumulative IPC: 0.353244 (Simulation time: 0 hr 28 min 30 sec) 
Heartbeat CPU 0 instructions: 520000000 cycles: 1257018345 heartbeat IPC: 0.357364 cumulative IPC: 0.353341 (Simulation time: 0 hr 29 min 8 sec) 
Heartbeat CPU 0 instructions: 530000001 cycles: 1286287679 heartbeat IPC: 0.341655 cumulative IPC: 0.35306 (Simulation time: 0 hr 29 min 45 sec) 
Heartbeat CPU 0 instructions: 540000000 cycles: 1314307247 heartbeat IPC: 0.356893 cumulative IPC: 0.353146 (Simulation time: 0 hr 30 min 22 sec) 
Heartbeat CPU 0 instructions: 550000001 cycles: 1343498493 heartbeat IPC: 0.342568 cumulative IPC: 0.352904 (Simulation time: 0 hr 31 min 1 sec) 
Heartbeat CPU 0 instructions: 560000000 cycles: 1368874797 heartbeat IPC: 0.394068 cumulative IPC: 0.353707 (Simulation time: 0 hr 31 min 38 sec) 
Heartbeat CPU 0 instructions: 570000000 cycles: 1398368527 heartbeat IPC: 0.339055 cumulative IPC: 0.353382 (Simulation time: 0 hr 32 min 16 sec) 
Heartbeat CPU 0 instructions: 580000000 cycles: 1426315854 heartbeat IPC: 0.357816 cumulative IPC: 0.353473 (Simulation time: 0 hr 32 min 53 sec) 
Heartbeat CPU 0 instructions: 590000001 cycles: 1451104685 heartbeat IPC: 0.403408 cumulative IPC: 0.354369 (Simulation time: 0 hr 33 min 28 sec) 
Heartbeat CPU 0 instructions: 600000000 cycles: 1477225932 heartbeat IPC: 0.38283 cumulative IPC: 0.354896 (Simulation time: 0 hr 34 min 5 sec) 
Finished CPU 0 instructions: 500000000 cycles: 1408862098 cumulative IPC: 0.354896 (Simulation time: 0 hr 34 min 5 sec) 

CPU 0 Branch Prediction Accuracy: 86.4311% MPKI: 26.2662
Number of Branches: 96788573 Number of Mispredictions: 13133102
Number of LOAD Instructions: 164682285
Number of LOAD Instructions (ROI): 164682285
Number of STORE Instructions: 78194750
Number of STORE Instructions (ROI): 78194750
Total Destination Memory Operands: 83268534
Total Destination Memory Operands (ROI): 83268534
Total Source Memory Operands: 164712438
Total Source Memory Operands (ROI): 164712438
Number of DEPENDED LOADS: 7060015
Number of DEPENDED LOADS (ROI): 7060015
Number of SQ_ADDED: 83268522
Number of SQ_ADDED (ROI): 83268522
Number of LQ_ADDED: 236596380
Number of LQ_ADDED (ROI): 236596380
Number of Instructions read from trace: 600000066

ChampSim completed all CPUs

Region of Interest Statistics

CPU 0 cumulative IPC: 0.354896 instructions: 500000000 cycles: 1408862098
ITLB TOTAL     ACCESS:  100515159  HIT:  100310713  MISS:     204446
ITLB LOAD      ACCESS:  100515159  HIT:  100310713  MISS:     204446
ITLB RFO       ACCESS:          0  HIT:          0  MISS:          0
ITLB PREFETCH  ACCESS:          0  HIT:          0  MISS:          0
ITLB WRITEBACK ACCESS:          0  HIT:          0  MISS:          0
ITLB PREFETCH  REQUESTED:          0  ISSUED:          0  USEFUL:          0  USELESS:          0
ITLB TOTAL MSHR MERGED:     172424
ITLB LOAD MSHR MERGED:     172424
ITLB RFO MSHR MERGED:          0
ITLB PREFETCH MSHR MERGED:          0
ITLB WRITEBACK MSHR MERGED:          0
ITLB TOTAL ACCESSES:  100687583 HITS:  100310713 MISSES:     376870
ITLB LOAD ACCESSES:  100687583 HITS:  100310713 MISSES:     376870
ITLB RFO ACCESSES:          0 HITS:          0 MISSES:          0
ITLB PREFETCH ACCESSES:          0 HITS:          0 MISSES:          0
ITLB WRITEBACK ACCESSES:          0 HITS:          0 MISSES:          0
ITLB RQ ACCESS:  500000057
ITLB RQ TO_CACHE:  100687583
ITLB RQ MERGED:  399312474
ITLB RQ FORWARD:          0
ITLB WQ ACCESS:          0
ITLB WQ TO_CACHE:          0
ITLB WQ MERGED:          0
ITLB WQ FORWARD:          0
DTLB TOTAL     ACCESS:  165335966  HIT:  164701618  MISS:     634348
DTLB LOAD      ACCESS:  106291947  HIT:  105722005  MISS:     569942
DTLB RFO       ACCESS:   59044019  HIT:   58979613  MISS:      64406
DTLB PREFETCH  ACCESS:          0  HIT:          0  MISS:          0
DTLB WRITEBACK ACCESS:          0  HIT:          0  MISS:          0
DTLB PREFETCH  REQUESTED:          0  ISSUED:          0  USEFUL:          0  USELESS:          0
DTLB TOTAL MSHR MERGED:      99962
DTLB LOAD MSHR MERGED:      59467
DTLB RFO MSHR MERGED:      40495
DTLB PREFETCH MSHR MERGED:          0
DTLB WRITEBACK MSHR MERGED:          0
DTLB TOTAL ACCESSES:  165435928 HITS:  164701618 MISSES:     734310
DTLB LOAD ACCESSES:  106351414 HITS:  105722005 MISSES:     629409
DTLB RFO ACCESSES:   59084514 HITS:   58979613 MISSES:     104901
DTLB PREFETCH ACCESSES:          0 HITS:          0 MISSES:          0
DTLB WRITEBACK ACCESSES:          0 HITS:          0 MISSES:          0
DTLB RQ ACCESS:  200310892
DTLB RQ TO_CACHE:  165435928
DTLB RQ MERGED:   34874964
DTLB RQ FORWARD:          0
DTLB WQ ACCESS:          0
DTLB WQ TO_CACHE:          0
DTLB WQ MERGED:          0
DTLB WQ FORWARD:          0
L1D TOTAL     ACCESS:  281843049  HIT:  273933702  MISS:    7909347
L1D LOAD      ACCESS:  110425816  HIT:  107150802  MISS:    3275014
L1D RFO       ACCESS:   67106408  HIT:   66215280  MISS:     891128
L1D PREFETCH  ACCESS:  104310825  HIT:  100567620  MISS:    3743205
L1D WRITEBACK ACCESS:          0  HIT:          0  MISS:          0
L1D PREFETCH  REQUESTED:  110816048  ISSUED:  109116731  USEFUL:    1663964  USELESS:    2079205
L1D TOTAL MSHR MERGED:    2859265
L1D LOAD MSHR MERGED:     484760
L1D RFO MSHR MERGED:    1880048
L1D PREFETCH MSHR MERGED:     494457
L1D WRITEBACK MSHR MERGED:          0
L1D TOTAL ACCESSES:  284729851 HITS:  273961239 MISSES:   10768612
L1D LOAD ACCESSES:  110817600 HITS:  107152354 MISSES:    3665246
L1D RFO ACCESSES:   68974126 HITS:   66215280 MISSES:    2758846
L1D PREFETCH ACCESSES:  104938125 HITS:  100593605 MISSES:    4344520
L1D WRITEBACK ACCESSES:          0 HITS:          0 MISSES:          0
L1D RQ ACCESS:  130758289
L1D RQ TO_CACHE:  110816051
L1D RQ MERGED:   19940686
L1D RQ FORWARD:          0
L1D WQ ACCESS:   69552603
L1D WQ TO_CACHE:   68974127
L1D WQ MERGED:     578476
L1D WQ FORWARD:      27537
L1I TOTAL     ACCESS:  126562634  HIT:  122324081  MISS:    4238553
L1I LOAD      ACCESS:  126562634  HIT:  122324081  MISS:    4238553
L1I RFO       ACCESS:          0  HIT:          0  MISS:          0
L1I PREFETCH  ACCESS:          0  HIT:          0  MISS:          0
L1I WRITEBACK ACCESS:          0  HIT:          0  MISS:          0
L1I PREFETCH  REQUESTED:          0  ISSUED:          0  USEFUL:          0  USELESS:          0
L1I TOTAL MSHR MERGED:    1834568
L1I LOAD MSHR MERGED:    1834568
L1I RFO MSHR MERGED:          0
L1I PREFETCH MSHR MERGED:          0
L1I WRITEBACK MSHR MERGED:          0
L1I TOTAL ACCESSES:  128397205 HITS:  122324081 MISSES:    6073124
L1I LOAD ACCESSES:  128397205 HITS:  122324081 MISSES:    6073124
L1I RFO ACCESSES:          0 HITS:          0 MISSES:          0
L1I PREFETCH ACCESSES:          0 HITS:          0 MISSES:          0
L1I WRITEBACK ACCESSES:          0 HITS:          0 MISSES:          0
L1I RQ ACCESS:  500000057
L1I RQ TO_CACHE:  128397205
L1I RQ MERGED:  371602852
L1I RQ FORWARD:          0
L1I WQ ACCESS:          0
L1I WQ TO_CACHE:          0
L1I WQ MERGED:          0
L1I WQ FORWARD:          0
L2C TOTAL     ACCESS:   14904603  HIT:   11158207  MISS:    3746396
L2C LOAD      ACCESS:    7418830  HIT:    5098675  MISS:    2320155
L2C RFO       ACCESS:     878698  HIT:     409914  MISS:     468784
L2C PREFETCH  ACCESS:    4567831  HIT:    3627630  MISS:     940201
L2C WRITEBACK ACCESS:    2039244  HIT:    2021988  MISS:      17256
L2C PREFETCH  REQUESTED:     842665  ISSUED:     842665  USEFUL:     203168  USELESS:     736739
L2C TOTAL MSHR MERGED:       7600
L2C LOAD MSHR MERGED:        991
L2C RFO MSHR MERGED:          0
L2C PREFETCH MSHR MERGED:       6609
L2C WRITEBACK MSHR MERGED:          0
L2C TOTAL ACCESSES:   14913108 HITS:   11158659 MISSES:    3754449
L2C LOAD ACCESSES:    7419039 HITS:    5098884 MISSES:    2320155
L2C RFO ACCESSES:     878798 HITS:     410014 MISSES:     468784
L2C PREFETCH ACCESSES:    4576027 HITS:    3627773 MISSES:     948254
L2C WRITEBACK ACCESSES:    2039244 HITS:    2021988 MISSES:      17256
L2C RQ ACCESS:    8297840
L2C RQ TO_CACHE:    8297531
L2C RQ MERGED:          0
L2C RQ FORWARD:          0
L2C WQ ACCESS:    2039244
L2C WQ TO_CACHE:    2039244
L2C WQ MERGED:          0
L2C WQ FORWARD:        452
LLC TOTAL     ACCESS:    4609700  HIT:    3991119  MISS:     618581
LLC LOAD      ACCESS:    2319150  HIT:    2079236  MISS:     239914
LLC RFO       ACCESS:     468773  HIT:     381178  MISS:      87595
LLC PREFETCH  ACCESS:     941524  HIT:     701006  MISS:     240518
LLC WRITEBACK ACCESS:     880253  HIT:     829699  MISS:      50554
LLC PREFETCH  REQUESTED:          0  ISSUED:          0  USEFUL:      30751  USELESS:     210615
LLC TOTAL MSHR MERGED:         99
LLC LOAD MSHR MERGED:         32
LLC RFO MSHR MERGED:          0
LLC PREFETCH MSHR MERGED:         67
LLC WRITEBACK MSHR MERGED:          0
LLC TOTAL ACCESSES:    4609837 HITS:    3991157 MISSES:     618680
LLC LOAD ACCESSES:    2319164 HITS:    2079250 MISSES:     239914
LLC RFO ACCESSES:     468784 HITS:     381189 MISSES:      87595
LLC PREFETCH ACCESSES:     941636 HITS:     701019 MISSES:     240617
LLC WRITEBACK ACCESSES:     880253 HITS:     829699 MISSES:      50554
LLC 0 RQ ACCESS:    2787948
LLC 0 RQ TO_CACHE:    2787923
LLC 0 RQ MERGED:          0
LLC 0 RQ FORWARD:          0
LLC WQ ACCESS:     880253
LLC WQ TO_CACHE:     880253
LLC WQ MERGED:          0
LLC WQ FORWARD:         38
Major fault: 0 Minor fault: 12862
CPU 0 L1D next line prefetcher final stats
CPU 0 L2C PC-based stride prefetcher final stats
All Misses: 736809
All Hits: 4689897
SD Algo Stats - Switches: 0 SRR-Repls: 281920 BRR-Repls: 0

DRAM Statistics
 CHANNEL 0
 RQ ROW_BUFFER_HIT:     121168  ROW_BUFFER_MISS:     445020
 DBUS_CONGESTED:     380632
 WQ ROW_BUFFER_HIT:      19639  ROW_BUFFER_MISS:     202853  FULL:          0

 AVG_CONGESTED_CYCLE: 13
LOADS RETIRED: 136549171
INSTR RETIRED: 500000000
