
*** ChampSim Multicore Out-of-Order Simulator ***

Warmup Instructions: 100000000
Simulation Instructions: 500000000
Number of CPUs: 1
LLC sets: 2048
LLC ways: 16
Clean RRIP Policies: 2213230222132302 Dirty RRIP Policies: 2203130222031302 PSEL Width: 10 Track Set: 4294967295 PSEL Mask: 1 Demote Mask: 4030100040301000DS Algo: 0Window size: 0
Off-chip DRAM Size: 4096 MB Channels: 1 Width: 64-bit Data Rate: 1600 MT/s

CPU 0 runs /mnt/beegfs/iconst01/spec2017/Wrf.trace.gz
NOT SORTED
TRACE STRING: /mnt/beegfs/iconst01/spec2017/Wrf.trace.gz
SORTED
TRACE STRING: /mnt/beegfs/iconst01/spec2017/Wrf.trace.gz
INITIAL
TRACE STRING: /mnt/beegfs/iconst01/spec2017/Wrf.trace.gz

champsim_seed used: 303

CPU 0 L1D next line prefetcher
CPU 0 L2C IP-based stride prefetcher
Initialize DRRIP state
Assign rand_sets[0]: 454  LLC: 2048
rand_sets[0]: 454
Assign rand_sets[1]: 1662  LLC: 2048
rand_sets[1]: 1662
Assign rand_sets[2]: 1921  LLC: 2048
rand_sets[2]: 1921
Assign rand_sets[3]: 1131  LLC: 2048
rand_sets[3]: 1131
Assign rand_sets[4]: 331  LLC: 2048
rand_sets[4]: 331
Assign rand_sets[5]: 1531  LLC: 2048
rand_sets[5]: 1531
Assign rand_sets[6]: 482  LLC: 2048
rand_sets[6]: 482
Assign rand_sets[7]: 1275  LLC: 2048
rand_sets[7]: 1275
Assign rand_sets[8]: 1876  LLC: 2048
rand_sets[8]: 1876
Assign rand_sets[9]: 2038  LLC: 2048
rand_sets[9]: 2038
Assign rand_sets[10]: 701  LLC: 2048
rand_sets[10]: 701
Assign rand_sets[11]: 479  LLC: 2048
rand_sets[11]: 479
Assign rand_sets[12]: 892  LLC: 2048
rand_sets[12]: 892
Assign rand_sets[13]: 1820  LLC: 2048
rand_sets[13]: 1820
Assign rand_sets[14]: 1505  LLC: 2048
rand_sets[14]: 1505
Assign rand_sets[15]: 1159  LLC: 2048
rand_sets[15]: 1159
Assign rand_sets[16]: 513  LLC: 2048
rand_sets[16]: 513
Assign rand_sets[17]: 703  LLC: 2048
rand_sets[17]: 703
Assign rand_sets[18]: 561  LLC: 2048
rand_sets[18]: 561
Assign rand_sets[19]: 990  LLC: 2048
rand_sets[19]: 990
Assign rand_sets[20]: 342  LLC: 2048
rand_sets[20]: 342
Assign rand_sets[21]: 882  LLC: 2048
rand_sets[21]: 882
Assign rand_sets[22]: 15  LLC: 2048
rand_sets[22]: 15
Assign rand_sets[23]: 71  LLC: 2048
rand_sets[23]: 71
Assign rand_sets[24]: 1127  LLC: 2048
rand_sets[24]: 1127
Assign rand_sets[25]: 1382  LLC: 2048
rand_sets[25]: 1382
Assign rand_sets[26]: 647  LLC: 2048
rand_sets[26]: 647
Assign rand_sets[27]: 857  LLC: 2048
rand_sets[27]: 857
Assign rand_sets[28]: 1450  LLC: 2048
rand_sets[28]: 1450
Assign rand_sets[29]: 1160  LLC: 2048
rand_sets[29]: 1160
Assign rand_sets[30]: 1852  LLC: 2048
rand_sets[30]: 1852
Assign rand_sets[31]: 1881  LLC: 2048
rand_sets[31]: 1881
Assign rand_sets[32]: 1770  LLC: 2048
rand_sets[32]: 1770
Assign rand_sets[33]: 1622  LLC: 2048
rand_sets[33]: 1622
Assign rand_sets[34]: 275  LLC: 2048
rand_sets[34]: 275
Assign rand_sets[35]: 635  LLC: 2048
rand_sets[35]: 635
Assign rand_sets[36]: 466  LLC: 2048
rand_sets[36]: 466
Assign rand_sets[37]: 1413  LLC: 2048
rand_sets[37]: 1413
Assign rand_sets[38]: 417  LLC: 2048
rand_sets[38]: 417
Assign rand_sets[39]: 472  LLC: 2048
rand_sets[39]: 472
Assign rand_sets[40]: 1340  LLC: 2048
rand_sets[40]: 1340
Assign rand_sets[41]: 852  LLC: 2048
rand_sets[41]: 852
Assign rand_sets[42]: 1365  LLC: 2048
rand_sets[42]: 1365
Assign rand_sets[43]: 47  LLC: 2048
rand_sets[43]: 47
Assign rand_sets[44]: 823  LLC: 2048
rand_sets[44]: 823
Assign rand_sets[45]: 686  LLC: 2048
rand_sets[45]: 686
Assign rand_sets[46]: 1637  LLC: 2048
rand_sets[46]: 1637
Assign rand_sets[47]: 1115  LLC: 2048
rand_sets[47]: 1115
Assign rand_sets[48]: 986  LLC: 2048
rand_sets[48]: 986
Assign rand_sets[49]: 258  LLC: 2048
rand_sets[49]: 258
Assign rand_sets[50]: 633  LLC: 2048
rand_sets[50]: 633
Assign rand_sets[51]: 920  LLC: 2048
rand_sets[51]: 920
Assign rand_sets[52]: 204  LLC: 2048
rand_sets[52]: 204
Assign rand_sets[53]: 227  LLC: 2048
rand_sets[53]: 227
Assign rand_sets[54]: 1818  LLC: 2048
rand_sets[54]: 1818
Assign rand_sets[55]: 886  LLC: 2048
rand_sets[55]: 886
Assign rand_sets[56]: 1422  LLC: 2048
rand_sets[56]: 1422
Assign rand_sets[57]: 607  LLC: 2048
rand_sets[57]: 607
Assign rand_sets[58]: 217  LLC: 2048
rand_sets[58]: 217
Assign rand_sets[59]: 1945  LLC: 2048
rand_sets[59]: 1945
Assign rand_sets[60]: 143  LLC: 2048
rand_sets[60]: 143
Assign rand_sets[61]: 1311  LLC: 2048
rand_sets[61]: 1311
Assign rand_sets[62]: 319  LLC: 2048
rand_sets[62]: 319
Assign rand_sets[63]: 1846  LLC: 2048
rand_sets[63]: 1846
 CLEAN-RRIP-POLICY-1: 2-2-1-3-2-3-0-2- CLEAN-RRIP-POLICY-2: 2-2-1-3-2-3-0-2-
 DIRTY-RRIP-POLICY-1: 2-2-0-3-1-3-0-2- DIRTY-RRIP-POLICY-2: 2-2-0-3-1-3-0-2-
 PSEL width: 10
Heartbeat CPU 0 instructions: 10000002 cycles: 6559548 heartbeat IPC: 1.5245 cumulative IPC: 1.5245 (Simulation time: 0 hr 0 min 21 sec) 
Heartbeat CPU 0 instructions: 20000000 cycles: 12222141 heartbeat IPC: 1.76597 cumulative IPC: 1.63637 (Simulation time: 0 hr 0 min 41 sec) 
Heartbeat CPU 0 instructions: 30000003 cycles: 18203953 heartbeat IPC: 1.67173 cumulative IPC: 1.64799 (Simulation time: 0 hr 1 min 1 sec) 
Heartbeat CPU 0 instructions: 40000000 cycles: 24059294 heartbeat IPC: 1.70784 cumulative IPC: 1.66256 (Simulation time: 0 hr 1 min 22 sec) 
Heartbeat CPU 0 instructions: 50000000 cycles: 29527608 heartbeat IPC: 1.82872 cumulative IPC: 1.69333 (Simulation time: 0 hr 1 min 42 sec) 
Heartbeat CPU 0 instructions: 60000000 cycles: 35640409 heartbeat IPC: 1.63591 cumulative IPC: 1.68348 (Simulation time: 0 hr 2 min 3 sec) 
Heartbeat CPU 0 instructions: 70000000 cycles: 41360135 heartbeat IPC: 1.74834 cumulative IPC: 1.69245 (Simulation time: 0 hr 2 min 23 sec) 
Heartbeat CPU 0 instructions: 80000000 cycles: 47231130 heartbeat IPC: 1.70329 cumulative IPC: 1.6938 (Simulation time: 0 hr 2 min 43 sec) 
Heartbeat CPU 0 instructions: 90000000 cycles: 52984623 heartbeat IPC: 1.73807 cumulative IPC: 1.69861 (Simulation time: 0 hr 3 min 4 sec) 
Heartbeat CPU 0 instructions: 100000000 cycles: 58537539 heartbeat IPC: 1.80086 cumulative IPC: 1.70831 (Simulation time: 0 hr 3 min 24 sec) 

Warmup complete CPU 0 instructions: 100000004 cycles: 58537541 (Simulation time: 0 hr 3 min 24 sec) 

Heartbeat CPU 0 instructions: 110000001 cycles: 72356801 heartbeat IPC: 0.723628 cumulative IPC: 0.723628 (Simulation time: 0 hr 3 min 49 sec) 
Heartbeat CPU 0 instructions: 120000000 cycles: 82918807 heartbeat IPC: 0.94679 cumulative IPC: 0.820302 (Simulation time: 0 hr 4 min 13 sec) 
Heartbeat CPU 0 instructions: 130000000 cycles: 92606525 heartbeat IPC: 1.03223 cumulative IPC: 0.880566 (Simulation time: 0 hr 4 min 35 sec) 
Heartbeat CPU 0 instructions: 140000000 cycles: 103048315 heartbeat IPC: 0.95769 cumulative IPC: 0.898659 (Simulation time: 0 hr 4 min 58 sec) 
Heartbeat CPU 0 instructions: 150000002 cycles: 113775322 heartbeat IPC: 0.932227 cumulative IPC: 0.905178 (Simulation time: 0 hr 5 min 21 sec) 
Heartbeat CPU 0 instructions: 160000000 cycles: 122644456 heartbeat IPC: 1.12751 cumulative IPC: 0.935936 (Simulation time: 0 hr 5 min 43 sec) 
Heartbeat CPU 0 instructions: 170000003 cycles: 132803933 heartbeat IPC: 0.984303 cumulative IPC: 0.942553 (Simulation time: 0 hr 6 min 5 sec) 
Heartbeat CPU 0 instructions: 180000000 cycles: 145270160 heartbeat IPC: 0.802167 cumulative IPC: 0.922375 (Simulation time: 0 hr 6 min 29 sec) 
Heartbeat CPU 0 instructions: 190000000 cycles: 160347859 heartbeat IPC: 0.663231 cumulative IPC: 0.883997 (Simulation time: 0 hr 6 min 53 sec) 
Heartbeat CPU 0 instructions: 200000000 cycles: 175386685 heartbeat IPC: 0.664946 cumulative IPC: 0.855804 (Simulation time: 0 hr 7 min 16 sec) 
Heartbeat CPU 0 instructions: 210000000 cycles: 190414648 heartbeat IPC: 0.665426 cumulative IPC: 0.83411 (Simulation time: 0 hr 7 min 40 sec) 
Heartbeat CPU 0 instructions: 220000000 cycles: 206352247 heartbeat IPC: 0.627447 cumulative IPC: 0.811827 (Simulation time: 0 hr 8 min 6 sec) 
Heartbeat CPU 0 instructions: 230000003 cycles: 224904228 heartbeat IPC: 0.539026 cumulative IPC: 0.781406 (Simulation time: 0 hr 8 min 34 sec) 
Heartbeat CPU 0 instructions: 240000000 cycles: 234010640 heartbeat IPC: 1.09813 cumulative IPC: 0.797843 (Simulation time: 0 hr 8 min 55 sec) 
Heartbeat CPU 0 instructions: 250000000 cycles: 242692133 heartbeat IPC: 1.15188 cumulative IPC: 0.814533 (Simulation time: 0 hr 9 min 16 sec) 
Heartbeat CPU 0 instructions: 260000000 cycles: 251729095 heartbeat IPC: 1.10657 cumulative IPC: 0.828194 (Simulation time: 0 hr 9 min 37 sec) 
Heartbeat CPU 0 instructions: 270000000 cycles: 261309610 heartbeat IPC: 1.04379 cumulative IPC: 0.83838 (Simulation time: 0 hr 10 min 0 sec) 
Heartbeat CPU 0 instructions: 280000000 cycles: 271080946 heartbeat IPC: 1.0234 cumulative IPC: 0.846886 (Simulation time: 0 hr 10 min 23 sec) 
Heartbeat CPU 0 instructions: 290000000 cycles: 281217743 heartbeat IPC: 0.986505 cumulative IPC: 0.853242 (Simulation time: 0 hr 10 min 47 sec) 
Heartbeat CPU 0 instructions: 300000000 cycles: 290127998 heartbeat IPC: 1.1223 cumulative IPC: 0.863593 (Simulation time: 0 hr 11 min 9 sec) 
Heartbeat CPU 0 instructions: 310000002 cycles: 304696471 heartbeat IPC: 0.686414 cumulative IPC: 0.853107 (Simulation time: 0 hr 11 min 35 sec) 
Heartbeat CPU 0 instructions: 320000000 cycles: 320867117 heartbeat IPC: 0.618404 cumulative IPC: 0.83864 (Simulation time: 0 hr 12 min 3 sec) 
Heartbeat CPU 0 instructions: 330000002 cycles: 331503298 heartbeat IPC: 0.940187 cumulative IPC: 0.842597 (Simulation time: 0 hr 12 min 26 sec) 
Heartbeat CPU 0 instructions: 340000000 cycles: 341965652 heartbeat IPC: 0.955808 cumulative IPC: 0.846776 (Simulation time: 0 hr 12 min 49 sec) 
Heartbeat CPU 0 instructions: 350000002 cycles: 354996727 heartbeat IPC: 0.767397 cumulative IPC: 0.843286 (Simulation time: 0 hr 13 min 15 sec) 
Heartbeat CPU 0 instructions: 360000000 cycles: 366123112 heartbeat IPC: 0.898764 cumulative IPC: 0.845293 (Simulation time: 0 hr 13 min 38 sec) 
Heartbeat CPU 0 instructions: 370000002 cycles: 376850734 heartbeat IPC: 0.932173 cumulative IPC: 0.848221 (Simulation time: 0 hr 14 min 2 sec) 
Heartbeat CPU 0 instructions: 380000000 cycles: 387375370 heartbeat IPC: 0.950151 cumulative IPC: 0.851484 (Simulation time: 0 hr 14 min 25 sec) 
Heartbeat CPU 0 instructions: 390000003 cycles: 404802522 heartbeat IPC: 0.573817 cumulative IPC: 0.837509 (Simulation time: 0 hr 14 min 53 sec) 
Heartbeat CPU 0 instructions: 400000000 cycles: 415392670 heartbeat IPC: 0.944274 cumulative IPC: 0.840677 (Simulation time: 0 hr 15 min 15 sec) 
Heartbeat CPU 0 instructions: 410000002 cycles: 425291288 heartbeat IPC: 1.01024 cumulative IPC: 0.845254 (Simulation time: 0 hr 15 min 37 sec) 
Heartbeat CPU 0 instructions: 420000000 cycles: 434967690 heartbeat IPC: 1.03344 cumulative IPC: 0.850091 (Simulation time: 0 hr 15 min 58 sec) 
Heartbeat CPU 0 instructions: 430000001 cycles: 444746075 heartbeat IPC: 1.02266 cumulative IPC: 0.854461 (Simulation time: 0 hr 16 min 19 sec) 
Heartbeat CPU 0 instructions: 440000000 cycles: 456212227 heartbeat IPC: 0.872132 cumulative IPC: 0.85497 (Simulation time: 0 hr 16 min 41 sec) 
Heartbeat CPU 0 instructions: 450000002 cycles: 471290764 heartbeat IPC: 0.663194 cumulative IPC: 0.847964 (Simulation time: 0 hr 17 min 5 sec) 
Heartbeat CPU 0 instructions: 460000000 cycles: 486345024 heartbeat IPC: 0.664264 cumulative IPC: 0.8415 (Simulation time: 0 hr 17 min 29 sec) 
Heartbeat CPU 0 instructions: 470000003 cycles: 501387985 heartbeat IPC: 0.664763 cumulative IPC: 0.835496 (Simulation time: 0 hr 17 min 52 sec) 
Heartbeat CPU 0 instructions: 480000000 cycles: 517366993 heartbeat IPC: 0.625821 cumulative IPC: 0.828194 (Simulation time: 0 hr 18 min 18 sec) 
Heartbeat CPU 0 instructions: 490000002 cycles: 536049091 heartbeat IPC: 0.535272 cumulative IPC: 0.816734 (Simulation time: 0 hr 18 min 45 sec) 
Heartbeat CPU 0 instructions: 500000000 cycles: 545085283 heartbeat IPC: 1.10666 cumulative IPC: 0.822119 (Simulation time: 0 hr 19 min 6 sec) 
Heartbeat CPU 0 instructions: 510000002 cycles: 553825195 heartbeat IPC: 1.14418 cumulative IPC: 0.827802 (Simulation time: 0 hr 19 min 27 sec) 
Heartbeat CPU 0 instructions: 520000000 cycles: 562843649 heartbeat IPC: 1.10884 cumulative IPC: 0.832828 (Simulation time: 0 hr 19 min 48 sec) 
Heartbeat CPU 0 instructions: 530000002 cycles: 572422828 heartbeat IPC: 1.04393 cumulative IPC: 0.836763 (Simulation time: 0 hr 20 min 11 sec) 
Heartbeat CPU 0 instructions: 540000000 cycles: 582142240 heartbeat IPC: 1.02887 cumulative IPC: 0.840329 (Simulation time: 0 hr 20 min 34 sec) 
Heartbeat CPU 0 instructions: 550000002 cycles: 592311287 heartbeat IPC: 0.983377 cumulative IPC: 0.843054 (Simulation time: 0 hr 20 min 58 sec) 
Heartbeat CPU 0 instructions: 560000000 cycles: 601214218 heartbeat IPC: 1.12323 cumulative IPC: 0.84765 (Simulation time: 0 hr 21 min 19 sec) 
Heartbeat CPU 0 instructions: 570000003 cycles: 615628744 heartbeat IPC: 0.693745 cumulative IPC: 0.843668 (Simulation time: 0 hr 21 min 45 sec) 
Heartbeat CPU 0 instructions: 580000000 cycles: 631916078 heartbeat IPC: 0.613974 cumulative IPC: 0.837143 (Simulation time: 0 hr 22 min 13 sec) 
Heartbeat CPU 0 instructions: 590000002 cycles: 642172078 heartbeat IPC: 0.975039 cumulative IPC: 0.839566 (Simulation time: 0 hr 22 min 36 sec) 
Heartbeat CPU 0 instructions: 600000000 cycles: 653025424 heartbeat IPC: 0.921375 cumulative IPC: 0.84106 (Simulation time: 0 hr 22 min 59 sec) 
Finished CPU 0 instructions: 500000000 cycles: 594487902 cumulative IPC: 0.84106 (Simulation time: 0 hr 22 min 59 sec) 

CPU 0 Branch Prediction Accuracy: 99.5219% MPKI: 0.251582
Number of Branches: 26312578 Number of Mispredictions: 125791
Number of LOAD Instructions: 235643083
Number of LOAD Instructions (ROI): 235643083
Number of STORE Instructions: 37593550
Number of STORE Instructions (ROI): 37593550
Total Destination Memory Operands: 40480968
Total Destination Memory Operands (ROI): 40480968
Total Source Memory Operands: 235643083
Total Source Memory Operands (ROI): 235643083
Number of DEPENDED LOADS: 6698557
Number of DEPENDED LOADS (ROI): 6698557
Number of SQ_ADDED: 40480950
Number of SQ_ADDED (ROI): 40480950
Number of LQ_ADDED: 389132709
Number of LQ_ADDED (ROI): 389132709
Number of Instructions read from trace: 600000259

ChampSim completed all CPUs

Region of Interest Statistics

CPU 0 cumulative IPC: 0.84106 instructions: 500000000 cycles: 594487902
ITLB TOTAL     ACCESS:  109323015  HIT:  109322502  MISS:        513
ITLB LOAD      ACCESS:  109323015  HIT:  109322502  MISS:        513
ITLB RFO       ACCESS:          0  HIT:          0  MISS:          0
ITLB PREFETCH  ACCESS:          0  HIT:          0  MISS:          0
ITLB WRITEBACK ACCESS:          0  HIT:          0  MISS:          0
ITLB PREFETCH  REQUESTED:          0  ISSUED:          0  USEFUL:          0  USELESS:          0
ITLB TOTAL MSHR MERGED:        973
ITLB LOAD MSHR MERGED:        973
ITLB RFO MSHR MERGED:          0
ITLB PREFETCH MSHR MERGED:          0
ITLB WRITEBACK MSHR MERGED:          0
ITLB TOTAL ACCESSES:  109323988 HITS:  109322502 MISSES:       1486
ITLB LOAD ACCESSES:  109323988 HITS:  109322502 MISSES:       1486
ITLB RFO ACCESSES:          0 HITS:          0 MISSES:          0
ITLB PREFETCH ACCESSES:          0 HITS:          0 MISSES:          0
ITLB WRITEBACK ACCESSES:          0 HITS:          0 MISSES:          0
ITLB RQ ACCESS:  500000003
ITLB RQ TO_CACHE:  109323988
ITLB RQ MERGED:  390676015
ITLB RQ FORWARD:          0
ITLB WQ ACCESS:          0
ITLB WQ TO_CACHE:          0
ITLB WQ MERGED:          0
ITLB WQ FORWARD:          0
DTLB TOTAL     ACCESS:  130439353  HIT:  130181637  MISS:     257716
DTLB LOAD      ACCESS:  109035271  HIT:  108814448  MISS:     220823
DTLB RFO       ACCESS:   21404082  HIT:   21367189  MISS:      36893
DTLB PREFETCH  ACCESS:          0  HIT:          0  MISS:          0
DTLB WRITEBACK ACCESS:          0  HIT:          0  MISS:          0
DTLB PREFETCH  REQUESTED:          0  ISSUED:          0  USEFUL:          0  USELESS:          0
DTLB TOTAL MSHR MERGED:     122104
DTLB LOAD MSHR MERGED:      84051
DTLB RFO MSHR MERGED:      38053
DTLB PREFETCH MSHR MERGED:          0
DTLB WRITEBACK MSHR MERGED:          0
DTLB TOTAL ACCESSES:  130561457 HITS:  130181637 MISSES:     379820
DTLB LOAD ACCESSES:  109119322 HITS:  108814448 MISSES:     304874
DTLB RFO ACCESSES:   21442135 HITS:   21367189 MISSES:      74946
DTLB PREFETCH ACCESSES:          0 HITS:          0 MISSES:          0
DTLB WRITEBACK ACCESSES:          0 HITS:          0 MISSES:          0
DTLB RQ ACCESS:  218635883
DTLB RQ TO_CACHE:  130561458
DTLB RQ MERGED:   88074425
DTLB RQ FORWARD:          0
DTLB WQ ACCESS:          0
DTLB WQ TO_CACHE:          0
DTLB WQ MERGED:          0
DTLB WQ FORWARD:          0
L1D TOTAL     ACCESS:  204674952  HIT:  193602826  MISS:   11072126
L1D LOAD      ACCESS:  106319334  HIT:  103158184  MISS:    3161150
L1D RFO       ACCESS:   26962548  HIT:   25212334  MISS:    1750214
L1D PREFETCH  ACCESS:   71393070  HIT:   65232308  MISS:    6160762
L1D WRITEBACK ACCESS:          0  HIT:          0  MISS:          0
L1D PREFETCH  REQUESTED:  108924898  ISSUED:  107263151  USEFUL:    5705969  USELESS:     454787
L1D TOTAL MSHR MERGED:   18272291
L1D LOAD MSHR MERGED:    4602621
L1D RFO MSHR MERGED:    6479949
L1D PREFETCH MSHR MERGED:    7189721
L1D WRITEBACK MSHR MERGED:          0
L1D TOTAL ACCESSES:  223006352 HITS:  193661935 MISSES:   29344417
L1D LOAD ACCESSES:  108948365 HITS:  103181651 MISSES:    5766714
L1D RFO ACCESSES:   33440320 HITS:   25212334 MISSES:    8227986
L1D PREFETCH ACCESSES:   80617667 HITS:   65267950 MISSES:   15349717
L1D WRITEBACK ACCESSES:          0 HITS:          0 MISSES:          0
L1D RQ ACCESS:  184992445
L1D RQ TO_CACHE:  108924898
L1D RQ MERGED:   76044080
L1D RQ FORWARD:          0
L1D WQ ACCESS:   33643426
L1D WQ TO_CACHE:   33440319
L1D WQ MERGED:     203107
L1D WQ FORWARD:      59109
L1I TOTAL     ACCESS:  134009485  HIT:  133984908  MISS:      24577
L1I LOAD      ACCESS:  134009485  HIT:  133984908  MISS:      24577
L1I RFO       ACCESS:          0  HIT:          0  MISS:          0
L1I PREFETCH  ACCESS:          0  HIT:          0  MISS:          0
L1I WRITEBACK ACCESS:          0  HIT:          0  MISS:          0
L1I PREFETCH  REQUESTED:          0  ISSUED:          0  USEFUL:          0  USELESS:          0
L1I TOTAL MSHR MERGED:      30586
L1I LOAD MSHR MERGED:      30586
L1I RFO MSHR MERGED:          0
L1I PREFETCH MSHR MERGED:          0
L1I WRITEBACK MSHR MERGED:          0
L1I TOTAL ACCESSES:  134040071 HITS:  133984908 MISSES:      55163
L1I LOAD ACCESSES:  134040071 HITS:  133984908 MISSES:      55163
L1I RFO ACCESSES:          0 HITS:          0 MISSES:          0
L1I PREFETCH ACCESSES:          0 HITS:          0 MISSES:          0
L1I WRITEBACK ACCESSES:          0 HITS:          0 MISSES:          0
L1I RQ ACCESS:  500000005
L1I RQ TO_CACHE:  134040071
L1I RQ MERGED:  365959934
L1I RQ FORWARD:          0
L1I WQ ACCESS:          0
L1I WQ TO_CACHE:          0
L1I WQ MERGED:          0
L1I WQ FORWARD:          0
L2C TOTAL     ACCESS:   14942683  HIT:    6945759  MISS:    7996924
L2C LOAD      ACCESS:    1188483  HIT:     299691  MISS:     888792
L2C RFO       ACCESS:    1747817  HIT:     369338  MISS:    1378479
L2C PREFETCH  ACCESS:    8324520  HIT:    2603550  MISS:    5720970
L2C WRITEBACK ACCESS:    3681863  HIT:    3673180  MISS:       8683
L2C PREFETCH  REQUESTED:     390177  ISSUED:     390177  USEFUL:     114711  USELESS:    5607093
L2C TOTAL MSHR MERGED:      41877
L2C LOAD MSHR MERGED:       2280
L2C RFO MSHR MERGED:       1397
L2C PREFETCH MSHR MERGED:      38200
L2C WRITEBACK MSHR MERGED:          0
L2C TOTAL ACCESSES:   15104492 HITS:    6946457 MISSES:    8158035
L2C LOAD ACCESSES:    1188670 HITS:     299878 MISSES:     888792
L2C RFO ACCESSES:    1748037 HITS:     369558 MISSES:    1378479
L2C PREFETCH ACCESSES:    8485922 HITS:    2603841 MISSES:    5882081
L2C WRITEBACK ACCESSES:    3681863 HITS:    3673180 MISSES:       8683
L2C RQ ACCESS:    2936707
L2C RQ TO_CACHE:    2936300
L2C RQ MERGED:          0
L2C RQ FORWARD:          0
L2C WQ ACCESS:    3681863
L2C WQ TO_CACHE:    3681863
L2C WQ MERGED:          0
L2C WQ FORWARD:        698
LLC TOTAL     ACCESS:   11182563  HIT:    3035823  MISS:    8146740
LLC LOAD      ACCESS:     886505  HIT:     313519  MISS:     572986
LLC RFO       ACCESS:    1377079  HIT:     246586  MISS:    1130493
LLC PREFETCH  ACCESS:    5814574  HIT:    1164709  MISS:    4649865
LLC WRITEBACK ACCESS:    3104405  HIT:    1311009  MISS:    1793396
LLC PREFETCH  REQUESTED:          0  ISSUED:          0  USEFUL:      31549  USELESS:    4617792
LLC TOTAL MSHR MERGED:      22269
LLC LOAD MSHR MERGED:       6825
LLC RFO MSHR MERGED:        579
LLC PREFETCH MSHR MERGED:      14865
LLC WRITEBACK MSHR MERGED:          0
LLC TOTAL ACCESSES:   11204852 HITS:    3035843 MISSES:    8169009
LLC LOAD ACCESSES:     886512 HITS:     313526 MISSES:     572986
LLC RFO ACCESSES:    1377082 HITS:     246589 MISSES:    1130493
LLC PREFETCH ACCESSES:    5836853 HITS:    1164719 MISSES:    4672134
LLC WRITEBACK ACCESSES:    3104405 HITS:    1311009 MISSES:    1793396
LLC 0 RQ ACCESS:    2263594
LLC 0 RQ TO_CACHE:    2263584
LLC 0 RQ MERGED:          0
LLC 0 RQ FORWARD:          0
LLC WQ ACCESS:    3104405
LLC WQ TO_CACHE:    3104405
LLC WQ MERGED:          0
LLC WQ FORWARD:         20
Major fault: 0 Minor fault: 11519
CPU 0 L1D next line prefetcher final stats
CPU 0 L2C PC-based stride prefetcher final stats
All Misses: 10257315
All Hits: 3536364
SD Algo Stats - Switches: 0 SRR-Repls: 645043 BRR-Repls: 0

DRAM Statistics
 CHANNEL 0
 RQ ROW_BUFFER_HIT:    3872796  ROW_BUFFER_MISS:    2479646
 DBUS_CONGESTED:    4362252
 WQ ROW_BUFFER_HIT:     384016  ROW_BUFFER_MISS:    1759115  FULL:        355

 AVG_CONGESTED_CYCLE: 13
LOADS RETIRED: 190375692
INSTR RETIRED: 500000000
