
*** ChampSim Multicore Out-of-Order Simulator ***

Warmup Instructions: 100000000
Simulation Instructions: 500000000
Number of CPUs: 1
LLC sets: 2048
LLC ways: 16
Clean RRIP Policies: 323230103232301 Dirty RRIP Policies: 2323130123231301 PSEL Width: 10 Track Set: 4294967295 PSEL Mask: 1 Demote Mask: 2000042020000420DS Algo: 0Window size: 0
Off-chip DRAM Size: 4096 MB Channels: 1 Width: 64-bit Data Rate: 1600 MT/s

CPU 0 runs /mnt/beegfs/iconst01/spec2017/Gcc.trace.gz
NOT SORTED
TRACE STRING: /mnt/beegfs/iconst01/spec2017/Gcc.trace.gz
SORTED
TRACE STRING: /mnt/beegfs/iconst01/spec2017/Gcc.trace.gz
INITIAL
TRACE STRING: /mnt/beegfs/iconst01/spec2017/Gcc.trace.gz

champsim_seed used: 269

CPU 0 L1D next line prefetcher
CPU 0 L2C IP-based stride prefetcher
Initialize DRRIP state
Assign rand_sets[0]: 454  LLC: 2048
rand_sets[0]: 454
Assign rand_sets[1]: 1662  LLC: 2048
rand_sets[1]: 1662
Assign rand_sets[2]: 1921  LLC: 2048
rand_sets[2]: 1921
Assign rand_sets[3]: 1131  LLC: 2048
rand_sets[3]: 1131
Assign rand_sets[4]: 331  LLC: 2048
rand_sets[4]: 331
Assign rand_sets[5]: 1531  LLC: 2048
rand_sets[5]: 1531
Assign rand_sets[6]: 482  LLC: 2048
rand_sets[6]: 482
Assign rand_sets[7]: 1275  LLC: 2048
rand_sets[7]: 1275
Assign rand_sets[8]: 1876  LLC: 2048
rand_sets[8]: 1876
Assign rand_sets[9]: 2038  LLC: 2048
rand_sets[9]: 2038
Assign rand_sets[10]: 701  LLC: 2048
rand_sets[10]: 701
Assign rand_sets[11]: 479  LLC: 2048
rand_sets[11]: 479
Assign rand_sets[12]: 892  LLC: 2048
rand_sets[12]: 892
Assign rand_sets[13]: 1820  LLC: 2048
rand_sets[13]: 1820
Assign rand_sets[14]: 1505  LLC: 2048
rand_sets[14]: 1505
Assign rand_sets[15]: 1159  LLC: 2048
rand_sets[15]: 1159
Assign rand_sets[16]: 513  LLC: 2048
rand_sets[16]: 513
Assign rand_sets[17]: 703  LLC: 2048
rand_sets[17]: 703
Assign rand_sets[18]: 561  LLC: 2048
rand_sets[18]: 561
Assign rand_sets[19]: 990  LLC: 2048
rand_sets[19]: 990
Assign rand_sets[20]: 342  LLC: 2048
rand_sets[20]: 342
Assign rand_sets[21]: 882  LLC: 2048
rand_sets[21]: 882
Assign rand_sets[22]: 15  LLC: 2048
rand_sets[22]: 15
Assign rand_sets[23]: 71  LLC: 2048
rand_sets[23]: 71
Assign rand_sets[24]: 1127  LLC: 2048
rand_sets[24]: 1127
Assign rand_sets[25]: 1382  LLC: 2048
rand_sets[25]: 1382
Assign rand_sets[26]: 647  LLC: 2048
rand_sets[26]: 647
Assign rand_sets[27]: 857  LLC: 2048
rand_sets[27]: 857
Assign rand_sets[28]: 1450  LLC: 2048
rand_sets[28]: 1450
Assign rand_sets[29]: 1160  LLC: 2048
rand_sets[29]: 1160
Assign rand_sets[30]: 1852  LLC: 2048
rand_sets[30]: 1852
Assign rand_sets[31]: 1881  LLC: 2048
rand_sets[31]: 1881
Assign rand_sets[32]: 1770  LLC: 2048
rand_sets[32]: 1770
Assign rand_sets[33]: 1622  LLC: 2048
rand_sets[33]: 1622
Assign rand_sets[34]: 275  LLC: 2048
rand_sets[34]: 275
Assign rand_sets[35]: 635  LLC: 2048
rand_sets[35]: 635
Assign rand_sets[36]: 466  LLC: 2048
rand_sets[36]: 466
Assign rand_sets[37]: 1413  LLC: 2048
rand_sets[37]: 1413
Assign rand_sets[38]: 417  LLC: 2048
rand_sets[38]: 417
Assign rand_sets[39]: 472  LLC: 2048
rand_sets[39]: 472
Assign rand_sets[40]: 1340  LLC: 2048
rand_sets[40]: 1340
Assign rand_sets[41]: 852  LLC: 2048
rand_sets[41]: 852
Assign rand_sets[42]: 1365  LLC: 2048
rand_sets[42]: 1365
Assign rand_sets[43]: 47  LLC: 2048
rand_sets[43]: 47
Assign rand_sets[44]: 823  LLC: 2048
rand_sets[44]: 823
Assign rand_sets[45]: 686  LLC: 2048
rand_sets[45]: 686
Assign rand_sets[46]: 1637  LLC: 2048
rand_sets[46]: 1637
Assign rand_sets[47]: 1115  LLC: 2048
rand_sets[47]: 1115
Assign rand_sets[48]: 986  LLC: 2048
rand_sets[48]: 986
Assign rand_sets[49]: 258  LLC: 2048
rand_sets[49]: 258
Assign rand_sets[50]: 633  LLC: 2048
rand_sets[50]: 633
Assign rand_sets[51]: 920  LLC: 2048
rand_sets[51]: 920
Assign rand_sets[52]: 204  LLC: 2048
rand_sets[52]: 204
Assign rand_sets[53]: 227  LLC: 2048
rand_sets[53]: 227
Assign rand_sets[54]: 1818  LLC: 2048
rand_sets[54]: 1818
Assign rand_sets[55]: 886  LLC: 2048
rand_sets[55]: 886
Assign rand_sets[56]: 1422  LLC: 2048
rand_sets[56]: 1422
Assign rand_sets[57]: 607  LLC: 2048
rand_sets[57]: 607
Assign rand_sets[58]: 217  LLC: 2048
rand_sets[58]: 217
Assign rand_sets[59]: 1945  LLC: 2048
rand_sets[59]: 1945
Assign rand_sets[60]: 143  LLC: 2048
rand_sets[60]: 143
Assign rand_sets[61]: 1311  LLC: 2048
rand_sets[61]: 1311
Assign rand_sets[62]: 319  LLC: 2048
rand_sets[62]: 319
Assign rand_sets[63]: 1846  LLC: 2048
rand_sets[63]: 1846
 CLEAN-RRIP-POLICY-1: 0-3-2-3-2-3-0-1- CLEAN-RRIP-POLICY-2: 0-3-2-3-2-3-0-1-
 DIRTY-RRIP-POLICY-1: 2-3-2-3-1-3-0-1- DIRTY-RRIP-POLICY-2: 2-3-2-3-1-3-0-1-
 PSEL width: 10
Heartbeat CPU 0 instructions: 10000001 cycles: 7316030 heartbeat IPC: 1.36686 cumulative IPC: 1.36686 (Simulation time: 0 hr 0 min 15 sec) 
Heartbeat CPU 0 instructions: 20000000 cycles: 14307511 heartbeat IPC: 1.43031 cumulative IPC: 1.39787 (Simulation time: 0 hr 0 min 30 sec) 
Heartbeat CPU 0 instructions: 30000001 cycles: 21020362 heartbeat IPC: 1.48968 cumulative IPC: 1.42719 (Simulation time: 0 hr 0 min 46 sec) 
Heartbeat CPU 0 instructions: 40000000 cycles: 27481181 heartbeat IPC: 1.54779 cumulative IPC: 1.45554 (Simulation time: 0 hr 1 min 2 sec) 
Heartbeat CPU 0 instructions: 50000001 cycles: 33582807 heartbeat IPC: 1.63891 cumulative IPC: 1.48886 (Simulation time: 0 hr 1 min 17 sec) 
Heartbeat CPU 0 instructions: 60000000 cycles: 40063903 heartbeat IPC: 1.54295 cumulative IPC: 1.49761 (Simulation time: 0 hr 1 min 33 sec) 
Heartbeat CPU 0 instructions: 70000000 cycles: 47101810 heartbeat IPC: 1.42088 cumulative IPC: 1.48614 (Simulation time: 0 hr 1 min 48 sec) 
Heartbeat CPU 0 instructions: 80000000 cycles: 54191198 heartbeat IPC: 1.41056 cumulative IPC: 1.47625 (Simulation time: 0 hr 2 min 2 sec) 
Heartbeat CPU 0 instructions: 90000003 cycles: 61195391 heartbeat IPC: 1.42772 cumulative IPC: 1.4707 (Simulation time: 0 hr 2 min 17 sec) 
Heartbeat CPU 0 instructions: 100000000 cycles: 68362424 heartbeat IPC: 1.39528 cumulative IPC: 1.46279 (Simulation time: 0 hr 2 min 31 sec) 

Warmup complete CPU 0 instructions: 100000004 cycles: 68362425 (Simulation time: 0 hr 2 min 31 sec) 

Heartbeat CPU 0 instructions: 110000003 cycles: 95991951 heartbeat IPC: 0.361932 cumulative IPC: 0.361932 (Simulation time: 0 hr 3 min 0 sec) 
Heartbeat CPU 0 instructions: 120000000 cycles: 123477977 heartbeat IPC: 0.363821 cumulative IPC: 0.362874 (Simulation time: 0 hr 3 min 28 sec) 
Heartbeat CPU 0 instructions: 130000000 cycles: 148469089 heartbeat IPC: 0.400142 cumulative IPC: 0.374501 (Simulation time: 0 hr 3 min 57 sec) 
Heartbeat CPU 0 instructions: 140000000 cycles: 177873615 heartbeat IPC: 0.340084 cumulative IPC: 0.365259 (Simulation time: 0 hr 4 min 24 sec) 
Heartbeat CPU 0 instructions: 150000000 cycles: 207678842 heartbeat IPC: 0.335512 cumulative IPC: 0.358895 (Simulation time: 0 hr 4 min 53 sec) 
Heartbeat CPU 0 instructions: 160000000 cycles: 235081963 heartbeat IPC: 0.364922 cumulative IPC: 0.359886 (Simulation time: 0 hr 5 min 20 sec) 
Heartbeat CPU 0 instructions: 170000001 cycles: 263094937 heartbeat IPC: 0.356977 cumulative IPC: 0.359467 (Simulation time: 0 hr 5 min 50 sec) 
Heartbeat CPU 0 instructions: 180000000 cycles: 291513054 heartbeat IPC: 0.351888 cumulative IPC: 0.358502 (Simulation time: 0 hr 6 min 19 sec) 
Heartbeat CPU 0 instructions: 190000002 cycles: 319486764 heartbeat IPC: 0.357479 cumulative IPC: 0.358388 (Simulation time: 0 hr 6 min 47 sec) 
Heartbeat CPU 0 instructions: 200000000 cycles: 347788409 heartbeat IPC: 0.353336 cumulative IPC: 0.357877 (Simulation time: 0 hr 7 min 16 sec) 
Heartbeat CPU 0 instructions: 210000002 cycles: 375591036 heartbeat IPC: 0.359678 cumulative IPC: 0.35804 (Simulation time: 0 hr 7 min 44 sec) 
Heartbeat CPU 0 instructions: 220000000 cycles: 404645642 heartbeat IPC: 0.344179 cumulative IPC: 0.356842 (Simulation time: 0 hr 8 min 12 sec) 
Heartbeat CPU 0 instructions: 230000000 cycles: 432173597 heartbeat IPC: 0.363267 cumulative IPC: 0.357328 (Simulation time: 0 hr 8 min 39 sec) 
Heartbeat CPU 0 instructions: 240000000 cycles: 458102820 heartbeat IPC: 0.385665 cumulative IPC: 0.359213 (Simulation time: 0 hr 9 min 6 sec) 
Heartbeat CPU 0 instructions: 250000000 cycles: 488238784 heartbeat IPC: 0.331829 cumulative IPC: 0.357248 (Simulation time: 0 hr 9 min 36 sec) 
Heartbeat CPU 0 instructions: 260000000 cycles: 515344314 heartbeat IPC: 0.368928 cumulative IPC: 0.357956 (Simulation time: 0 hr 10 min 4 sec) 
Heartbeat CPU 0 instructions: 270000003 cycles: 543772824 heartbeat IPC: 0.35176 cumulative IPC: 0.357586 (Simulation time: 0 hr 10 min 33 sec) 
Heartbeat CPU 0 instructions: 280000000 cycles: 571934085 heartbeat IPC: 0.355098 cumulative IPC: 0.357447 (Simulation time: 0 hr 11 min 3 sec) 
Heartbeat CPU 0 instructions: 290000000 cycles: 600793413 heartbeat IPC: 0.346508 cumulative IPC: 0.356854 (Simulation time: 0 hr 11 min 32 sec) 
Heartbeat CPU 0 instructions: 300000000 cycles: 630617247 heartbeat IPC: 0.335302 cumulative IPC: 0.355711 (Simulation time: 0 hr 12 min 0 sec) 
Heartbeat CPU 0 instructions: 310000001 cycles: 659954287 heartbeat IPC: 0.340866 cumulative IPC: 0.354974 (Simulation time: 0 hr 12 min 28 sec) 
Heartbeat CPU 0 instructions: 320000000 cycles: 688103683 heartbeat IPC: 0.355247 cumulative IPC: 0.354987 (Simulation time: 0 hr 12 min 56 sec) 
Heartbeat CPU 0 instructions: 330000000 cycles: 716687633 heartbeat IPC: 0.349847 cumulative IPC: 0.35476 (Simulation time: 0 hr 13 min 24 sec) 
Heartbeat CPU 0 instructions: 340000000 cycles: 745916832 heartbeat IPC: 0.342124 cumulative IPC: 0.354215 (Simulation time: 0 hr 13 min 53 sec) 
Heartbeat CPU 0 instructions: 350000003 cycles: 772896231 heartbeat IPC: 0.370653 cumulative IPC: 0.354845 (Simulation time: 0 hr 14 min 20 sec) 
Heartbeat CPU 0 instructions: 360000000 cycles: 800977334 heartbeat IPC: 0.356111 cumulative IPC: 0.354893 (Simulation time: 0 hr 14 min 47 sec) 
Heartbeat CPU 0 instructions: 370000000 cycles: 829167779 heartbeat IPC: 0.35473 cumulative IPC: 0.354887 (Simulation time: 0 hr 15 min 14 sec) 
Heartbeat CPU 0 instructions: 380000000 cycles: 857692168 heartbeat IPC: 0.350577 cumulative IPC: 0.354731 (Simulation time: 0 hr 15 min 42 sec) 
Heartbeat CPU 0 instructions: 390000001 cycles: 885311978 heartbeat IPC: 0.362059 cumulative IPC: 0.354979 (Simulation time: 0 hr 16 min 9 sec) 
Heartbeat CPU 0 instructions: 400000000 cycles: 913943935 heartbeat IPC: 0.34926 cumulative IPC: 0.354785 (Simulation time: 0 hr 16 min 36 sec) 
Heartbeat CPU 0 instructions: 410000001 cycles: 941253451 heartbeat IPC: 0.366173 cumulative IPC: 0.355142 (Simulation time: 0 hr 17 min 3 sec) 
Heartbeat CPU 0 instructions: 420000000 cycles: 968578055 heartbeat IPC: 0.36597 cumulative IPC: 0.35547 (Simulation time: 0 hr 17 min 29 sec) 
Heartbeat CPU 0 instructions: 430000002 cycles: 996265089 heartbeat IPC: 0.36118 cumulative IPC: 0.355641 (Simulation time: 0 hr 17 min 56 sec) 
Heartbeat CPU 0 instructions: 440000000 cycles: 1025772851 heartbeat IPC: 0.338894 cumulative IPC: 0.355125 (Simulation time: 0 hr 18 min 24 sec) 
Heartbeat CPU 0 instructions: 450000002 cycles: 1054990967 heartbeat IPC: 0.342253 cumulative IPC: 0.354743 (Simulation time: 0 hr 18 min 51 sec) 
Heartbeat CPU 0 instructions: 460000000 cycles: 1082689074 heartbeat IPC: 0.361035 cumulative IPC: 0.354915 (Simulation time: 0 hr 19 min 18 sec) 
Heartbeat CPU 0 instructions: 470000000 cycles: 1110334998 heartbeat IPC: 0.361717 cumulative IPC: 0.355096 (Simulation time: 0 hr 19 min 45 sec) 
Heartbeat CPU 0 instructions: 480000000 cycles: 1138227497 heartbeat IPC: 0.358519 cumulative IPC: 0.355185 (Simulation time: 0 hr 20 min 12 sec) 
Heartbeat CPU 0 instructions: 490000000 cycles: 1165826500 heartbeat IPC: 0.362332 cumulative IPC: 0.355365 (Simulation time: 0 hr 20 min 39 sec) 
Heartbeat CPU 0 instructions: 500000000 cycles: 1194117108 heartbeat IPC: 0.353474 cumulative IPC: 0.355317 (Simulation time: 0 hr 21 min 6 sec) 
Heartbeat CPU 0 instructions: 510000000 cycles: 1228977615 heartbeat IPC: 0.286858 cumulative IPC: 0.353261 (Simulation time: 0 hr 21 min 37 sec) 
Heartbeat CPU 0 instructions: 520000000 cycles: 1256936558 heartbeat IPC: 0.357667 cumulative IPC: 0.353365 (Simulation time: 0 hr 22 min 5 sec) 
Heartbeat CPU 0 instructions: 530000001 cycles: 1286167723 heartbeat IPC: 0.342101 cumulative IPC: 0.353094 (Simulation time: 0 hr 22 min 33 sec) 
Heartbeat CPU 0 instructions: 540000000 cycles: 1314160916 heartbeat IPC: 0.35723 cumulative IPC: 0.353187 (Simulation time: 0 hr 23 min 1 sec) 
Heartbeat CPU 0 instructions: 550000001 cycles: 1343356210 heartbeat IPC: 0.342521 cumulative IPC: 0.352943 (Simulation time: 0 hr 23 min 31 sec) 
Heartbeat CPU 0 instructions: 560000000 cycles: 1368719969 heartbeat IPC: 0.394263 cumulative IPC: 0.353749 (Simulation time: 0 hr 23 min 58 sec) 
Heartbeat CPU 0 instructions: 570000000 cycles: 1398122803 heartbeat IPC: 0.340103 cumulative IPC: 0.353447 (Simulation time: 0 hr 24 min 27 sec) 
Heartbeat CPU 0 instructions: 580000000 cycles: 1426070584 heartbeat IPC: 0.35781 cumulative IPC: 0.353537 (Simulation time: 0 hr 24 min 55 sec) 
Heartbeat CPU 0 instructions: 590000001 cycles: 1450910517 heartbeat IPC: 0.402578 cumulative IPC: 0.354418 (Simulation time: 0 hr 25 min 21 sec) 
Heartbeat CPU 0 instructions: 600000000 cycles: 1477078850 heartbeat IPC: 0.382141 cumulative IPC: 0.354933 (Simulation time: 0 hr 25 min 49 sec) 
Finished CPU 0 instructions: 500000000 cycles: 1408716447 cumulative IPC: 0.354933 (Simulation time: 0 hr 25 min 49 sec) 

CPU 0 Branch Prediction Accuracy: 86.4311% MPKI: 26.2662
Number of Branches: 96788573 Number of Mispredictions: 13133102
Number of LOAD Instructions: 164682285
Number of LOAD Instructions (ROI): 164682285
Number of STORE Instructions: 78194750
Number of STORE Instructions (ROI): 78194750
Total Destination Memory Operands: 83268534
Total Destination Memory Operands (ROI): 83268534
Total Source Memory Operands: 164712438
Total Source Memory Operands (ROI): 164712438
Number of DEPENDED LOADS: 7061907
Number of DEPENDED LOADS (ROI): 7061907
Number of SQ_ADDED: 83268522
Number of SQ_ADDED (ROI): 83268522
Number of LQ_ADDED: 236796756
Number of LQ_ADDED (ROI): 236796756
Number of Instructions read from trace: 600000066

ChampSim completed all CPUs

Region of Interest Statistics

CPU 0 cumulative IPC: 0.354933 instructions: 500000000 cycles: 1408716447
ITLB TOTAL     ACCESS:  100513642  HIT:  100309196  MISS:     204446
ITLB LOAD      ACCESS:  100513642  HIT:  100309196  MISS:     204446
ITLB RFO       ACCESS:          0  HIT:          0  MISS:          0
ITLB PREFETCH  ACCESS:          0  HIT:          0  MISS:          0
ITLB WRITEBACK ACCESS:          0  HIT:          0  MISS:          0
ITLB PREFETCH  REQUESTED:          0  ISSUED:          0  USEFUL:          0  USELESS:          0
ITLB TOTAL MSHR MERGED:     172424
ITLB LOAD MSHR MERGED:     172424
ITLB RFO MSHR MERGED:          0
ITLB PREFETCH MSHR MERGED:          0
ITLB WRITEBACK MSHR MERGED:          0
ITLB TOTAL ACCESSES:  100686066 HITS:  100309196 MISSES:     376870
ITLB LOAD ACCESSES:  100686066 HITS:  100309196 MISSES:     376870
ITLB RFO ACCESSES:          0 HITS:          0 MISSES:          0
ITLB PREFETCH ACCESSES:          0 HITS:          0 MISSES:          0
ITLB WRITEBACK ACCESSES:          0 HITS:          0 MISSES:          0
ITLB RQ ACCESS:  500000057
ITLB RQ TO_CACHE:  100686066
ITLB RQ MERGED:  399313991
ITLB RQ FORWARD:          0
ITLB WQ ACCESS:          0
ITLB WQ TO_CACHE:          0
ITLB WQ MERGED:          0
ITLB WQ FORWARD:          0
DTLB TOTAL     ACCESS:  165333699  HIT:  164699346  MISS:     634353
DTLB LOAD      ACCESS:  106290118  HIT:  105720138  MISS:     569980
DTLB RFO       ACCESS:   59043581  HIT:   58979208  MISS:      64373
DTLB PREFETCH  ACCESS:          0  HIT:          0  MISS:          0
DTLB WRITEBACK ACCESS:          0  HIT:          0  MISS:          0
DTLB PREFETCH  REQUESTED:          0  ISSUED:          0  USEFUL:          0  USELESS:          0
DTLB TOTAL MSHR MERGED:      99929
DTLB LOAD MSHR MERGED:      59433
DTLB RFO MSHR MERGED:      40496
DTLB PREFETCH MSHR MERGED:          0
DTLB WRITEBACK MSHR MERGED:          0
DTLB TOTAL ACCESSES:  165433628 HITS:  164699346 MISSES:     734282
DTLB LOAD ACCESSES:  106349551 HITS:  105720138 MISSES:     629413
DTLB RFO ACCESSES:   59084077 HITS:   58979208 MISSES:     104869
DTLB PREFETCH ACCESSES:          0 HITS:          0 MISSES:          0
DTLB WRITEBACK ACCESSES:          0 HITS:          0 MISSES:          0
DTLB RQ ACCESS:  200309010
DTLB RQ TO_CACHE:  165433628
DTLB RQ MERGED:   34875382
DTLB RQ FORWARD:          0
DTLB WQ ACCESS:          0
DTLB WQ TO_CACHE:          0
DTLB WQ MERGED:          0
DTLB WQ FORWARD:          0
L1D TOTAL     ACCESS:  281782432  HIT:  273873187  MISS:    7909245
L1D LOAD      ACCESS:  110409654  HIT:  107128416  MISS:    3281238
L1D RFO       ACCESS:   67101222  HIT:   66209815  MISS:     891407
L1D PREFETCH  ACCESS:  104271556  HIT:  100534956  MISS:    3736600
L1D WRITEBACK ACCESS:          0  HIT:          0  MISS:          0
L1D PREFETCH  REQUESTED:  110815471  ISSUED:  109116191  USEFUL:    1657434  USELESS:    2079130
L1D TOTAL MSHR MERGED:    2918693
L1D LOAD MSHR MERGED:     506553
L1D RFO MSHR MERGED:    1885496
L1D PREFETCH MSHR MERGED:     526644
L1D WRITEBACK MSHR MERGED:          0
L1D TOTAL ACCESSES:  284728662 HITS:  273900724 MISSES:   10827938
L1D LOAD ACCESSES:  110817016 HITS:  107129961 MISSES:    3687055
L1D RFO ACCESSES:   68974089 HITS:   66209815 MISSES:    2764274
L1D PREFETCH ACCESSES:  104937557 HITS:  100560948 MISSES:    4376609
L1D WRITEBACK ACCESSES:          0 HITS:          0 MISSES:          0
L1D RQ ACCESS:  130756407
L1D RQ TO_CACHE:  110815474
L1D RQ MERGED:   19939388
L1D RQ FORWARD:          0
L1D WQ ACCESS:   69552603
L1D WQ TO_CACHE:   68974090
L1D WQ MERGED:     578513
L1D WQ FORWARD:      27537
L1I TOTAL     ACCESS:  126560922  HIT:  122322370  MISS:    4238552
L1I LOAD      ACCESS:  126560922  HIT:  122322370  MISS:    4238552
L1I RFO       ACCESS:          0  HIT:          0  MISS:          0
L1I PREFETCH  ACCESS:          0  HIT:          0  MISS:          0
L1I WRITEBACK ACCESS:          0  HIT:          0  MISS:          0
L1I PREFETCH  REQUESTED:          0  ISSUED:          0  USEFUL:          0  USELESS:          0
L1I TOTAL MSHR MERGED:    1834529
L1I LOAD MSHR MERGED:    1834529
L1I RFO MSHR MERGED:          0
L1I PREFETCH MSHR MERGED:          0
L1I WRITEBACK MSHR MERGED:          0
L1I TOTAL ACCESSES:  128395454 HITS:  122322370 MISSES:    6073084
L1I LOAD ACCESSES:  128395454 HITS:  122322370 MISSES:    6073084
L1I RFO ACCESSES:          0 HITS:          0 MISSES:          0
L1I PREFETCH ACCESSES:          0 HITS:          0 MISSES:          0
L1I WRITEBACK ACCESSES:          0 HITS:          0 MISSES:          0
L1I RQ ACCESS:  500000057
L1I RQ TO_CACHE:  128395454
L1I RQ MERGED:  371604603
L1I RQ FORWARD:          0
L1I WQ ACCESS:          0
L1I WQ TO_CACHE:          0
L1I WQ MERGED:          0
L1I WQ FORWARD:          0
L2C TOTAL     ACCESS:   14903550  HIT:   11157057  MISS:    3746493
L2C LOAD      ACCESS:    7418846  HIT:    5098403  MISS:    2320443
L2C RFO       ACCESS:     878679  HIT:     409881  MISS:     468798
L2C PREFETCH  ACCESS:    4566788  HIT:    3626790  MISS:     939998
L2C WRITEBACK ACCESS:    2039237  HIT:    2021983  MISS:      17254
L2C PREFETCH  REQUESTED:     842622  ISSUED:     842622  USEFUL:     202930  USELESS:     736774
L2C TOTAL MSHR MERGED:       8517
L2C LOAD MSHR MERGED:       1204
L2C RFO MSHR MERGED:          0
L2C PREFETCH MSHR MERGED:       7313
L2C WRITEBACK MSHR MERGED:          0
L2C TOTAL ACCESSES:   14912986 HITS:   11157506 MISSES:    3755480
L2C LOAD ACCESSES:    7419054 HITS:    5098611 MISSES:    2320443
L2C RFO ACCESSES:     878778 HITS:     409980 MISSES:     468798
L2C PREFETCH ACCESSES:    4575917 HITS:    3626932 MISSES:     948985
L2C WRITEBACK ACCESSES:    2039237 HITS:    2021983 MISSES:      17254
L2C RQ ACCESS:    8297835
L2C RQ TO_CACHE:    8297528
L2C RQ MERGED:          0
L2C RQ FORWARD:          0
L2C WQ ACCESS:    2039237
L2C WQ TO_CACHE:    2039237
L2C WQ MERGED:          0
L2C WQ FORWARD:        449
LLC TOTAL     ACCESS:    4609870  HIT:    3855478  MISS:     754392
LLC LOAD      ACCESS:    2319224  HIT:    2093752  MISS:     225472
LLC RFO       ACCESS:     468787  HIT:     371816  MISS:      96971
LLC PREFETCH  ACCESS:     941563  HIT:     596547  MISS:     345016
LLC WRITEBACK ACCESS:     880296  HIT:     793363  MISS:      86933
LLC PREFETCH  REQUESTED:          0  ISSUED:          0  USEFUL:      17692  USELESS:     327618
LLC TOTAL MSHR MERGED:         91
LLC LOAD MSHR MERGED:         34
LLC RFO MSHR MERGED:          0
LLC PREFETCH MSHR MERGED:         57
LLC WRITEBACK MSHR MERGED:          0
LLC TOTAL ACCESSES:    4609997 HITS:    3855514 MISSES:     754483
LLC LOAD ACCESSES:    2319239 HITS:    2093767 MISSES:     225472
LLC RFO ACCESSES:     468798 HITS:     371827 MISSES:      96971
LLC PREFETCH ACCESSES:     941664 HITS:     596557 MISSES:     345107
LLC WRITEBACK ACCESSES:     880296 HITS:     793363 MISSES:      86933
LLC 0 RQ ACCESS:    2788037
LLC 0 RQ TO_CACHE:    2788011
LLC 0 RQ MERGED:          0
LLC 0 RQ FORWARD:          0
LLC WQ ACCESS:     880296
LLC WQ TO_CACHE:     880296
LLC WQ MERGED:          0
LLC WQ FORWARD:         36
Major fault: 0 Minor fault: 12862
CPU 0 L1D next line prefetcher final stats
CPU 0 L2C PC-based stride prefetcher final stats
All Misses: 906739
All Hits: 4520137
SD Algo Stats - Switches: 0 SRR-Repls: 264390 BRR-Repls: 0

DRAM Statistics
 CHANNEL 0
 RQ ROW_BUFFER_HIT:     135215  ROW_BUFFER_MISS:     529314
 DBUS_CONGESTED:     405421
 WQ ROW_BUFFER_HIT:      21125  ROW_BUFFER_MISS:     215347  FULL:          0

 AVG_CONGESTED_CYCLE: 13
LOADS RETIRED: 136549171
INSTR RETIRED: 500000000
