
*** ChampSim Multicore Out-of-Order Simulator ***

Warmup Instructions: 100000000
Simulation Instructions: 500000000
Number of CPUs: 1
LLC sets: 2048
LLC ways: 16
Clean RRIP Policies: 1213030112130301 Dirty RRIP Policies: 2213130122131301 PSEL Width: 10 Track Set: 4294967295 PSEL Mask: 1 Demote Mask: 1340201013402010DS Algo: 0Window size: 0
Off-chip DRAM Size: 4096 MB Channels: 1 Width: 64-bit Data Rate: 1600 MT/s

CPU 0 runs /mnt/beegfs/iconst01/spec2017/Blender.trace.gz
NOT SORTED
TRACE STRING: /mnt/beegfs/iconst01/spec2017/Blender.trace.gz
SORTED
TRACE STRING: /mnt/beegfs/iconst01/spec2017/Blender.trace.gz
INITIAL
TRACE STRING: /mnt/beegfs/iconst01/spec2017/Blender.trace.gz

champsim_seed used: 700

CPU 0 L1D next line prefetcher
CPU 0 L2C IP-based stride prefetcher
Initialize DRRIP state
Assign rand_sets[0]: 454  LLC: 2048
rand_sets[0]: 454
Assign rand_sets[1]: 1662  LLC: 2048
rand_sets[1]: 1662
Assign rand_sets[2]: 1921  LLC: 2048
rand_sets[2]: 1921
Assign rand_sets[3]: 1131  LLC: 2048
rand_sets[3]: 1131
Assign rand_sets[4]: 331  LLC: 2048
rand_sets[4]: 331
Assign rand_sets[5]: 1531  LLC: 2048
rand_sets[5]: 1531
Assign rand_sets[6]: 482  LLC: 2048
rand_sets[6]: 482
Assign rand_sets[7]: 1275  LLC: 2048
rand_sets[7]: 1275
Assign rand_sets[8]: 1876  LLC: 2048
rand_sets[8]: 1876
Assign rand_sets[9]: 2038  LLC: 2048
rand_sets[9]: 2038
Assign rand_sets[10]: 701  LLC: 2048
rand_sets[10]: 701
Assign rand_sets[11]: 479  LLC: 2048
rand_sets[11]: 479
Assign rand_sets[12]: 892  LLC: 2048
rand_sets[12]: 892
Assign rand_sets[13]: 1820  LLC: 2048
rand_sets[13]: 1820
Assign rand_sets[14]: 1505  LLC: 2048
rand_sets[14]: 1505
Assign rand_sets[15]: 1159  LLC: 2048
rand_sets[15]: 1159
Assign rand_sets[16]: 513  LLC: 2048
rand_sets[16]: 513
Assign rand_sets[17]: 703  LLC: 2048
rand_sets[17]: 703
Assign rand_sets[18]: 561  LLC: 2048
rand_sets[18]: 561
Assign rand_sets[19]: 990  LLC: 2048
rand_sets[19]: 990
Assign rand_sets[20]: 342  LLC: 2048
rand_sets[20]: 342
Assign rand_sets[21]: 882  LLC: 2048
rand_sets[21]: 882
Assign rand_sets[22]: 15  LLC: 2048
rand_sets[22]: 15
Assign rand_sets[23]: 71  LLC: 2048
rand_sets[23]: 71
Assign rand_sets[24]: 1127  LLC: 2048
rand_sets[24]: 1127
Assign rand_sets[25]: 1382  LLC: 2048
rand_sets[25]: 1382
Assign rand_sets[26]: 647  LLC: 2048
rand_sets[26]: 647
Assign rand_sets[27]: 857  LLC: 2048
rand_sets[27]: 857
Assign rand_sets[28]: 1450  LLC: 2048
rand_sets[28]: 1450
Assign rand_sets[29]: 1160  LLC: 2048
rand_sets[29]: 1160
Assign rand_sets[30]: 1852  LLC: 2048
rand_sets[30]: 1852
Assign rand_sets[31]: 1881  LLC: 2048
rand_sets[31]: 1881
Assign rand_sets[32]: 1770  LLC: 2048
rand_sets[32]: 1770
Assign rand_sets[33]: 1622  LLC: 2048
rand_sets[33]: 1622
Assign rand_sets[34]: 275  LLC: 2048
rand_sets[34]: 275
Assign rand_sets[35]: 635  LLC: 2048
rand_sets[35]: 635
Assign rand_sets[36]: 466  LLC: 2048
rand_sets[36]: 466
Assign rand_sets[37]: 1413  LLC: 2048
rand_sets[37]: 1413
Assign rand_sets[38]: 417  LLC: 2048
rand_sets[38]: 417
Assign rand_sets[39]: 472  LLC: 2048
rand_sets[39]: 472
Assign rand_sets[40]: 1340  LLC: 2048
rand_sets[40]: 1340
Assign rand_sets[41]: 852  LLC: 2048
rand_sets[41]: 852
Assign rand_sets[42]: 1365  LLC: 2048
rand_sets[42]: 1365
Assign rand_sets[43]: 47  LLC: 2048
rand_sets[43]: 47
Assign rand_sets[44]: 823  LLC: 2048
rand_sets[44]: 823
Assign rand_sets[45]: 686  LLC: 2048
rand_sets[45]: 686
Assign rand_sets[46]: 1637  LLC: 2048
rand_sets[46]: 1637
Assign rand_sets[47]: 1115  LLC: 2048
rand_sets[47]: 1115
Assign rand_sets[48]: 986  LLC: 2048
rand_sets[48]: 986
Assign rand_sets[49]: 258  LLC: 2048
rand_sets[49]: 258
Assign rand_sets[50]: 633  LLC: 2048
rand_sets[50]: 633
Assign rand_sets[51]: 920  LLC: 2048
rand_sets[51]: 920
Assign rand_sets[52]: 204  LLC: 2048
rand_sets[52]: 204
Assign rand_sets[53]: 227  LLC: 2048
rand_sets[53]: 227
Assign rand_sets[54]: 1818  LLC: 2048
rand_sets[54]: 1818
Assign rand_sets[55]: 886  LLC: 2048
rand_sets[55]: 886
Assign rand_sets[56]: 1422  LLC: 2048
rand_sets[56]: 1422
Assign rand_sets[57]: 607  LLC: 2048
rand_sets[57]: 607
Assign rand_sets[58]: 217  LLC: 2048
rand_sets[58]: 217
Assign rand_sets[59]: 1945  LLC: 2048
rand_sets[59]: 1945
Assign rand_sets[60]: 143  LLC: 2048
rand_sets[60]: 143
Assign rand_sets[61]: 1311  LLC: 2048
rand_sets[61]: 1311
Assign rand_sets[62]: 319  LLC: 2048
rand_sets[62]: 319
Assign rand_sets[63]: 1846  LLC: 2048
rand_sets[63]: 1846
 CLEAN-RRIP-POLICY-1: 1-2-1-3-0-3-0-1- CLEAN-RRIP-POLICY-2: 1-2-1-3-0-3-0-1-
 DIRTY-RRIP-POLICY-1: 2-2-1-3-1-3-0-1- DIRTY-RRIP-POLICY-2: 2-2-1-3-1-3-0-1-
 PSEL width: 10
Heartbeat CPU 0 instructions: 10000002 cycles: 5480930 heartbeat IPC: 1.82451 cumulative IPC: 1.82451 (Simulation time: 0 hr 0 min 13 sec) 
Heartbeat CPU 0 instructions: 20000000 cycles: 10913520 heartbeat IPC: 1.84074 cumulative IPC: 1.83259 (Simulation time: 0 hr 0 min 26 sec) 
Heartbeat CPU 0 instructions: 30000000 cycles: 16447388 heartbeat IPC: 1.80705 cumulative IPC: 1.824 (Simulation time: 0 hr 0 min 39 sec) 
Heartbeat CPU 0 instructions: 40000000 cycles: 21898152 heartbeat IPC: 1.83461 cumulative IPC: 1.82664 (Simulation time: 0 hr 0 min 53 sec) 
Heartbeat CPU 0 instructions: 50000000 cycles: 27400065 heartbeat IPC: 1.81755 cumulative IPC: 1.82481 (Simulation time: 0 hr 1 min 6 sec) 
Heartbeat CPU 0 instructions: 60000000 cycles: 32778901 heartbeat IPC: 1.85914 cumulative IPC: 1.83045 (Simulation time: 0 hr 1 min 20 sec) 
Heartbeat CPU 0 instructions: 70000001 cycles: 38335192 heartbeat IPC: 1.79976 cumulative IPC: 1.826 (Simulation time: 0 hr 1 min 33 sec) 
Heartbeat CPU 0 instructions: 80000000 cycles: 43795393 heartbeat IPC: 1.83143 cumulative IPC: 1.82668 (Simulation time: 0 hr 1 min 47 sec) 
Heartbeat CPU 0 instructions: 90000000 cycles: 49242152 heartbeat IPC: 1.83595 cumulative IPC: 1.8277 (Simulation time: 0 hr 2 min 1 sec) 
Heartbeat CPU 0 instructions: 100000000 cycles: 54787283 heartbeat IPC: 1.80338 cumulative IPC: 1.82524 (Simulation time: 0 hr 2 min 14 sec) 

Warmup complete CPU 0 instructions: 100000002 cycles: 54787284 (Simulation time: 0 hr 2 min 14 sec) 

Heartbeat CPU 0 instructions: 110000001 cycles: 69188557 heartbeat IPC: 0.694383 cumulative IPC: 0.694383 (Simulation time: 0 hr 2 min 33 sec) 
Heartbeat CPU 0 instructions: 120000000 cycles: 84191840 heartbeat IPC: 0.666521 cumulative IPC: 0.680167 (Simulation time: 0 hr 2 min 53 sec) 
Heartbeat CPU 0 instructions: 130000000 cycles: 98692137 heartbeat IPC: 0.689641 cumulative IPC: 0.683296 (Simulation time: 0 hr 3 min 13 sec) 
Heartbeat CPU 0 instructions: 140000000 cycles: 113036954 heartbeat IPC: 0.697116 cumulative IPC: 0.686699 (Simulation time: 0 hr 3 min 32 sec) 
Heartbeat CPU 0 instructions: 150000000 cycles: 127745298 heartbeat IPC: 0.679886 cumulative IPC: 0.685326 (Simulation time: 0 hr 3 min 52 sec) 
Heartbeat CPU 0 instructions: 160000000 cycles: 142866556 heartbeat IPC: 0.661321 cumulative IPC: 0.681204 (Simulation time: 0 hr 4 min 12 sec) 
Heartbeat CPU 0 instructions: 170000001 cycles: 157732224 heartbeat IPC: 0.672691 cumulative IPC: 0.679975 (Simulation time: 0 hr 4 min 31 sec) 
Heartbeat CPU 0 instructions: 180000000 cycles: 172663884 heartbeat IPC: 0.669718 cumulative IPC: 0.678676 (Simulation time: 0 hr 4 min 50 sec) 
Heartbeat CPU 0 instructions: 190000002 cycles: 187139278 heartbeat IPC: 0.690828 cumulative IPC: 0.680005 (Simulation time: 0 hr 5 min 10 sec) 
Heartbeat CPU 0 instructions: 200000000 cycles: 201495560 heartbeat IPC: 0.696559 cumulative IPC: 0.681625 (Simulation time: 0 hr 5 min 30 sec) 
Heartbeat CPU 0 instructions: 210000003 cycles: 216118037 heartbeat IPC: 0.683879 cumulative IPC: 0.681829 (Simulation time: 0 hr 5 min 50 sec) 
Heartbeat CPU 0 instructions: 220000000 cycles: 230814291 heartbeat IPC: 0.680445 cumulative IPC: 0.681714 (Simulation time: 0 hr 6 min 9 sec) 
Heartbeat CPU 0 instructions: 230000001 cycles: 245928023 heartbeat IPC: 0.66165 cumulative IPC: 0.680127 (Simulation time: 0 hr 6 min 30 sec) 
Heartbeat CPU 0 instructions: 240000000 cycles: 260844277 heartbeat IPC: 0.67041 cumulative IPC: 0.679424 (Simulation time: 0 hr 6 min 49 sec) 
Heartbeat CPU 0 instructions: 250000003 cycles: 275675530 heartbeat IPC: 0.674252 cumulative IPC: 0.679076 (Simulation time: 0 hr 7 min 8 sec) 
Heartbeat CPU 0 instructions: 260000000 cycles: 291163650 heartbeat IPC: 0.645656 cumulative IPC: 0.676887 (Simulation time: 0 hr 7 min 28 sec) 
Heartbeat CPU 0 instructions: 270000003 cycles: 305746628 heartbeat IPC: 0.685731 cumulative IPC: 0.677401 (Simulation time: 0 hr 7 min 48 sec) 
Heartbeat CPU 0 instructions: 280000000 cycles: 320245446 heartbeat IPC: 0.689711 cumulative IPC: 0.678073 (Simulation time: 0 hr 8 min 8 sec) 
Heartbeat CPU 0 instructions: 290000002 cycles: 334693677 heartbeat IPC: 0.692126 cumulative IPC: 0.678798 (Simulation time: 0 hr 8 min 27 sec) 
Heartbeat CPU 0 instructions: 300000000 cycles: 350087022 heartbeat IPC: 0.649631 cumulative IPC: 0.677278 (Simulation time: 0 hr 8 min 47 sec) 
Heartbeat CPU 0 instructions: 310000000 cycles: 365061420 heartbeat IPC: 0.667807 cumulative IPC: 0.676821 (Simulation time: 0 hr 9 min 7 sec) 
Heartbeat CPU 0 instructions: 320000000 cycles: 379868566 heartbeat IPC: 0.67535 cumulative IPC: 0.676754 (Simulation time: 0 hr 9 min 26 sec) 
Heartbeat CPU 0 instructions: 330000000 cycles: 395629102 heartbeat IPC: 0.634496 cumulative IPC: 0.6748 (Simulation time: 0 hr 9 min 46 sec) 
Heartbeat CPU 0 instructions: 340000000 cycles: 410265287 heartbeat IPC: 0.683238 cumulative IPC: 0.675147 (Simulation time: 0 hr 10 min 6 sec) 
Heartbeat CPU 0 instructions: 350000000 cycles: 424897068 heartbeat IPC: 0.683444 cumulative IPC: 0.675475 (Simulation time: 0 hr 10 min 25 sec) 
Heartbeat CPU 0 instructions: 360000000 cycles: 439561159 heartbeat IPC: 0.681938 cumulative IPC: 0.675722 (Simulation time: 0 hr 10 min 45 sec) 
Heartbeat CPU 0 instructions: 370000002 cycles: 454986640 heartbeat IPC: 0.648278 cumulative IPC: 0.674664 (Simulation time: 0 hr 11 min 5 sec) 
Heartbeat CPU 0 instructions: 380000000 cycles: 469843409 heartbeat IPC: 0.673094 cumulative IPC: 0.674608 (Simulation time: 0 hr 11 min 24 sec) 
Heartbeat CPU 0 instructions: 390000003 cycles: 484802880 heartbeat IPC: 0.668473 cumulative IPC: 0.674394 (Simulation time: 0 hr 11 min 44 sec) 
Heartbeat CPU 0 instructions: 400000000 cycles: 500653752 heartbeat IPC: 0.63088 cumulative IPC: 0.672847 (Simulation time: 0 hr 12 min 4 sec) 
Heartbeat CPU 0 instructions: 410000001 cycles: 515681200 heartbeat IPC: 0.665449 cumulative IPC: 0.672606 (Simulation time: 0 hr 12 min 23 sec) 
Heartbeat CPU 0 instructions: 420000000 cycles: 530416479 heartbeat IPC: 0.678643 cumulative IPC: 0.672793 (Simulation time: 0 hr 12 min 42 sec) 
Heartbeat CPU 0 instructions: 430000000 cycles: 545828538 heartbeat IPC: 0.648843 cumulative IPC: 0.672041 (Simulation time: 0 hr 13 min 2 sec) 
Heartbeat CPU 0 instructions: 440000000 cycles: 560634616 heartbeat IPC: 0.675398 cumulative IPC: 0.67214 (Simulation time: 0 hr 13 min 21 sec) 
Heartbeat CPU 0 instructions: 450000000 cycles: 575614390 heartbeat IPC: 0.667567 cumulative IPC: 0.672008 (Simulation time: 0 hr 13 min 40 sec) 
Heartbeat CPU 0 instructions: 460000000 cycles: 591351110 heartbeat IPC: 0.635456 cumulative IPC: 0.670936 (Simulation time: 0 hr 14 min 0 sec) 
Heartbeat CPU 0 instructions: 470000000 cycles: 606428132 heartbeat IPC: 0.663261 cumulative IPC: 0.670726 (Simulation time: 0 hr 14 min 18 sec) 
Heartbeat CPU 0 instructions: 480000000 cycles: 621293151 heartbeat IPC: 0.67272 cumulative IPC: 0.670779 (Simulation time: 0 hr 14 min 38 sec) 
Heartbeat CPU 0 instructions: 490000002 cycles: 636561466 heartbeat IPC: 0.654951 cumulative IPC: 0.670363 (Simulation time: 0 hr 14 min 57 sec) 
Heartbeat CPU 0 instructions: 500000000 cycles: 651431060 heartbeat IPC: 0.672513 cumulative IPC: 0.670417 (Simulation time: 0 hr 15 min 16 sec) 
Heartbeat CPU 0 instructions: 510000001 cycles: 666537139 heartbeat IPC: 0.661985 cumulative IPC: 0.670209 (Simulation time: 0 hr 15 min 35 sec) 
Heartbeat CPU 0 instructions: 520000000 cycles: 682001522 heartbeat IPC: 0.646647 cumulative IPC: 0.669628 (Simulation time: 0 hr 15 min 55 sec) 
Heartbeat CPU 0 instructions: 530000001 cycles: 697417581 heartbeat IPC: 0.648674 cumulative IPC: 0.669125 (Simulation time: 0 hr 16 min 14 sec) 
Heartbeat CPU 0 instructions: 540000000 cycles: 712003613 heartbeat IPC: 0.685587 cumulative IPC: 0.66949 (Simulation time: 0 hr 16 min 33 sec) 
Heartbeat CPU 0 instructions: 550000001 cycles: 727261901 heartbeat IPC: 0.655382 cumulative IPC: 0.66917 (Simulation time: 0 hr 16 min 52 sec) 
Heartbeat CPU 0 instructions: 560000000 cycles: 742063388 heartbeat IPC: 0.675608 cumulative IPC: 0.669309 (Simulation time: 0 hr 17 min 11 sec) 
Heartbeat CPU 0 instructions: 570000002 cycles: 757207962 heartbeat IPC: 0.660303 cumulative IPC: 0.669115 (Simulation time: 0 hr 17 min 29 sec) 
Heartbeat CPU 0 instructions: 580000000 cycles: 772218674 heartbeat IPC: 0.666191 cumulative IPC: 0.669053 (Simulation time: 0 hr 17 min 48 sec) 
Heartbeat CPU 0 instructions: 590000001 cycles: 787218721 heartbeat IPC: 0.666665 cumulative IPC: 0.669005 (Simulation time: 0 hr 18 min 7 sec) 
Heartbeat CPU 0 instructions: 600000000 cycles: 801869810 heartbeat IPC: 0.682543 cumulative IPC: 0.66927 (Simulation time: 0 hr 18 min 25 sec) 
Finished CPU 0 instructions: 500000000 cycles: 747082534 cumulative IPC: 0.66927 (Simulation time: 0 hr 18 min 25 sec) 

CPU 0 Branch Prediction Accuracy: 93.7783% MPKI: 10.0718
Number of Branches: 80940586 Number of Mispredictions: 5035908
Number of LOAD Instructions: 184238101
Number of LOAD Instructions (ROI): 184238101
Number of STORE Instructions: 33143298
Number of STORE Instructions (ROI): 33143298
Total Destination Memory Operands: 33324321
Total Destination Memory Operands (ROI): 33324321
Total Source Memory Operands: 184238101
Total Source Memory Operands (ROI): 184238101
Number of DEPENDED LOADS: 4461340
Number of DEPENDED LOADS (ROI): 4461340
Number of SQ_ADDED: 33324292
Number of SQ_ADDED (ROI): 33324292
Number of LQ_ADDED: 184867383
Number of LQ_ADDED (ROI): 184867383
Number of Instructions read from trace: 600000256

ChampSim completed all CPUs

Region of Interest Statistics

CPU 0 cumulative IPC: 0.66927 instructions: 500000000 cycles: 747082534
ITLB TOTAL     ACCESS:   77746054  HIT:   77746054  MISS:          0
ITLB LOAD      ACCESS:   77746054  HIT:   77746054  MISS:          0
ITLB RFO       ACCESS:          0  HIT:          0  MISS:          0
ITLB PREFETCH  ACCESS:          0  HIT:          0  MISS:          0
ITLB WRITEBACK ACCESS:          0  HIT:          0  MISS:          0
ITLB PREFETCH  REQUESTED:          0  ISSUED:          0  USEFUL:          0  USELESS:          0
ITLB TOTAL MSHR MERGED:          0
ITLB LOAD MSHR MERGED:          0
ITLB RFO MSHR MERGED:          0
ITLB PREFETCH MSHR MERGED:          0
ITLB WRITEBACK MSHR MERGED:          0
ITLB TOTAL ACCESSES:   77746054 HITS:   77746054 MISSES:          0
ITLB LOAD ACCESSES:   77746054 HITS:   77746054 MISSES:          0
ITLB RFO ACCESSES:          0 HITS:          0 MISSES:          0
ITLB PREFETCH ACCESSES:          0 HITS:          0 MISSES:          0
ITLB WRITEBACK ACCESSES:          0 HITS:          0 MISSES:          0
ITLB RQ ACCESS:  500000245
ITLB RQ TO_CACHE:   77746054
ITLB RQ MERGED:  422254191
ITLB RQ FORWARD:          0
ITLB WQ ACCESS:          0
ITLB WQ TO_CACHE:          0
ITLB WQ MERGED:          0
ITLB WQ FORWARD:          0
DTLB TOTAL     ACCESS:   88436831  HIT:   87299981  MISS:    1136850
DTLB LOAD      ACCESS:   66310087  HIT:   65177477  MISS:    1132610
DTLB RFO       ACCESS:   22126744  HIT:   22122504  MISS:       4240
DTLB PREFETCH  ACCESS:          0  HIT:          0  MISS:          0
DTLB WRITEBACK ACCESS:          0  HIT:          0  MISS:          0
DTLB PREFETCH  REQUESTED:          0  ISSUED:          0  USEFUL:          0  USELESS:          0
DTLB TOTAL MSHR MERGED:     135526
DTLB LOAD MSHR MERGED:     133709
DTLB RFO MSHR MERGED:       1817
DTLB PREFETCH MSHR MERGED:          0
DTLB WRITEBACK MSHR MERGED:          0
DTLB TOTAL ACCESSES:   88572357 HITS:   87299981 MISSES:    1272376
DTLB LOAD ACCESSES:   66443796 HITS:   65177477 MISSES:    1266319
DTLB RFO ACCESSES:   22128561 HITS:   22122504 MISSES:       6057
DTLB PREFETCH ACCESSES:          0 HITS:          0 MISSES:          0
DTLB WRITEBACK ACCESSES:          0 HITS:          0 MISSES:          0
DTLB RQ ACCESS:  177579399
DTLB RQ TO_CACHE:   88572357
DTLB RQ MERGED:   89007042
DTLB RQ FORWARD:          0
DTLB WQ ACCESS:          0
DTLB WQ TO_CACHE:          0
DTLB WQ MERGED:          0
DTLB WQ FORWARD:          0
L1D TOTAL     ACCESS:  142081120  HIT:  136522072  MISS:    5559048
L1D LOAD      ACCESS:   61384034  HIT:   58275660  MISS:    3108374
L1D RFO       ACCESS:   27668751  HIT:   27586941  MISS:      81810
L1D PREFETCH  ACCESS:   53028335  HIT:   50659471  MISS:    2368864
L1D WRITEBACK ACCESS:          0  HIT:          0  MISS:          0
L1D PREFETCH  REQUESTED:   61670254  ISSUED:   60752085  USEFUL:     661983  USELESS:    1706886
L1D TOTAL MSHR MERGED:    1198498
L1D LOAD MSHR MERGED:     388956
L1D RFO MSHR MERGED:     164329
L1D PREFETCH MSHR MERGED:     645213
L1D WRITEBACK MSHR MERGED:          0
L1D TOTAL ACCESSES:  143377232 HITS:  136619686 MISSES:    6757546
L1D LOAD ACCESSES:   61670264 HITS:   58275670 MISSES:    3394594
L1D RFO ACCESSES:   27829287 HITS:   27586941 MISSES:     242346
L1D PREFETCH ACCESSES:   53877681 HITS:   50757075 MISSES:    3120606
L1D WRITEBACK ACCESSES:          0 HITS:          0 MISSES:          0
L1D RQ ACCESS:  149746433
L1D RQ TO_CACHE:   61670254
L1D RQ MERGED:   88076169
L1D RQ FORWARD:          0
L1D WQ ACCESS:   27832966
L1D WQ TO_CACHE:   27829287
L1D WQ MERGED:       3679
L1D WQ FORWARD:      97614
L1I TOTAL     ACCESS:   96223395  HIT:   96064127  MISS:     159268
L1I LOAD      ACCESS:   96223395  HIT:   96064127  MISS:     159268
L1I RFO       ACCESS:          0  HIT:          0  MISS:          0
L1I PREFETCH  ACCESS:          0  HIT:          0  MISS:          0
L1I WRITEBACK ACCESS:          0  HIT:          0  MISS:          0
L1I PREFETCH  REQUESTED:          0  ISSUED:          0  USEFUL:          0  USELESS:          0
L1I TOTAL MSHR MERGED:     130255
L1I LOAD MSHR MERGED:     130255
L1I RFO MSHR MERGED:          0
L1I PREFETCH MSHR MERGED:          0
L1I WRITEBACK MSHR MERGED:          0
L1I TOTAL ACCESSES:   96353650 HITS:   96064127 MISSES:     289523
L1I LOAD ACCESSES:   96353650 HITS:   96064127 MISSES:     289523
L1I RFO ACCESSES:          0 HITS:          0 MISSES:          0
L1I PREFETCH ACCESSES:          0 HITS:          0 MISSES:          0
L1I WRITEBACK ACCESSES:          0 HITS:          0 MISSES:          0
L1I RQ ACCESS:  500000245
L1I RQ TO_CACHE:   96353650
L1I RQ MERGED:  403646595
L1I RQ FORWARD:          0
L1I WQ ACCESS:          0
L1I WQ TO_CACHE:          0
L1I WQ MERGED:          0
L1I WQ FORWARD:          0
L2C TOTAL     ACCESS:    5910973  HIT:    3062302  MISS:    2848671
L2C LOAD      ACCESS:    3164896  HIT:    1583016  MISS:    1581880
L2C RFO       ACCESS:      77941  HIT:      45087  MISS:      32854
L2C PREFETCH  ACCESS:    2524606  HIT:    1296252  MISS:    1228354
L2C WRITEBACK ACCESS:     143530  HIT:     137947  MISS:       5583
L2C PREFETCH  REQUESTED:      52724  ISSUED:      52724  USEFUL:      18673  USELESS:    1209721
L2C TOTAL MSHR MERGED:       2577
L2C LOAD MSHR MERGED:        935
L2C RFO MSHR MERGED:          0
L2C PREFETCH MSHR MERGED:       1642
L2C WRITEBACK MSHR MERGED:          0
L2C TOTAL ACCESSES:    5913644 HITS:    3062388 MISSES:    2851256
L2C LOAD ACCESSES:    3164906 HITS:    1583026 MISSES:    1581880
L2C RFO ACCESSES:      78017 HITS:      45163 MISSES:      32854
L2C PREFETCH ACCESSES:    2527191 HITS:    1296252 MISSES:    1230939
L2C WRITEBACK ACCESSES:     143530 HITS:     137947 MISSES:       5583
L2C RQ ACCESS:    3242923
L2C RQ TO_CACHE:    3242837
L2C RQ MERGED:          0
L2C RQ FORWARD:          0
L2C WQ ACCESS:     143530
L2C WQ TO_CACHE:     143530
L2C WQ MERGED:          0
L2C WQ FORWARD:         86
LLC TOTAL     ACCESS:    2892631  HIT:    1807880  MISS:    1084751
LLC LOAD      ACCESS:    1580945  HIT:    1132716  MISS:     448229
LLC RFO       ACCESS:      32844  HIT:      32398  MISS:        446
LLC PREFETCH  ACCESS:    1229297  HIT:     593872  MISS:     635425
LLC WRITEBACK ACCESS:      49545  HIT:      48894  MISS:        651
LLC PREFETCH  REQUESTED:          0  ISSUED:          0  USEFUL:       3091  USELESS:     632353
LLC TOTAL MSHR MERGED:          0
LLC LOAD MSHR MERGED:          0
LLC RFO MSHR MERGED:          0
LLC PREFETCH MSHR MERGED:          0
LLC WRITEBACK MSHR MERGED:          0
LLC TOTAL ACCESSES:    2892641 HITS:    1807890 MISSES:    1084751
LLC LOAD ACCESSES:    1580945 HITS:    1132716 MISSES:     448229
LLC RFO ACCESSES:      32854 HITS:      32408 MISSES:        446
LLC PREFETCH ACCESSES:    1229297 HITS:     593872 MISSES:     635425
LLC WRITEBACK ACCESSES:      49545 HITS:      48894 MISSES:        651
LLC 0 RQ ACCESS:    1613799
LLC 0 RQ TO_CACHE:    1613789
LLC 0 RQ MERGED:          0
LLC 0 RQ FORWARD:          0
LLC WQ ACCESS:      49545
LLC WQ TO_CACHE:      49545
LLC WQ MERGED:          0
LLC WQ FORWARD:         10
Major fault: 0 Minor fault: 8460
CPU 0 L1D next line prefetcher final stats
CPU 0 L2C PC-based stride prefetcher final stats
All Misses: 1316971
All Hits: 2112256
SD Algo Stats - Switches: 0 SRR-Repls: 519475 BRR-Repls: 0

DRAM Statistics
 CHANNEL 0
 RQ ROW_BUFFER_HIT:     370256  ROW_BUFFER_MISS:     713519
 DBUS_CONGESTED:     332853
 WQ ROW_BUFFER_HIT:        115  ROW_BUFFER_MISS:        904  FULL:          0

 AVG_CONGESTED_CYCLE: 12
LOADS RETIRED: 153532848
INSTR RETIRED: 500000000
