
*** ChampSim Multicore Out-of-Order Simulator ***

Warmup Instructions: 100000000
Simulation Instructions: 500000000
Number of CPUs: 1
LLC sets: 2048
LLC ways: 16
Clean RRIP Policies: 1213230112132301 Dirty RRIP Policies: 2203130122031301 PSEL Width: 10 Track Set: 4294967295 PSEL Mask: 1 Demote Mask: 3040103030401030DS Algo: 0Window size: 0
Off-chip DRAM Size: 4096 MB Channels: 1 Width: 64-bit Data Rate: 1600 MT/s

CPU 0 runs /mnt/beegfs/iconst01/spec2017/Lbm.trace.gz
NOT SORTED
TRACE STRING: /mnt/beegfs/iconst01/spec2017/Lbm.trace.gz
SORTED
TRACE STRING: /mnt/beegfs/iconst01/spec2017/Lbm.trace.gz
INITIAL
TRACE STRING: /mnt/beegfs/iconst01/spec2017/Lbm.trace.gz

champsim_seed used: 283

CPU 0 L1D next line prefetcher
CPU 0 L2C IP-based stride prefetcher
Initialize DRRIP state
Assign rand_sets[0]: 454  LLC: 2048
rand_sets[0]: 454
Assign rand_sets[1]: 1662  LLC: 2048
rand_sets[1]: 1662
Assign rand_sets[2]: 1921  LLC: 2048
rand_sets[2]: 1921
Assign rand_sets[3]: 1131  LLC: 2048
rand_sets[3]: 1131
Assign rand_sets[4]: 331  LLC: 2048
rand_sets[4]: 331
Assign rand_sets[5]: 1531  LLC: 2048
rand_sets[5]: 1531
Assign rand_sets[6]: 482  LLC: 2048
rand_sets[6]: 482
Assign rand_sets[7]: 1275  LLC: 2048
rand_sets[7]: 1275
Assign rand_sets[8]: 1876  LLC: 2048
rand_sets[8]: 1876
Assign rand_sets[9]: 2038  LLC: 2048
rand_sets[9]: 2038
Assign rand_sets[10]: 701  LLC: 2048
rand_sets[10]: 701
Assign rand_sets[11]: 479  LLC: 2048
rand_sets[11]: 479
Assign rand_sets[12]: 892  LLC: 2048
rand_sets[12]: 892
Assign rand_sets[13]: 1820  LLC: 2048
rand_sets[13]: 1820
Assign rand_sets[14]: 1505  LLC: 2048
rand_sets[14]: 1505
Assign rand_sets[15]: 1159  LLC: 2048
rand_sets[15]: 1159
Assign rand_sets[16]: 513  LLC: 2048
rand_sets[16]: 513
Assign rand_sets[17]: 703  LLC: 2048
rand_sets[17]: 703
Assign rand_sets[18]: 561  LLC: 2048
rand_sets[18]: 561
Assign rand_sets[19]: 990  LLC: 2048
rand_sets[19]: 990
Assign rand_sets[20]: 342  LLC: 2048
rand_sets[20]: 342
Assign rand_sets[21]: 882  LLC: 2048
rand_sets[21]: 882
Assign rand_sets[22]: 15  LLC: 2048
rand_sets[22]: 15
Assign rand_sets[23]: 71  LLC: 2048
rand_sets[23]: 71
Assign rand_sets[24]: 1127  LLC: 2048
rand_sets[24]: 1127
Assign rand_sets[25]: 1382  LLC: 2048
rand_sets[25]: 1382
Assign rand_sets[26]: 647  LLC: 2048
rand_sets[26]: 647
Assign rand_sets[27]: 857  LLC: 2048
rand_sets[27]: 857
Assign rand_sets[28]: 1450  LLC: 2048
rand_sets[28]: 1450
Assign rand_sets[29]: 1160  LLC: 2048
rand_sets[29]: 1160
Assign rand_sets[30]: 1852  LLC: 2048
rand_sets[30]: 1852
Assign rand_sets[31]: 1881  LLC: 2048
rand_sets[31]: 1881
Assign rand_sets[32]: 1770  LLC: 2048
rand_sets[32]: 1770
Assign rand_sets[33]: 1622  LLC: 2048
rand_sets[33]: 1622
Assign rand_sets[34]: 275  LLC: 2048
rand_sets[34]: 275
Assign rand_sets[35]: 635  LLC: 2048
rand_sets[35]: 635
Assign rand_sets[36]: 466  LLC: 2048
rand_sets[36]: 466
Assign rand_sets[37]: 1413  LLC: 2048
rand_sets[37]: 1413
Assign rand_sets[38]: 417  LLC: 2048
rand_sets[38]: 417
Assign rand_sets[39]: 472  LLC: 2048
rand_sets[39]: 472
Assign rand_sets[40]: 1340  LLC: 2048
rand_sets[40]: 1340
Assign rand_sets[41]: 852  LLC: 2048
rand_sets[41]: 852
Assign rand_sets[42]: 1365  LLC: 2048
rand_sets[42]: 1365
Assign rand_sets[43]: 47  LLC: 2048
rand_sets[43]: 47
Assign rand_sets[44]: 823  LLC: 2048
rand_sets[44]: 823
Assign rand_sets[45]: 686  LLC: 2048
rand_sets[45]: 686
Assign rand_sets[46]: 1637  LLC: 2048
rand_sets[46]: 1637
Assign rand_sets[47]: 1115  LLC: 2048
rand_sets[47]: 1115
Assign rand_sets[48]: 986  LLC: 2048
rand_sets[48]: 986
Assign rand_sets[49]: 258  LLC: 2048
rand_sets[49]: 258
Assign rand_sets[50]: 633  LLC: 2048
rand_sets[50]: 633
Assign rand_sets[51]: 920  LLC: 2048
rand_sets[51]: 920
Assign rand_sets[52]: 204  LLC: 2048
rand_sets[52]: 204
Assign rand_sets[53]: 227  LLC: 2048
rand_sets[53]: 227
Assign rand_sets[54]: 1818  LLC: 2048
rand_sets[54]: 1818
Assign rand_sets[55]: 886  LLC: 2048
rand_sets[55]: 886
Assign rand_sets[56]: 1422  LLC: 2048
rand_sets[56]: 1422
Assign rand_sets[57]: 607  LLC: 2048
rand_sets[57]: 607
Assign rand_sets[58]: 217  LLC: 2048
rand_sets[58]: 217
Assign rand_sets[59]: 1945  LLC: 2048
rand_sets[59]: 1945
Assign rand_sets[60]: 143  LLC: 2048
rand_sets[60]: 143
Assign rand_sets[61]: 1311  LLC: 2048
rand_sets[61]: 1311
Assign rand_sets[62]: 319  LLC: 2048
rand_sets[62]: 319
Assign rand_sets[63]: 1846  LLC: 2048
rand_sets[63]: 1846
 CLEAN-RRIP-POLICY-1: 1-2-1-3-2-3-0-1- CLEAN-RRIP-POLICY-2: 1-2-1-3-2-3-0-1-
 DIRTY-RRIP-POLICY-1: 2-2-0-3-1-3-0-1- DIRTY-RRIP-POLICY-2: 2-2-0-3-1-3-0-1-
 PSEL width: 10
Heartbeat CPU 0 instructions: 10000000 cycles: 4321590 heartbeat IPC: 2.31396 cumulative IPC: 2.31396 (Simulation time: 0 hr 0 min 17 sec) 
Heartbeat CPU 0 instructions: 20000000 cycles: 8643656 heartbeat IPC: 2.31371 cumulative IPC: 2.31384 (Simulation time: 0 hr 0 min 35 sec) 
Heartbeat CPU 0 instructions: 30000000 cycles: 12965465 heartbeat IPC: 2.31385 cumulative IPC: 2.31384 (Simulation time: 0 hr 0 min 53 sec) 
Heartbeat CPU 0 instructions: 40000000 cycles: 17291306 heartbeat IPC: 2.31169 cumulative IPC: 2.3133 (Simulation time: 0 hr 1 min 11 sec) 
Heartbeat CPU 0 instructions: 50000000 cycles: 21613169 heartbeat IPC: 2.31382 cumulative IPC: 2.3134 (Simulation time: 0 hr 1 min 29 sec) 
Heartbeat CPU 0 instructions: 60000000 cycles: 25935066 heartbeat IPC: 2.3138 cumulative IPC: 2.31347 (Simulation time: 0 hr 1 min 47 sec) 
Heartbeat CPU 0 instructions: 70000000 cycles: 30256619 heartbeat IPC: 2.31398 cumulative IPC: 2.31354 (Simulation time: 0 hr 2 min 6 sec) 
Heartbeat CPU 0 instructions: 80000000 cycles: 34582844 heartbeat IPC: 2.31148 cumulative IPC: 2.31329 (Simulation time: 0 hr 2 min 24 sec) 
Heartbeat CPU 0 instructions: 90000003 cycles: 38904983 heartbeat IPC: 2.31367 cumulative IPC: 2.31333 (Simulation time: 0 hr 2 min 42 sec) 
Heartbeat CPU 0 instructions: 100000000 cycles: 43226405 heartbeat IPC: 2.31405 cumulative IPC: 2.3134 (Simulation time: 0 hr 3 min 1 sec) 

Warmup complete CPU 0 instructions: 100000001 cycles: 43226406 (Simulation time: 0 hr 3 min 1 sec) 

Heartbeat CPU 0 instructions: 110000000 cycles: 57795364 heartbeat IPC: 0.686391 cumulative IPC: 0.686391 (Simulation time: 0 hr 3 min 27 sec) 
Heartbeat CPU 0 instructions: 120000000 cycles: 72250226 heartbeat IPC: 0.691809 cumulative IPC: 0.689089 (Simulation time: 0 hr 3 min 53 sec) 
Heartbeat CPU 0 instructions: 130000000 cycles: 86521981 heartbeat IPC: 0.700685 cumulative IPC: 0.692911 (Simulation time: 0 hr 4 min 19 sec) 
Heartbeat CPU 0 instructions: 140000000 cycles: 100633797 heartbeat IPC: 0.708626 cumulative IPC: 0.696774 (Simulation time: 0 hr 4 min 45 sec) 
Heartbeat CPU 0 instructions: 150000003 cycles: 114537763 heartbeat IPC: 0.719219 cumulative IPC: 0.701151 (Simulation time: 0 hr 5 min 11 sec) 
Heartbeat CPU 0 instructions: 160000000 cycles: 128498454 heartbeat IPC: 0.716297 cumulative IPC: 0.70363 (Simulation time: 0 hr 5 min 37 sec) 
Heartbeat CPU 0 instructions: 170000002 cycles: 143073658 heartbeat IPC: 0.686097 cumulative IPC: 0.701071 (Simulation time: 0 hr 6 min 3 sec) 
Heartbeat CPU 0 instructions: 180000000 cycles: 157274575 heartbeat IPC: 0.70418 cumulative IPC: 0.701458 (Simulation time: 0 hr 6 min 29 sec) 
Heartbeat CPU 0 instructions: 190000003 cycles: 174239841 heartbeat IPC: 0.58944 cumulative IPC: 0.686952 (Simulation time: 0 hr 6 min 58 sec) 
Heartbeat CPU 0 instructions: 200000000 cycles: 194513547 heartbeat IPC: 0.49325 cumulative IPC: 0.660995 (Simulation time: 0 hr 7 min 30 sec) 
Heartbeat CPU 0 instructions: 210000001 cycles: 208810742 heartbeat IPC: 0.699438 cumulative IPC: 0.664314 (Simulation time: 0 hr 7 min 57 sec) 
Heartbeat CPU 0 instructions: 220000000 cycles: 222700815 heartbeat IPC: 0.719939 cumulative IPC: 0.668619 (Simulation time: 0 hr 8 min 23 sec) 
Heartbeat CPU 0 instructions: 230000001 cycles: 236850575 heartbeat IPC: 0.706726 cumulative IPC: 0.671404 (Simulation time: 0 hr 8 min 49 sec) 
Heartbeat CPU 0 instructions: 240000000 cycles: 251414241 heartbeat IPC: 0.68664 cumulative IPC: 0.67247 (Simulation time: 0 hr 9 min 15 sec) 
Heartbeat CPU 0 instructions: 250000000 cycles: 266094956 heartbeat IPC: 0.681166 cumulative IPC: 0.673042 (Simulation time: 0 hr 9 min 41 sec) 
Heartbeat CPU 0 instructions: 260000000 cycles: 281099170 heartbeat IPC: 0.666479 cumulative IPC: 0.672629 (Simulation time: 0 hr 10 min 8 sec) 
Heartbeat CPU 0 instructions: 270000002 cycles: 296361919 heartbeat IPC: 0.65519 cumulative IPC: 0.671577 (Simulation time: 0 hr 10 min 35 sec) 
Heartbeat CPU 0 instructions: 280000000 cycles: 311261277 heartbeat IPC: 0.67117 cumulative IPC: 0.671554 (Simulation time: 0 hr 11 min 2 sec) 
Heartbeat CPU 0 instructions: 290000003 cycles: 327137385 heartbeat IPC: 0.629878 cumulative IPC: 0.669224 (Simulation time: 0 hr 11 min 30 sec) 
Heartbeat CPU 0 instructions: 300000000 cycles: 342290480 heartbeat IPC: 0.659931 cumulative IPC: 0.668753 (Simulation time: 0 hr 11 min 57 sec) 
Heartbeat CPU 0 instructions: 310000000 cycles: 358331575 heartbeat IPC: 0.623399 cumulative IPC: 0.666444 (Simulation time: 0 hr 12 min 24 sec) 
Heartbeat CPU 0 instructions: 320000000 cycles: 374211768 heartbeat IPC: 0.629715 cumulative IPC: 0.664682 (Simulation time: 0 hr 12 min 51 sec) 
Heartbeat CPU 0 instructions: 330000002 cycles: 389194863 heartbeat IPC: 0.667419 cumulative IPC: 0.6648 (Simulation time: 0 hr 13 min 18 sec) 
Heartbeat CPU 0 instructions: 340000000 cycles: 405302858 heartbeat IPC: 0.62081 cumulative IPC: 0.662843 (Simulation time: 0 hr 13 min 45 sec) 
Heartbeat CPU 0 instructions: 350000001 cycles: 420063830 heartbeat IPC: 0.677462 cumulative IPC: 0.663416 (Simulation time: 0 hr 14 min 11 sec) 
Heartbeat CPU 0 instructions: 360000000 cycles: 435630904 heartbeat IPC: 0.642381 cumulative IPC: 0.662582 (Simulation time: 0 hr 14 min 38 sec) 
Heartbeat CPU 0 instructions: 370000000 cycles: 450563009 heartbeat IPC: 0.669698 cumulative IPC: 0.662842 (Simulation time: 0 hr 15 min 4 sec) 
Heartbeat CPU 0 instructions: 380000000 cycles: 465756246 heartbeat IPC: 0.658188 cumulative IPC: 0.662675 (Simulation time: 0 hr 15 min 30 sec) 
Heartbeat CPU 0 instructions: 390000000 cycles: 480234055 heartbeat IPC: 0.690712 cumulative IPC: 0.663604 (Simulation time: 0 hr 15 min 56 sec) 
Heartbeat CPU 0 instructions: 400000000 cycles: 494590622 heartbeat IPC: 0.696545 cumulative IPC: 0.664652 (Simulation time: 0 hr 16 min 22 sec) 
Heartbeat CPU 0 instructions: 410000000 cycles: 508598802 heartbeat IPC: 0.713869 cumulative IPC: 0.666133 (Simulation time: 0 hr 16 min 47 sec) 
Heartbeat CPU 0 instructions: 420000000 cycles: 522989444 heartbeat IPC: 0.694896 cumulative IPC: 0.666996 (Simulation time: 0 hr 17 min 13 sec) 
Heartbeat CPU 0 instructions: 430000002 cycles: 536931498 heartbeat IPC: 0.717255 cumulative IPC: 0.668415 (Simulation time: 0 hr 17 min 38 sec) 
Heartbeat CPU 0 instructions: 440000000 cycles: 550834307 heartbeat IPC: 0.719279 cumulative IPC: 0.669808 (Simulation time: 0 hr 18 min 3 sec) 
Heartbeat CPU 0 instructions: 450000000 cycles: 564761881 heartbeat IPC: 0.718 cumulative IPC: 0.671095 (Simulation time: 0 hr 18 min 28 sec) 
Heartbeat CPU 0 instructions: 460000000 cycles: 579490117 heartbeat IPC: 0.678968 cumulative IPC: 0.671311 (Simulation time: 0 hr 18 min 54 sec) 
Heartbeat CPU 0 instructions: 470000000 cycles: 593824131 heartbeat IPC: 0.697641 cumulative IPC: 0.671997 (Simulation time: 0 hr 19 min 19 sec) 
Heartbeat CPU 0 instructions: 480000000 cycles: 607774648 heartbeat IPC: 0.716819 cumulative IPC: 0.673105 (Simulation time: 0 hr 19 min 44 sec) 
Heartbeat CPU 0 instructions: 490000001 cycles: 622342566 heartbeat IPC: 0.68644 cumulative IPC: 0.67344 (Simulation time: 0 hr 20 min 10 sec) 
Heartbeat CPU 0 instructions: 500000000 cycles: 636779520 heartbeat IPC: 0.692667 cumulative IPC: 0.673908 (Simulation time: 0 hr 20 min 35 sec) 
Heartbeat CPU 0 instructions: 510000002 cycles: 650853497 heartbeat IPC: 0.710531 cumulative IPC: 0.674756 (Simulation time: 0 hr 21 min 0 sec) 
Heartbeat CPU 0 instructions: 520000000 cycles: 664840794 heartbeat IPC: 0.714934 cumulative IPC: 0.67566 (Simulation time: 0 hr 21 min 26 sec) 
Heartbeat CPU 0 instructions: 530000001 cycles: 678606418 heartbeat IPC: 0.726447 cumulative IPC: 0.67676 (Simulation time: 0 hr 21 min 50 sec) 
Heartbeat CPU 0 instructions: 540000000 cycles: 693058582 heartbeat IPC: 0.691938 cumulative IPC: 0.677098 (Simulation time: 0 hr 22 min 16 sec) 
Heartbeat CPU 0 instructions: 550000003 cycles: 707120218 heartbeat IPC: 0.711155 cumulative IPC: 0.677819 (Simulation time: 0 hr 22 min 41 sec) 
Heartbeat CPU 0 instructions: 560000000 cycles: 721762928 heartbeat IPC: 0.682934 cumulative IPC: 0.67793 (Simulation time: 0 hr 23 min 7 sec) 
Heartbeat CPU 0 instructions: 570000001 cycles: 735951481 heartbeat IPC: 0.704794 cumulative IPC: 0.67848 (Simulation time: 0 hr 23 min 32 sec) 
Heartbeat CPU 0 instructions: 580000000 cycles: 749796219 heartbeat IPC: 0.722296 cumulative IPC: 0.679338 (Simulation time: 0 hr 23 min 57 sec) 
Heartbeat CPU 0 instructions: 590000003 cycles: 763196280 heartbeat IPC: 0.746265 cumulative IPC: 0.680584 (Simulation time: 0 hr 24 min 22 sec) 
Heartbeat CPU 0 instructions: 600000000 cycles: 777218614 heartbeat IPC: 0.713148 cumulative IPC: 0.681206 (Simulation time: 0 hr 24 min 47 sec) 
Finished CPU 0 instructions: 500000000 cycles: 733992216 cumulative IPC: 0.681206 (Simulation time: 0 hr 24 min 47 sec) 

CPU 0 Branch Prediction Accuracy: 99.5915% MPKI: 0.037126
Number of Branches: 4544106 Number of Mispredictions: 18563
Number of LOAD Instructions: 149787067
Number of LOAD Instructions (ROI): 149787067
Number of STORE Instructions: 77239062
Number of STORE Instructions (ROI): 77239062
Total Destination Memory Operands: 77239062
Total Destination Memory Operands (ROI): 77239062
Total Source Memory Operands: 149787067
Total Source Memory Operands (ROI): 149787067
Number of DEPENDED LOADS: 19249182
Number of DEPENDED LOADS (ROI): 19249182
Number of SQ_ADDED: 77239036
Number of SQ_ADDED (ROI): 77239036
Number of LQ_ADDED: 149787020
Number of LQ_ADDED (ROI): 149787020
Number of Instructions read from trace: 600000256

ChampSim completed all CPUs

Region of Interest Statistics

CPU 0 cumulative IPC: 0.681206 instructions: 500000000 cycles: 733992216
ITLB TOTAL     ACCESS:   86453203  HIT:   86453202  MISS:          1
ITLB LOAD      ACCESS:   86453203  HIT:   86453202  MISS:          1
ITLB RFO       ACCESS:          0  HIT:          0  MISS:          0
ITLB PREFETCH  ACCESS:          0  HIT:          0  MISS:          0
ITLB WRITEBACK ACCESS:          0  HIT:          0  MISS:          0
ITLB PREFETCH  REQUESTED:          0  ISSUED:          0  USEFUL:          0  USELESS:          0
ITLB TOTAL MSHR MERGED:          1
ITLB LOAD MSHR MERGED:          1
ITLB RFO MSHR MERGED:          0
ITLB PREFETCH MSHR MERGED:          0
ITLB WRITEBACK MSHR MERGED:          0
ITLB TOTAL ACCESSES:   86453204 HITS:   86453202 MISSES:          2
ITLB LOAD ACCESSES:   86453204 HITS:   86453202 MISSES:          2
ITLB RFO ACCESSES:          0 HITS:          0 MISSES:          0
ITLB PREFETCH ACCESSES:          0 HITS:          0 MISSES:          0
ITLB WRITEBACK ACCESSES:          0 HITS:          0 MISSES:          0
ITLB RQ ACCESS:  500000002
ITLB RQ TO_CACHE:   86453204
ITLB RQ MERGED:  413546798
ITLB RQ FORWARD:          0
ITLB WQ ACCESS:          0
ITLB WQ TO_CACHE:          0
ITLB WQ MERGED:          0
ITLB WQ FORWARD:          0
DTLB TOTAL     ACCESS:   98104531  HIT:   97919270  MISS:     185261
DTLB LOAD      ACCESS:   55039466  HIT:   54993155  MISS:      46311
DTLB RFO       ACCESS:   43065065  HIT:   42926115  MISS:     138950
DTLB PREFETCH  ACCESS:          0  HIT:          0  MISS:          0
DTLB WRITEBACK ACCESS:          0  HIT:          0  MISS:          0
DTLB PREFETCH  REQUESTED:          0  ISSUED:          0  USEFUL:          0  USELESS:          0
DTLB TOTAL MSHR MERGED:      83587
DTLB LOAD MSHR MERGED:      83583
DTLB RFO MSHR MERGED:          4
DTLB PREFETCH MSHR MERGED:          0
DTLB WRITEBACK MSHR MERGED:          0
DTLB TOTAL ACCESSES:   98188118 HITS:   97919270 MISSES:     268848
DTLB LOAD ACCESSES:   55123049 HITS:   54993155 MISSES:     129894
DTLB RFO ACCESSES:   43065069 HITS:   42926115 MISSES:     138954
DTLB PREFETCH ACCESSES:          0 HITS:          0 MISSES:          0
DTLB WRITEBACK ACCESSES:          0 HITS:          0 MISSES:          0
DTLB RQ ACCESS:  173633345
DTLB RQ TO_CACHE:   98188118
DTLB RQ MERGED:   75445227
DTLB RQ FORWARD:          0
DTLB WQ ACCESS:          0
DTLB WQ TO_CACHE:          0
DTLB WQ MERGED:          0
DTLB WQ FORWARD:          0
L1D TOTAL     ACCESS:  164548226  HIT:  144975669  MISS:   19572557
L1D LOAD      ACCESS:   60520761  HIT:   58668928  MISS:    1851833
L1D RFO       ACCESS:   64513508  HIT:   47911390  MISS:   16602118
L1D PREFETCH  ACCESS:   39513957  HIT:   38395351  MISS:    1118606
L1D WRITEBACK ACCESS:          0  HIT:          0  MISS:          0
L1D PREFETCH  REQUESTED:   61691422  ISSUED:   61399350  USEFUL:    1116686  USELESS:       1920
L1D TOTAL MSHR MERGED:    3509173
L1D LOAD MSHR MERGED:    1241460
L1D RFO MSHR MERGED:      11501
L1D PREFETCH MSHR MERGED:    2256212
L1D WRITEBACK MSHR MERGED:          0
L1D TOTAL ACCESSES:  168629103 HITS:  145547374 MISSES:   23081729
L1D LOAD ACCESSES:   61956209 HITS:   58933715 MISSES:    3022494
L1D RFO ACCESSES:   64524976 HITS:   47911390 MISSES:   16613586
L1D PREFETCH ACCESSES:   42147918 HITS:   38702269 MISSES:    3445649
L1D WRITEBACK ACCESSES:          0 HITS:          0 MISSES:          0
L1D RQ ACCESS:  109092030
L1D RQ TO_CACHE:   61691422
L1D RQ MERGED:   47135821
L1D RQ FORWARD:          0
L1D WQ ACCESS:   64541313
L1D WQ TO_CACHE:   64524977
L1D WQ MERGED:      16336
L1D WQ FORWARD:     571705
L1I TOTAL     ACCESS:  107762128  HIT:  107762120  MISS:          8
L1I LOAD      ACCESS:  107762128  HIT:  107762120  MISS:          8
L1I RFO       ACCESS:          0  HIT:          0  MISS:          0
L1I PREFETCH  ACCESS:          0  HIT:          0  MISS:          0
L1I WRITEBACK ACCESS:          0  HIT:          0  MISS:          0
L1I PREFETCH  REQUESTED:          0  ISSUED:          0  USEFUL:          0  USELESS:          0
L1I TOTAL MSHR MERGED:          3
L1I LOAD MSHR MERGED:          3
L1I RFO MSHR MERGED:          0
L1I PREFETCH MSHR MERGED:          0
L1I WRITEBACK MSHR MERGED:          0
L1I TOTAL ACCESSES:  107762131 HITS:  107762120 MISSES:         11
L1I LOAD ACCESSES:  107762131 HITS:  107762120 MISSES:         11
L1I RFO ACCESSES:          0 HITS:          0 MISSES:          0
L1I PREFETCH ACCESSES:          0 HITS:          0 MISSES:          0
L1I WRITEBACK ACCESSES:          0 HITS:          0 MISSES:          0
L1I RQ ACCESS:  500000007
L1I RQ TO_CACHE:  107762131
L1I RQ MERGED:  392237876
L1I RQ FORWARD:          0
L1I WQ ACCESS:          0
L1I WQ TO_CACHE:          0
L1I WQ MERGED:          0
L1I WQ FORWARD:          0
L2C TOTAL     ACCESS:   36800751  HIT:   24843169  MISS:   11957582
L2C LOAD      ACCESS:    1781042  HIT:     252895  MISS:    1528147
L2C RFO       ACCESS:   16602082  HIT:    7610719  MISS:    8991363
L2C PREFETCH  ACCESS:    1815446  HIT:     378601  MISS:    1436845
L2C WRITEBACK ACCESS:   16602181  HIT:   16600954  MISS:       1227
L2C PREFETCH  REQUESTED:     816049  ISSUED:     816049  USEFUL:     250566  USELESS:    1186560
L2C TOTAL MSHR MERGED:       2643
L2C LOAD MSHR MERGED:        598
L2C RFO MSHR MERGED:          0
L2C PREFETCH MSHR MERGED:       2045
L2C WRITEBACK MSHR MERGED:          0
L2C TOTAL ACCESSES:   36990706 HITS:   24843173 MISSES:   12147533
L2C LOAD ACCESSES:    1781042 HITS:     252895 MISSES:    1528147
L2C RFO ACCESSES:   16602085 HITS:    7610723 MISSES:    8991362
L2C PREFETCH ACCESSES:    2005398 HITS:     378601 MISSES:    1626797
L2C WRITEBACK ACCESSES:   16602181 HITS:   16600954 MISSES:       1227
L2C RQ ACCESS:   18383127
L2C RQ TO_CACHE:   18383123
L2C RQ MERGED:          0
L2C RQ FORWARD:          0
L2C WQ ACCESS:   16602182
L2C WQ TO_CACHE:   16602182
L2C WQ MERGED:          0
L2C WQ FORWARD:          4
LLC TOTAL     ACCESS:   21132711  HIT:    1432874  MISS:   19699837
LLC LOAD      ACCESS:    1527549  HIT:      67800  MISS:    1459749
LLC RFO       ACCESS:    8991346  HIT:     552374  MISS:    8438972
LLC PREFETCH  ACCESS:    1621626  HIT:     116146  MISS:    1505480
LLC WRITEBACK ACCESS:    8992190  HIT:     696554  MISS:    8295636
LLC PREFETCH  REQUESTED:          0  ISSUED:          0  USEFUL:      67511  USELESS:    1437765
LLC TOTAL MSHR MERGED:       2722
LLC LOAD MSHR MERGED:        215
LLC RFO MSHR MERGED:          0
LLC PREFETCH MSHR MERGED:       2507
LLC WRITEBACK MSHR MERGED:          0
LLC TOTAL ACCESSES:   21135449 HITS:    1432891 MISSES:   19702558
LLC LOAD ACCESSES:    1527549 HITS:      67800 MISSES:    1459749
LLC RFO ACCESSES:    8991362 HITS:     552391 MISSES:    8438971
LLC PREFETCH ACCESSES:    1624348 HITS:     116146 MISSES:    1508202
LLC WRITEBACK ACCESSES:    8992190 HITS:     696554 MISSES:    8295636
LLC 0 RQ ACCESS:   10518911
LLC 0 RQ TO_CACHE:   10518894
LLC 0 RQ MERGED:          0
LLC 0 RQ FORWARD:          0
LLC WQ ACCESS:    8992190
LLC WQ TO_CACHE:    8992190
LLC WQ MERGED:          0
LLC WQ FORWARD:         17
Major fault: 0 Minor fault: 102360
CPU 0 L1D next line prefetcher final stats
CPU 0 L2C PC-based stride prefetcher final stats
All Misses: 23450319
All Hits: 1657903
SD Algo Stats - Switches: 0 SRR-Repls: 1638283 BRR-Repls: 0

DRAM Statistics
 CHANNEL 0
 RQ ROW_BUFFER_HIT:    3711921  ROW_BUFFER_MISS:    7690893
 DBUS_CONGESTED:   13655280
 WQ ROW_BUFFER_HIT:    1403076  ROW_BUFFER_MISS:    7068266  FULL:          0

 AVG_CONGESTED_CYCLE: 13
LOADS RETIRED: 124982196
INSTR RETIRED: 500000000
