
*** ChampSim Multicore Out-of-Order Simulator ***

Warmup Instructions: 100000000
Simulation Instructions: 500000000
Number of CPUs: 1
LLC sets: 2048
LLC ways: 16
Clean RRIP Policies: 2210230322102303 Dirty RRIP Policies: 1200130312001303 PSEL Width: 10 Track Set: 4294967295 PSEL Mask: 1 Demote Mask: 1040100010401000DS Algo: 0Window size: 0
Off-chip DRAM Size: 4096 MB Channels: 1 Width: 64-bit Data Rate: 1600 MT/s

CPU 0 runs /mnt/beegfs/iconst01/spec2017/x264.trace.gz
NOT SORTED
TRACE STRING: /mnt/beegfs/iconst01/spec2017/x264.trace.gz
SORTED
TRACE STRING: /mnt/beegfs/iconst01/spec2017/x264.trace.gz
INITIAL
TRACE STRING: /mnt/beegfs/iconst01/spec2017/x264.trace.gz

champsim_seed used: 276

CPU 0 L1D next line prefetcher
CPU 0 L2C IP-based stride prefetcher
Initialize DRRIP state
Assign rand_sets[0]: 454  LLC: 2048
rand_sets[0]: 454
Assign rand_sets[1]: 1662  LLC: 2048
rand_sets[1]: 1662
Assign rand_sets[2]: 1921  LLC: 2048
rand_sets[2]: 1921
Assign rand_sets[3]: 1131  LLC: 2048
rand_sets[3]: 1131
Assign rand_sets[4]: 331  LLC: 2048
rand_sets[4]: 331
Assign rand_sets[5]: 1531  LLC: 2048
rand_sets[5]: 1531
Assign rand_sets[6]: 482  LLC: 2048
rand_sets[6]: 482
Assign rand_sets[7]: 1275  LLC: 2048
rand_sets[7]: 1275
Assign rand_sets[8]: 1876  LLC: 2048
rand_sets[8]: 1876
Assign rand_sets[9]: 2038  LLC: 2048
rand_sets[9]: 2038
Assign rand_sets[10]: 701  LLC: 2048
rand_sets[10]: 701
Assign rand_sets[11]: 479  LLC: 2048
rand_sets[11]: 479
Assign rand_sets[12]: 892  LLC: 2048
rand_sets[12]: 892
Assign rand_sets[13]: 1820  LLC: 2048
rand_sets[13]: 1820
Assign rand_sets[14]: 1505  LLC: 2048
rand_sets[14]: 1505
Assign rand_sets[15]: 1159  LLC: 2048
rand_sets[15]: 1159
Assign rand_sets[16]: 513  LLC: 2048
rand_sets[16]: 513
Assign rand_sets[17]: 703  LLC: 2048
rand_sets[17]: 703
Assign rand_sets[18]: 561  LLC: 2048
rand_sets[18]: 561
Assign rand_sets[19]: 990  LLC: 2048
rand_sets[19]: 990
Assign rand_sets[20]: 342  LLC: 2048
rand_sets[20]: 342
Assign rand_sets[21]: 882  LLC: 2048
rand_sets[21]: 882
Assign rand_sets[22]: 15  LLC: 2048
rand_sets[22]: 15
Assign rand_sets[23]: 71  LLC: 2048
rand_sets[23]: 71
Assign rand_sets[24]: 1127  LLC: 2048
rand_sets[24]: 1127
Assign rand_sets[25]: 1382  LLC: 2048
rand_sets[25]: 1382
Assign rand_sets[26]: 647  LLC: 2048
rand_sets[26]: 647
Assign rand_sets[27]: 857  LLC: 2048
rand_sets[27]: 857
Assign rand_sets[28]: 1450  LLC: 2048
rand_sets[28]: 1450
Assign rand_sets[29]: 1160  LLC: 2048
rand_sets[29]: 1160
Assign rand_sets[30]: 1852  LLC: 2048
rand_sets[30]: 1852
Assign rand_sets[31]: 1881  LLC: 2048
rand_sets[31]: 1881
Assign rand_sets[32]: 1770  LLC: 2048
rand_sets[32]: 1770
Assign rand_sets[33]: 1622  LLC: 2048
rand_sets[33]: 1622
Assign rand_sets[34]: 275  LLC: 2048
rand_sets[34]: 275
Assign rand_sets[35]: 635  LLC: 2048
rand_sets[35]: 635
Assign rand_sets[36]: 466  LLC: 2048
rand_sets[36]: 466
Assign rand_sets[37]: 1413  LLC: 2048
rand_sets[37]: 1413
Assign rand_sets[38]: 417  LLC: 2048
rand_sets[38]: 417
Assign rand_sets[39]: 472  LLC: 2048
rand_sets[39]: 472
Assign rand_sets[40]: 1340  LLC: 2048
rand_sets[40]: 1340
Assign rand_sets[41]: 852  LLC: 2048
rand_sets[41]: 852
Assign rand_sets[42]: 1365  LLC: 2048
rand_sets[42]: 1365
Assign rand_sets[43]: 47  LLC: 2048
rand_sets[43]: 47
Assign rand_sets[44]: 823  LLC: 2048
rand_sets[44]: 823
Assign rand_sets[45]: 686  LLC: 2048
rand_sets[45]: 686
Assign rand_sets[46]: 1637  LLC: 2048
rand_sets[46]: 1637
Assign rand_sets[47]: 1115  LLC: 2048
rand_sets[47]: 1115
Assign rand_sets[48]: 986  LLC: 2048
rand_sets[48]: 986
Assign rand_sets[49]: 258  LLC: 2048
rand_sets[49]: 258
Assign rand_sets[50]: 633  LLC: 2048
rand_sets[50]: 633
Assign rand_sets[51]: 920  LLC: 2048
rand_sets[51]: 920
Assign rand_sets[52]: 204  LLC: 2048
rand_sets[52]: 204
Assign rand_sets[53]: 227  LLC: 2048
rand_sets[53]: 227
Assign rand_sets[54]: 1818  LLC: 2048
rand_sets[54]: 1818
Assign rand_sets[55]: 886  LLC: 2048
rand_sets[55]: 886
Assign rand_sets[56]: 1422  LLC: 2048
rand_sets[56]: 1422
Assign rand_sets[57]: 607  LLC: 2048
rand_sets[57]: 607
Assign rand_sets[58]: 217  LLC: 2048
rand_sets[58]: 217
Assign rand_sets[59]: 1945  LLC: 2048
rand_sets[59]: 1945
Assign rand_sets[60]: 143  LLC: 2048
rand_sets[60]: 143
Assign rand_sets[61]: 1311  LLC: 2048
rand_sets[61]: 1311
Assign rand_sets[62]: 319  LLC: 2048
rand_sets[62]: 319
Assign rand_sets[63]: 1846  LLC: 2048
rand_sets[63]: 1846
 CLEAN-RRIP-POLICY-1: 2-2-1-0-2-3-0-3- CLEAN-RRIP-POLICY-2: 2-2-1-0-2-3-0-3-
 DIRTY-RRIP-POLICY-1: 1-2-0-0-1-3-0-3- DIRTY-RRIP-POLICY-2: 1-2-0-0-1-3-0-3-
 PSEL width: 10
Heartbeat CPU 0 instructions: 10000000 cycles: 4124954 heartbeat IPC: 2.42427 cumulative IPC: 2.42427 (Simulation time: 0 hr 0 min 14 sec) 
Heartbeat CPU 0 instructions: 20000000 cycles: 8234469 heartbeat IPC: 2.43338 cumulative IPC: 2.42881 (Simulation time: 0 hr 0 min 27 sec) 
Heartbeat CPU 0 instructions: 30000003 cycles: 12465730 heartbeat IPC: 2.36336 cumulative IPC: 2.4066 (Simulation time: 0 hr 0 min 40 sec) 
Heartbeat CPU 0 instructions: 40000000 cycles: 16637876 heartbeat IPC: 2.39685 cumulative IPC: 2.40415 (Simulation time: 0 hr 0 min 54 sec) 
Heartbeat CPU 0 instructions: 50000000 cycles: 20700508 heartbeat IPC: 2.46146 cumulative IPC: 2.4154 (Simulation time: 0 hr 1 min 8 sec) 
Heartbeat CPU 0 instructions: 60000000 cycles: 25024309 heartbeat IPC: 2.31278 cumulative IPC: 2.39767 (Simulation time: 0 hr 1 min 21 sec) 
Heartbeat CPU 0 instructions: 70000000 cycles: 29372820 heartbeat IPC: 2.29964 cumulative IPC: 2.38316 (Simulation time: 0 hr 1 min 35 sec) 
Heartbeat CPU 0 instructions: 80000000 cycles: 33723121 heartbeat IPC: 2.29869 cumulative IPC: 2.37226 (Simulation time: 0 hr 1 min 48 sec) 
Heartbeat CPU 0 instructions: 90000002 cycles: 38034257 heartbeat IPC: 2.31957 cumulative IPC: 2.36629 (Simulation time: 0 hr 2 min 1 sec) 
Heartbeat CPU 0 instructions: 100000000 cycles: 42331347 heartbeat IPC: 2.32716 cumulative IPC: 2.36232 (Simulation time: 0 hr 2 min 15 sec) 

Warmup complete CPU 0 instructions: 100000001 cycles: 42331348 (Simulation time: 0 hr 2 min 15 sec) 

Heartbeat CPU 0 instructions: 110000001 cycles: 49452167 heartbeat IPC: 1.40433 cumulative IPC: 1.40433 (Simulation time: 0 hr 2 min 32 sec) 
Heartbeat CPU 0 instructions: 120000000 cycles: 59062375 heartbeat IPC: 1.04056 cumulative IPC: 1.19538 (Simulation time: 0 hr 2 min 51 sec) 
Heartbeat CPU 0 instructions: 130000000 cycles: 63900928 heartbeat IPC: 2.06673 cumulative IPC: 1.39085 (Simulation time: 0 hr 3 min 8 sec) 
Heartbeat CPU 0 instructions: 140000000 cycles: 68772810 heartbeat IPC: 2.05259 cumulative IPC: 1.51278 (Simulation time: 0 hr 3 min 25 sec) 
Heartbeat CPU 0 instructions: 150000002 cycles: 75645379 heartbeat IPC: 1.45506 cumulative IPC: 1.50087 (Simulation time: 0 hr 3 min 43 sec) 
Heartbeat CPU 0 instructions: 160000000 cycles: 83547336 heartbeat IPC: 1.26551 cumulative IPC: 1.45575 (Simulation time: 0 hr 4 min 1 sec) 
Heartbeat CPU 0 instructions: 170000000 cycles: 90989412 heartbeat IPC: 1.34371 cumulative IPC: 1.43861 (Simulation time: 0 hr 4 min 19 sec) 
Heartbeat CPU 0 instructions: 180000000 cycles: 98305260 heartbeat IPC: 1.3669 cumulative IPC: 1.42924 (Simulation time: 0 hr 4 min 36 sec) 
Heartbeat CPU 0 instructions: 190000002 cycles: 105516041 heartbeat IPC: 1.38681 cumulative IPC: 1.4244 (Simulation time: 0 hr 4 min 53 sec) 
Heartbeat CPU 0 instructions: 200000000 cycles: 112759444 heartbeat IPC: 1.38057 cumulative IPC: 1.41989 (Simulation time: 0 hr 5 min 11 sec) 
Heartbeat CPU 0 instructions: 210000000 cycles: 119630409 heartbeat IPC: 1.4554 cumulative IPC: 1.42304 (Simulation time: 0 hr 5 min 27 sec) 
Heartbeat CPU 0 instructions: 220000000 cycles: 126421692 heartbeat IPC: 1.47248 cumulative IPC: 1.42704 (Simulation time: 0 hr 5 min 44 sec) 
Heartbeat CPU 0 instructions: 230000003 cycles: 133159186 heartbeat IPC: 1.48423 cumulative IPC: 1.43128 (Simulation time: 0 hr 6 min 1 sec) 
Heartbeat CPU 0 instructions: 240000000 cycles: 139942221 heartbeat IPC: 1.47427 cumulative IPC: 1.43427 (Simulation time: 0 hr 6 min 18 sec) 
Heartbeat CPU 0 instructions: 250000001 cycles: 146653771 heartbeat IPC: 1.48997 cumulative IPC: 1.43785 (Simulation time: 0 hr 6 min 35 sec) 
Heartbeat CPU 0 instructions: 260000000 cycles: 153354173 heartbeat IPC: 1.49245 cumulative IPC: 1.44115 (Simulation time: 0 hr 6 min 51 sec) 
Heartbeat CPU 0 instructions: 270000001 cycles: 160328403 heartbeat IPC: 1.43385 cumulative IPC: 1.44071 (Simulation time: 0 hr 7 min 8 sec) 
Heartbeat CPU 0 instructions: 280000000 cycles: 167890734 heartbeat IPC: 1.32234 cumulative IPC: 1.43358 (Simulation time: 0 hr 7 min 26 sec) 
Heartbeat CPU 0 instructions: 290000000 cycles: 175849679 heartbeat IPC: 1.25645 cumulative IPC: 1.42303 (Simulation time: 0 hr 7 min 44 sec) 
Heartbeat CPU 0 instructions: 300000000 cycles: 184052053 heartbeat IPC: 1.21916 cumulative IPC: 1.41123 (Simulation time: 0 hr 8 min 2 sec) 
Heartbeat CPU 0 instructions: 310000002 cycles: 192392873 heartbeat IPC: 1.19892 cumulative IPC: 1.39943 (Simulation time: 0 hr 8 min 21 sec) 
Heartbeat CPU 0 instructions: 320000000 cycles: 202402075 heartbeat IPC: 0.99908 cumulative IPC: 1.37439 (Simulation time: 0 hr 8 min 41 sec) 
Heartbeat CPU 0 instructions: 330000002 cycles: 207065272 heartbeat IPC: 2.14445 cumulative IPC: 1.39619 (Simulation time: 0 hr 8 min 58 sec) 
Heartbeat CPU 0 instructions: 340000000 cycles: 212260164 heartbeat IPC: 1.92497 cumulative IPC: 1.41236 (Simulation time: 0 hr 9 min 15 sec) 
Heartbeat CPU 0 instructions: 350000000 cycles: 219548533 heartbeat IPC: 1.37205 cumulative IPC: 1.4107 (Simulation time: 0 hr 9 min 33 sec) 
Heartbeat CPU 0 instructions: 360000000 cycles: 227297635 heartbeat IPC: 1.29047 cumulative IPC: 1.40566 (Simulation time: 0 hr 9 min 51 sec) 
Heartbeat CPU 0 instructions: 370000000 cycles: 234734729 heartbeat IPC: 1.34461 cumulative IPC: 1.4033 (Simulation time: 0 hr 10 min 8 sec) 
Heartbeat CPU 0 instructions: 380000000 cycles: 242034404 heartbeat IPC: 1.36992 cumulative IPC: 1.40208 (Simulation time: 0 hr 10 min 26 sec) 
Heartbeat CPU 0 instructions: 390000000 cycles: 250188753 heartbeat IPC: 1.22634 cumulative IPC: 1.39519 (Simulation time: 0 hr 10 min 44 sec) 
Heartbeat CPU 0 instructions: 400000000 cycles: 258430278 heartbeat IPC: 1.21337 cumulative IPC: 1.38825 (Simulation time: 0 hr 11 min 2 sec) 
Heartbeat CPU 0 instructions: 410000001 cycles: 266322322 heartbeat IPC: 1.2671 cumulative IPC: 1.38398 (Simulation time: 0 hr 11 min 20 sec) 
Heartbeat CPU 0 instructions: 420000000 cycles: 274421327 heartbeat IPC: 1.23472 cumulative IPC: 1.37878 (Simulation time: 0 hr 11 min 38 sec) 
Heartbeat CPU 0 instructions: 430000001 cycles: 282730404 heartbeat IPC: 1.2035 cumulative IPC: 1.37272 (Simulation time: 0 hr 11 min 57 sec) 
Heartbeat CPU 0 instructions: 440000000 cycles: 290829675 heartbeat IPC: 1.23468 cumulative IPC: 1.36822 (Simulation time: 0 hr 12 min 15 sec) 
Heartbeat CPU 0 instructions: 450000001 cycles: 298740377 heartbeat IPC: 1.26411 cumulative IPC: 1.36501 (Simulation time: 0 hr 12 min 33 sec) 
Heartbeat CPU 0 instructions: 460000000 cycles: 308560270 heartbeat IPC: 1.01834 cumulative IPC: 1.35222 (Simulation time: 0 hr 12 min 53 sec) 
Heartbeat CPU 0 instructions: 470000002 cycles: 313213088 heartbeat IPC: 2.14924 cumulative IPC: 1.36591 (Simulation time: 0 hr 13 min 9 sec) 
Heartbeat CPU 0 instructions: 480000000 cycles: 318423082 heartbeat IPC: 1.91939 cumulative IPC: 1.37635 (Simulation time: 0 hr 13 min 26 sec) 
Heartbeat CPU 0 instructions: 490000001 cycles: 325758611 heartbeat IPC: 1.36323 cumulative IPC: 1.37601 (Simulation time: 0 hr 13 min 45 sec) 
Heartbeat CPU 0 instructions: 500000000 cycles: 334489869 heartbeat IPC: 1.14531 cumulative IPC: 1.36912 (Simulation time: 0 hr 14 min 5 sec) 
Heartbeat CPU 0 instructions: 510000002 cycles: 343223878 heartbeat IPC: 1.14495 cumulative IPC: 1.36261 (Simulation time: 0 hr 14 min 25 sec) 
Heartbeat CPU 0 instructions: 520000000 cycles: 351955801 heartbeat IPC: 1.14522 cumulative IPC: 1.35648 (Simulation time: 0 hr 14 min 45 sec) 
Heartbeat CPU 0 instructions: 530000000 cycles: 360669797 heartbeat IPC: 1.14758 cumulative IPC: 1.35076 (Simulation time: 0 hr 15 min 5 sec) 
Heartbeat CPU 0 instructions: 540000000 cycles: 368931683 heartbeat IPC: 1.21038 cumulative IPC: 1.34721 (Simulation time: 0 hr 15 min 24 sec) 
Heartbeat CPU 0 instructions: 550000000 cycles: 375998102 heartbeat IPC: 1.41514 cumulative IPC: 1.34865 (Simulation time: 0 hr 15 min 42 sec) 
Heartbeat CPU 0 instructions: 560000000 cycles: 382596453 heartbeat IPC: 1.51553 cumulative IPC: 1.35189 (Simulation time: 0 hr 15 min 59 sec) 
Heartbeat CPU 0 instructions: 570000002 cycles: 389141993 heartbeat IPC: 1.52776 cumulative IPC: 1.35521 (Simulation time: 0 hr 16 min 16 sec) 
Heartbeat CPU 0 instructions: 580000000 cycles: 395745376 heartbeat IPC: 1.51437 cumulative IPC: 1.35818 (Simulation time: 0 hr 16 min 33 sec) 
Heartbeat CPU 0 instructions: 590000002 cycles: 402382096 heartbeat IPC: 1.50677 cumulative IPC: 1.36092 (Simulation time: 0 hr 16 min 50 sec) 
Heartbeat CPU 0 instructions: 600000000 cycles: 409132147 heartbeat IPC: 1.48147 cumulative IPC: 1.36314 (Simulation time: 0 hr 17 min 7 sec) 
Finished CPU 0 instructions: 500000000 cycles: 366800807 cumulative IPC: 1.36314 (Simulation time: 0 hr 17 min 7 sec) 

CPU 0 Branch Prediction Accuracy: 93.4682% MPKI: 2.44079
Number of Branches: 18683822 Number of Mispredictions: 1220394
Number of LOAD Instructions: 142551610
Number of LOAD Instructions (ROI): 142551610
Number of STORE Instructions: 44807454
Number of STORE Instructions (ROI): 44807454
Total Destination Memory Operands: 48357071
Total Destination Memory Operands (ROI): 48357071
Total Source Memory Operands: 142551610
Total Source Memory Operands (ROI): 142551610
Number of DEPENDED LOADS: 7392517
Number of DEPENDED LOADS (ROI): 7392517
Number of SQ_ADDED: 48357051
Number of SQ_ADDED (ROI): 48357051
Number of LQ_ADDED: 157253914
Number of LQ_ADDED (ROI): 157253914
Number of Instructions read from trace: 600000256

ChampSim completed all CPUs

Region of Interest Statistics

CPU 0 cumulative IPC: 1.36314 instructions: 500000000 cycles: 366800807
ITLB TOTAL     ACCESS:   88190080  HIT:   88190011  MISS:         69
ITLB LOAD      ACCESS:   88190080  HIT:   88190011  MISS:         69
ITLB RFO       ACCESS:          0  HIT:          0  MISS:          0
ITLB PREFETCH  ACCESS:          0  HIT:          0  MISS:          0
ITLB WRITEBACK ACCESS:          0  HIT:          0  MISS:          0
ITLB PREFETCH  REQUESTED:          0  ISSUED:          0  USEFUL:          0  USELESS:          0
ITLB TOTAL MSHR MERGED:         84
ITLB LOAD MSHR MERGED:         84
ITLB RFO MSHR MERGED:          0
ITLB PREFETCH MSHR MERGED:          0
ITLB WRITEBACK MSHR MERGED:          0
ITLB TOTAL ACCESSES:   88190164 HITS:   88190011 MISSES:        153
ITLB LOAD ACCESSES:   88190164 HITS:   88190011 MISSES:        153
ITLB RFO ACCESSES:          0 HITS:          0 MISSES:          0
ITLB PREFETCH ACCESSES:          0 HITS:          0 MISSES:          0
ITLB WRITEBACK ACCESSES:          0 HITS:          0 MISSES:          0
ITLB RQ ACCESS:  500000000
ITLB RQ TO_CACHE:   88190164
ITLB RQ MERGED:  411809836
ITLB RQ FORWARD:          0
ITLB WQ ACCESS:          0
ITLB WQ TO_CACHE:          0
ITLB WQ MERGED:          0
ITLB WQ FORWARD:          0
DTLB TOTAL     ACCESS:   88204400  HIT:   88076982  MISS:     127418
DTLB LOAD      ACCESS:   59485297  HIT:   59392842  MISS:      92455
DTLB RFO       ACCESS:   28719103  HIT:   28684140  MISS:      34963
DTLB PREFETCH  ACCESS:          0  HIT:          0  MISS:          0
DTLB WRITEBACK ACCESS:          0  HIT:          0  MISS:          0
DTLB PREFETCH  REQUESTED:          0  ISSUED:          0  USEFUL:          0  USELESS:          0
DTLB TOTAL MSHR MERGED:     141177
DTLB LOAD MSHR MERGED:     107778
DTLB RFO MSHR MERGED:      33399
DTLB PREFETCH MSHR MERGED:          0
DTLB WRITEBACK MSHR MERGED:          0
DTLB TOTAL ACCESSES:   88345577 HITS:   88076982 MISSES:     268595
DTLB LOAD ACCESSES:   59593075 HITS:   59392842 MISSES:     200233
DTLB RFO ACCESSES:   28752502 HITS:   28684140 MISSES:      68362
DTLB PREFETCH ACCESSES:          0 HITS:          0 MISSES:          0
DTLB WRITEBACK ACCESSES:          0 HITS:          0 MISSES:          0
DTLB RQ ACCESS:  154561410
DTLB RQ TO_CACHE:   88345577
DTLB RQ MERGED:   66215833
DTLB RQ FORWARD:          0
DTLB WQ ACCESS:          0
DTLB WQ TO_CACHE:          0
DTLB WQ MERGED:          0
DTLB WQ FORWARD:          0
L1D TOTAL     ACCESS:  128138046  HIT:  124912669  MISS:    3225377
L1D LOAD      ACCESS:   53176454  HIT:   51981222  MISS:    1195232
L1D RFO       ACCESS:   37488609  HIT:   36874271  MISS:     614338
L1D PREFETCH  ACCESS:   37472983  HIT:   36057176  MISS:    1415807
L1D WRITEBACK ACCESS:          0  HIT:          0  MISS:          0
L1D PREFETCH  REQUESTED:   53660305  ISSUED:   52459889  USEFUL:     352132  USELESS:    1063640
L1D TOTAL MSHR MERGED:    2663410
L1D LOAD MSHR MERGED:     522673
L1D RFO MSHR MERGED:    1465901
L1D PREFETCH MSHR MERGED:     674836
L1D WRITEBACK MSHR MERGED:          0
L1D TOTAL ACCESSES:  130836202 HITS:  124947415 MISSES:    5888787
L1D LOAD ACCESSES:   53663078 HITS:   51983995 MISSES:    1679083
L1D RFO ACCESSES:   38952970 HITS:   36874271 MISSES:    2078699
L1D PREFETCH ACCESSES:   38220154 HITS:   36089149 MISSES:    2131005
L1D WRITEBACK ACCESSES:          0 HITS:          0 MISSES:          0
L1D RQ ACCESS:  113716518
L1D RQ TO_CACHE:   53660305
L1D RQ MERGED:   60053440
L1D RQ FORWARD:          0
L1D WQ ACCESS:   40844891
L1D WQ TO_CACHE:   38952970
L1D WQ MERGED:    1891921
L1D WQ FORWARD:      34746
L1I TOTAL     ACCESS:  108365897  HIT:  107806801  MISS:     559096
L1I LOAD      ACCESS:  108365897  HIT:  107806801  MISS:     559096
L1I RFO       ACCESS:          0  HIT:          0  MISS:          0
L1I PREFETCH  ACCESS:          0  HIT:          0  MISS:          0
L1I WRITEBACK ACCESS:          0  HIT:          0  MISS:          0
L1I PREFETCH  REQUESTED:          0  ISSUED:          0  USEFUL:          0  USELESS:          0
L1I TOTAL MSHR MERGED:     532767
L1I LOAD MSHR MERGED:     532767
L1I RFO MSHR MERGED:          0
L1I PREFETCH MSHR MERGED:          0
L1I WRITEBACK MSHR MERGED:          0
L1I TOTAL ACCESSES:  108898664 HITS:  107806801 MISSES:    1091863
L1I LOAD ACCESSES:  108898664 HITS:  107806801 MISSES:    1091863
L1I RFO ACCESSES:          0 HITS:          0 MISSES:          0
L1I PREFETCH ACCESSES:          0 HITS:          0 MISSES:          0
L1I WRITEBACK ACCESSES:          0 HITS:          0 MISSES:          0
L1I RQ ACCESS:  500000002
L1I RQ TO_CACHE:  108898664
L1I RQ MERGED:  391101338
L1I RQ FORWARD:          0
L1I WQ ACCESS:          0
L1I WQ TO_CACHE:          0
L1I WQ MERGED:          0
L1I WQ FORWARD:          0
L2C TOTAL     ACCESS:    4695261  HIT:    3869383  MISS:     825878
L2C LOAD      ACCESS:    1715394  HIT:    1564438  MISS:     150956
L2C RFO       ACCESS:     611362  HIT:     421210  MISS:     190152
L2C PREFETCH  ACCESS:    1665573  HIT:    1182995  MISS:     482578
L2C WRITEBACK ACCESS:     702932  HIT:     700740  MISS:       2192
L2C PREFETCH  REQUESTED:     256124  ISSUED:     256124  USEFUL:     174932  USELESS:     308312
L2C TOTAL MSHR MERGED:      10454
L2C LOAD MSHR MERGED:       2455
L2C RFO MSHR MERGED:          0
L2C PREFETCH MSHR MERGED:       7999
L2C WRITEBACK MSHR MERGED:          0
L2C TOTAL ACCESSES:    4711546 HITS:    3871008 MISSES:     840538
L2C LOAD ACCESSES:    1715506 HITS:    1564550 MISSES:     150956
L2C RFO ACCESSES:     612798 HITS:     422646 MISSES:     190152
L2C PREFETCH ACCESSES:    1680310 HITS:    1183072 MISSES:     497238
L2C WRITEBACK ACCESSES:     702932 HITS:     700740 MISSES:       2192
L2C RQ ACCESS:    2328304
L2C RQ TO_CACHE:    2326756
L2C RQ MERGED:          0
L2C RQ FORWARD:          0
L2C WQ ACCESS:     702932
L2C WQ TO_CACHE:     702932
L2C WQ MERGED:          0
L2C WQ FORWARD:       1625
LLC TOTAL     ACCESS:    1047033  HIT:     303013  MISS:     744020
LLC LOAD      ACCESS:     148497  HIT:      63605  MISS:      84892
LLC RFO       ACCESS:     190147  HIT:      11868  MISS:     178279
LLC PREFETCH  ACCESS:     487505  HIT:     161815  MISS:     325690
LLC WRITEBACK ACCESS:     220884  HIT:      65725  MISS:     155159
LLC PREFETCH  REQUESTED:          0  ISSUED:          0  USEFUL:      21006  USELESS:     302236
LLC TOTAL MSHR MERGED:       1086
LLC LOAD MSHR MERGED:        356
LLC RFO MSHR MERGED:          0
LLC PREFETCH MSHR MERGED:        730
LLC WRITEBACK MSHR MERGED:          0
LLC TOTAL ACCESSES:    1048128 HITS:     303022 MISSES:     745106
LLC LOAD ACCESSES:     148501 HITS:      63609 MISSES:      84892
LLC RFO ACCESSES:     190152 HITS:      11873 MISSES:     178279
LLC PREFETCH ACCESSES:     488591 HITS:     161815 MISSES:     326776
LLC WRITEBACK ACCESSES:     220884 HITS:      65725 MISSES:     155159
LLC 0 RQ ACCESS:     338653
LLC 0 RQ TO_CACHE:     338644
LLC 0 RQ MERGED:          0
LLC 0 RQ FORWARD:          0
LLC WQ ACCESS:     220884
LLC WQ TO_CACHE:     220884
LLC WQ MERGED:          0
LLC WQ FORWARD:          9
Major fault: 0 Minor fault: 6811
CPU 0 L1D next line prefetcher final stats
CPU 0 L2C PC-based stride prefetcher final stats
All Misses: 887855
All Hits: 366161
SD Algo Stats - Switches: 0 SRR-Repls: 110607 BRR-Repls: 0

DRAM Statistics
 CHANNEL 0
 RQ ROW_BUFFER_HIT:     299342  ROW_BUFFER_MISS:     289466
 DBUS_CONGESTED:     424719
 WQ ROW_BUFFER_HIT:      25652  ROW_BUFFER_MISS:     194341  FULL:          0

 AVG_CONGESTED_CYCLE: 13
LOADS RETIRED: 119922929
INSTR RETIRED: 500000000
