
*** ChampSim Multicore Out-of-Order Simulator ***

Warmup Instructions: 100000000
Simulation Instructions: 500000000
Number of CPUs: 1
LLC sets: 2048
LLC ways: 16
Clean RRIP Policies: 2210230322102303 Dirty RRIP Policies: 1200130312001303 PSEL Width: 10 Track Set: 4294967295 PSEL Mask: 1 Demote Mask: 1040100010401000DS Algo: 0Window size: 0
Off-chip DRAM Size: 4096 MB Channels: 1 Width: 64-bit Data Rate: 1600 MT/s

CPU 0 runs /mnt/beegfs/iconst01/spec2017/Xalancbmk.trace.gz
NOT SORTED
TRACE STRING: /mnt/beegfs/iconst01/spec2017/Xalancbmk.trace.gz
SORTED
TRACE STRING: /mnt/beegfs/iconst01/spec2017/Xalancbmk.trace.gz
INITIAL
TRACE STRING: /mnt/beegfs/iconst01/spec2017/Xalancbmk.trace.gz

champsim_seed used: 913

CPU 0 L1D next line prefetcher
CPU 0 L2C IP-based stride prefetcher
Initialize DRRIP state
Assign rand_sets[0]: 454  LLC: 2048
rand_sets[0]: 454
Assign rand_sets[1]: 1662  LLC: 2048
rand_sets[1]: 1662
Assign rand_sets[2]: 1921  LLC: 2048
rand_sets[2]: 1921
Assign rand_sets[3]: 1131  LLC: 2048
rand_sets[3]: 1131
Assign rand_sets[4]: 331  LLC: 2048
rand_sets[4]: 331
Assign rand_sets[5]: 1531  LLC: 2048
rand_sets[5]: 1531
Assign rand_sets[6]: 482  LLC: 2048
rand_sets[6]: 482
Assign rand_sets[7]: 1275  LLC: 2048
rand_sets[7]: 1275
Assign rand_sets[8]: 1876  LLC: 2048
rand_sets[8]: 1876
Assign rand_sets[9]: 2038  LLC: 2048
rand_sets[9]: 2038
Assign rand_sets[10]: 701  LLC: 2048
rand_sets[10]: 701
Assign rand_sets[11]: 479  LLC: 2048
rand_sets[11]: 479
Assign rand_sets[12]: 892  LLC: 2048
rand_sets[12]: 892
Assign rand_sets[13]: 1820  LLC: 2048
rand_sets[13]: 1820
Assign rand_sets[14]: 1505  LLC: 2048
rand_sets[14]: 1505
Assign rand_sets[15]: 1159  LLC: 2048
rand_sets[15]: 1159
Assign rand_sets[16]: 513  LLC: 2048
rand_sets[16]: 513
Assign rand_sets[17]: 703  LLC: 2048
rand_sets[17]: 703
Assign rand_sets[18]: 561  LLC: 2048
rand_sets[18]: 561
Assign rand_sets[19]: 990  LLC: 2048
rand_sets[19]: 990
Assign rand_sets[20]: 342  LLC: 2048
rand_sets[20]: 342
Assign rand_sets[21]: 882  LLC: 2048
rand_sets[21]: 882
Assign rand_sets[22]: 15  LLC: 2048
rand_sets[22]: 15
Assign rand_sets[23]: 71  LLC: 2048
rand_sets[23]: 71
Assign rand_sets[24]: 1127  LLC: 2048
rand_sets[24]: 1127
Assign rand_sets[25]: 1382  LLC: 2048
rand_sets[25]: 1382
Assign rand_sets[26]: 647  LLC: 2048
rand_sets[26]: 647
Assign rand_sets[27]: 857  LLC: 2048
rand_sets[27]: 857
Assign rand_sets[28]: 1450  LLC: 2048
rand_sets[28]: 1450
Assign rand_sets[29]: 1160  LLC: 2048
rand_sets[29]: 1160
Assign rand_sets[30]: 1852  LLC: 2048
rand_sets[30]: 1852
Assign rand_sets[31]: 1881  LLC: 2048
rand_sets[31]: 1881
Assign rand_sets[32]: 1770  LLC: 2048
rand_sets[32]: 1770
Assign rand_sets[33]: 1622  LLC: 2048
rand_sets[33]: 1622
Assign rand_sets[34]: 275  LLC: 2048
rand_sets[34]: 275
Assign rand_sets[35]: 635  LLC: 2048
rand_sets[35]: 635
Assign rand_sets[36]: 466  LLC: 2048
rand_sets[36]: 466
Assign rand_sets[37]: 1413  LLC: 2048
rand_sets[37]: 1413
Assign rand_sets[38]: 417  LLC: 2048
rand_sets[38]: 417
Assign rand_sets[39]: 472  LLC: 2048
rand_sets[39]: 472
Assign rand_sets[40]: 1340  LLC: 2048
rand_sets[40]: 1340
Assign rand_sets[41]: 852  LLC: 2048
rand_sets[41]: 852
Assign rand_sets[42]: 1365  LLC: 2048
rand_sets[42]: 1365
Assign rand_sets[43]: 47  LLC: 2048
rand_sets[43]: 47
Assign rand_sets[44]: 823  LLC: 2048
rand_sets[44]: 823
Assign rand_sets[45]: 686  LLC: 2048
rand_sets[45]: 686
Assign rand_sets[46]: 1637  LLC: 2048
rand_sets[46]: 1637
Assign rand_sets[47]: 1115  LLC: 2048
rand_sets[47]: 1115
Assign rand_sets[48]: 986  LLC: 2048
rand_sets[48]: 986
Assign rand_sets[49]: 258  LLC: 2048
rand_sets[49]: 258
Assign rand_sets[50]: 633  LLC: 2048
rand_sets[50]: 633
Assign rand_sets[51]: 920  LLC: 2048
rand_sets[51]: 920
Assign rand_sets[52]: 204  LLC: 2048
rand_sets[52]: 204
Assign rand_sets[53]: 227  LLC: 2048
rand_sets[53]: 227
Assign rand_sets[54]: 1818  LLC: 2048
rand_sets[54]: 1818
Assign rand_sets[55]: 886  LLC: 2048
rand_sets[55]: 886
Assign rand_sets[56]: 1422  LLC: 2048
rand_sets[56]: 1422
Assign rand_sets[57]: 607  LLC: 2048
rand_sets[57]: 607
Assign rand_sets[58]: 217  LLC: 2048
rand_sets[58]: 217
Assign rand_sets[59]: 1945  LLC: 2048
rand_sets[59]: 1945
Assign rand_sets[60]: 143  LLC: 2048
rand_sets[60]: 143
Assign rand_sets[61]: 1311  LLC: 2048
rand_sets[61]: 1311
Assign rand_sets[62]: 319  LLC: 2048
rand_sets[62]: 319
Assign rand_sets[63]: 1846  LLC: 2048
rand_sets[63]: 1846
 CLEAN-RRIP-POLICY-1: 2-2-1-0-2-3-0-3- CLEAN-RRIP-POLICY-2: 2-2-1-0-2-3-0-3-
 DIRTY-RRIP-POLICY-1: 1-2-0-0-1-3-0-3- DIRTY-RRIP-POLICY-2: 1-2-0-0-1-3-0-3-
 PSEL width: 10
Heartbeat CPU 0 instructions: 10000003 cycles: 4615187 heartbeat IPC: 2.16676 cumulative IPC: 2.16676 (Simulation time: 0 hr 0 min 16 sec) 
Heartbeat CPU 0 instructions: 20000000 cycles: 9068133 heartbeat IPC: 2.2457 cumulative IPC: 2.20553 (Simulation time: 0 hr 0 min 30 sec) 
Heartbeat CPU 0 instructions: 30000000 cycles: 13530591 heartbeat IPC: 2.24092 cumulative IPC: 2.2172 (Simulation time: 0 hr 0 min 45 sec) 
Heartbeat CPU 0 instructions: 40000000 cycles: 18187635 heartbeat IPC: 2.14728 cumulative IPC: 2.1993 (Simulation time: 0 hr 1 min 1 sec) 
Heartbeat CPU 0 instructions: 50000002 cycles: 22654632 heartbeat IPC: 2.23864 cumulative IPC: 2.20705 (Simulation time: 0 hr 1 min 15 sec) 
Heartbeat CPU 0 instructions: 60000000 cycles: 27347868 heartbeat IPC: 2.13073 cumulative IPC: 2.19396 (Simulation time: 0 hr 1 min 32 sec) 
Heartbeat CPU 0 instructions: 70000003 cycles: 31800506 heartbeat IPC: 2.24586 cumulative IPC: 2.20122 (Simulation time: 0 hr 1 min 46 sec) 
Heartbeat CPU 0 instructions: 80000000 cycles: 36275495 heartbeat IPC: 2.23464 cumulative IPC: 2.20535 (Simulation time: 0 hr 2 min 1 sec) 
Heartbeat CPU 0 instructions: 90000002 cycles: 40781873 heartbeat IPC: 2.21908 cumulative IPC: 2.20686 (Simulation time: 0 hr 2 min 16 sec) 
Heartbeat CPU 0 instructions: 100000000 cycles: 45302577 heartbeat IPC: 2.21204 cumulative IPC: 2.20738 (Simulation time: 0 hr 2 min 30 sec) 

Warmup complete CPU 0 instructions: 100000003 cycles: 45302578 (Simulation time: 0 hr 2 min 30 sec) 

Heartbeat CPU 0 instructions: 110000000 cycles: 74710641 heartbeat IPC: 0.340043 cumulative IPC: 0.340043 (Simulation time: 0 hr 3 min 4 sec) 
Heartbeat CPU 0 instructions: 120000000 cycles: 108598612 heartbeat IPC: 0.29509 cumulative IPC: 0.315976 (Simulation time: 0 hr 3 min 40 sec) 
Heartbeat CPU 0 instructions: 130000000 cycles: 134220146 heartbeat IPC: 0.390297 cumulative IPC: 0.337391 (Simulation time: 0 hr 4 min 11 sec) 
Heartbeat CPU 0 instructions: 140000000 cycles: 158549852 heartbeat IPC: 0.41102 cumulative IPC: 0.353209 (Simulation time: 0 hr 4 min 41 sec) 
Heartbeat CPU 0 instructions: 150000000 cycles: 184819865 heartbeat IPC: 0.380662 cumulative IPC: 0.358378 (Simulation time: 0 hr 5 min 12 sec) 
Heartbeat CPU 0 instructions: 160000000 cycles: 211826333 heartbeat IPC: 0.370282 cumulative IPC: 0.360309 (Simulation time: 0 hr 5 min 44 sec) 
Heartbeat CPU 0 instructions: 170000002 cycles: 235273780 heartbeat IPC: 0.426486 cumulative IPC: 0.368477 (Simulation time: 0 hr 6 min 13 sec) 
Heartbeat CPU 0 instructions: 180000000 cycles: 259380904 heartbeat IPC: 0.414815 cumulative IPC: 0.373695 (Simulation time: 0 hr 6 min 43 sec) 
Heartbeat CPU 0 instructions: 190000000 cycles: 280507031 heartbeat IPC: 0.473348 cumulative IPC: 0.382646 (Simulation time: 0 hr 7 min 11 sec) 
Heartbeat CPU 0 instructions: 200000000 cycles: 303213751 heartbeat IPC: 0.440398 cumulative IPC: 0.38773 (Simulation time: 0 hr 7 min 40 sec) 
Heartbeat CPU 0 instructions: 210000001 cycles: 331674687 heartbeat IPC: 0.351359 cumulative IPC: 0.384116 (Simulation time: 0 hr 8 min 13 sec) 
Heartbeat CPU 0 instructions: 220000000 cycles: 359817236 heartbeat IPC: 0.355334 cumulative IPC: 0.38154 (Simulation time: 0 hr 8 min 45 sec) 
Heartbeat CPU 0 instructions: 230000000 cycles: 384340522 heartbeat IPC: 0.407776 cumulative IPC: 0.383438 (Simulation time: 0 hr 9 min 15 sec) 
Heartbeat CPU 0 instructions: 240000000 cycles: 412202811 heartbeat IPC: 0.358908 cumulative IPC: 0.381575 (Simulation time: 0 hr 9 min 48 sec) 
Heartbeat CPU 0 instructions: 250000001 cycles: 439846053 heartbeat IPC: 0.361752 cumulative IPC: 0.380186 (Simulation time: 0 hr 10 min 20 sec) 
Heartbeat CPU 0 instructions: 260000000 cycles: 462327357 heartbeat IPC: 0.444814 cumulative IPC: 0.38367 (Simulation time: 0 hr 10 min 49 sec) 
Heartbeat CPU 0 instructions: 270000000 cycles: 485617581 heartbeat IPC: 0.429365 cumulative IPC: 0.386087 (Simulation time: 0 hr 11 min 18 sec) 
Heartbeat CPU 0 instructions: 280000000 cycles: 516800661 heartbeat IPC: 0.320687 cumulative IPC: 0.381762 (Simulation time: 0 hr 11 min 53 sec) 
Heartbeat CPU 0 instructions: 290000000 cycles: 539459788 heartbeat IPC: 0.441323 cumulative IPC: 0.384493 (Simulation time: 0 hr 12 min 21 sec) 
Heartbeat CPU 0 instructions: 300000000 cycles: 561679581 heartbeat IPC: 0.450049 cumulative IPC: 0.387314 (Simulation time: 0 hr 12 min 49 sec) 
Heartbeat CPU 0 instructions: 310000000 cycles: 582939183 heartbeat IPC: 0.470376 cumulative IPC: 0.390598 (Simulation time: 0 hr 13 min 16 sec) 
Heartbeat CPU 0 instructions: 320000000 cycles: 616022266 heartbeat IPC: 0.302269 cumulative IPC: 0.385478 (Simulation time: 0 hr 13 min 52 sec) 
Heartbeat CPU 0 instructions: 330000001 cycles: 637147151 heartbeat IPC: 0.473375 cumulative IPC: 0.388616 (Simulation time: 0 hr 14 min 19 sec) 
Heartbeat CPU 0 instructions: 340000000 cycles: 658586576 heartbeat IPC: 0.46643 cumulative IPC: 0.391336 (Simulation time: 0 hr 14 min 46 sec) 
Heartbeat CPU 0 instructions: 350000000 cycles: 686362886 heartbeat IPC: 0.360019 cumulative IPC: 0.389979 (Simulation time: 0 hr 15 min 18 sec) 
Heartbeat CPU 0 instructions: 360000000 cycles: 710180157 heartbeat IPC: 0.419863 cumulative IPC: 0.391049 (Simulation time: 0 hr 15 min 47 sec) 
Heartbeat CPU 0 instructions: 370000001 cycles: 737334842 heartbeat IPC: 0.368261 cumulative IPC: 0.390155 (Simulation time: 0 hr 16 min 18 sec) 
Heartbeat CPU 0 instructions: 380000000 cycles: 762544269 heartbeat IPC: 0.396677 cumulative IPC: 0.390384 (Simulation time: 0 hr 16 min 47 sec) 
Heartbeat CPU 0 instructions: 390000000 cycles: 782964053 heartbeat IPC: 0.489721 cumulative IPC: 0.393134 (Simulation time: 0 hr 17 min 14 sec) 
Heartbeat CPU 0 instructions: 400000000 cycles: 804952865 heartbeat IPC: 0.454777 cumulative IPC: 0.394919 (Simulation time: 0 hr 17 min 41 sec) 
Heartbeat CPU 0 instructions: 410000001 cycles: 833485155 heartbeat IPC: 0.35048 cumulative IPC: 0.39331 (Simulation time: 0 hr 18 min 13 sec) 
Heartbeat CPU 0 instructions: 420000000 cycles: 859791856 heartbeat IPC: 0.380131 cumulative IPC: 0.392884 (Simulation time: 0 hr 18 min 43 sec) 
Heartbeat CPU 0 instructions: 430000002 cycles: 882511587 heartbeat IPC: 0.440146 cumulative IPC: 0.394167 (Simulation time: 0 hr 19 min 11 sec) 
Heartbeat CPU 0 instructions: 440000000 cycles: 904454282 heartbeat IPC: 0.455732 cumulative IPC: 0.395739 (Simulation time: 0 hr 19 min 38 sec) 
Heartbeat CPU 0 instructions: 450000002 cycles: 933705806 heartbeat IPC: 0.341863 cumulative IPC: 0.393965 (Simulation time: 0 hr 20 min 10 sec) 
Heartbeat CPU 0 instructions: 460000000 cycles: 962956811 heartbeat IPC: 0.341869 cumulative IPC: 0.392305 (Simulation time: 0 hr 20 min 42 sec) 
Heartbeat CPU 0 instructions: 470000002 cycles: 991296879 heartbeat IPC: 0.352857 cumulative IPC: 0.391123 (Simulation time: 0 hr 21 min 14 sec) 
Heartbeat CPU 0 instructions: 480000000 cycles: 1017210220 heartbeat IPC: 0.385902 cumulative IPC: 0.390984 (Simulation time: 0 hr 21 min 43 sec) 
Heartbeat CPU 0 instructions: 490000000 cycles: 1039807129 heartbeat IPC: 0.442538 cumulative IPC: 0.392155 (Simulation time: 0 hr 22 min 11 sec) 
Heartbeat CPU 0 instructions: 500000000 cycles: 1066981209 heartbeat IPC: 0.367998 cumulative IPC: 0.391513 (Simulation time: 0 hr 22 min 42 sec) 
Heartbeat CPU 0 instructions: 510000000 cycles: 1094069604 heartbeat IPC: 0.369162 cumulative IPC: 0.390935 (Simulation time: 0 hr 23 min 12 sec) 
Heartbeat CPU 0 instructions: 520000000 cycles: 1116958709 heartbeat IPC: 0.436889 cumulative IPC: 0.391917 (Simulation time: 0 hr 23 min 40 sec) 
Heartbeat CPU 0 instructions: 530000003 cycles: 1144507453 heartbeat IPC: 0.362993 cumulative IPC: 0.391192 (Simulation time: 0 hr 24 min 11 sec) 
Heartbeat CPU 0 instructions: 540000000 cycles: 1169290595 heartbeat IPC: 0.4035 cumulative IPC: 0.391463 (Simulation time: 0 hr 24 min 40 sec) 
Heartbeat CPU 0 instructions: 550000000 cycles: 1196826927 heartbeat IPC: 0.363157 cumulative IPC: 0.390786 (Simulation time: 0 hr 25 min 11 sec) 
Heartbeat CPU 0 instructions: 560000000 cycles: 1221395242 heartbeat IPC: 0.407028 cumulative IPC: 0.391126 (Simulation time: 0 hr 25 min 40 sec) 
Heartbeat CPU 0 instructions: 570000002 cycles: 1246953268 heartbeat IPC: 0.391267 cumulative IPC: 0.391129 (Simulation time: 0 hr 26 min 10 sec) 
Heartbeat CPU 0 instructions: 580000000 cycles: 1269398902 heartbeat IPC: 0.445521 cumulative IPC: 0.392126 (Simulation time: 0 hr 26 min 37 sec) 
Heartbeat CPU 0 instructions: 590000001 cycles: 1295065506 heartbeat IPC: 0.389611 cumulative IPC: 0.392074 (Simulation time: 0 hr 27 min 7 sec) 
Heartbeat CPU 0 instructions: 600000000 cycles: 1315857633 heartbeat IPC: 0.480951 cumulative IPC: 0.393529 (Simulation time: 0 hr 27 min 33 sec) 
Finished CPU 0 instructions: 500000000 cycles: 1270555076 cumulative IPC: 0.393529 (Simulation time: 0 hr 27 min 33 sec) 

CPU 0 Branch Prediction Accuracy: 99.5434% MPKI: 1.33026
Number of Branches: 145676990 Number of Mispredictions: 665128
Number of LOAD Instructions: 188863207
Number of LOAD Instructions (ROI): 188863207
Number of STORE Instructions: 7332002
Number of STORE Instructions (ROI): 7332002
Total Destination Memory Operands: 10029285
Total Destination Memory Operands (ROI): 10029285
Total Source Memory Operands: 188863207
Total Source Memory Operands (ROI): 188863207
Number of DEPENDED LOADS: 297928
Number of DEPENDED LOADS (ROI): 297928
Number of SQ_ADDED: 10029285
Number of SQ_ADDED (ROI): 10029285
Number of LQ_ADDED: 201167711
Number of LQ_ADDED (ROI): 201167711
Number of Instructions read from trace: 600000010

ChampSim completed all CPUs

Region of Interest Statistics

CPU 0 cumulative IPC: 0.393529 instructions: 500000000 cycles: 1270555076
ITLB TOTAL     ACCESS:  146234916  HIT:  146195324  MISS:      39592
ITLB LOAD      ACCESS:  146234916  HIT:  146195324  MISS:      39592
ITLB RFO       ACCESS:          0  HIT:          0  MISS:          0
ITLB PREFETCH  ACCESS:          0  HIT:          0  MISS:          0
ITLB WRITEBACK ACCESS:          0  HIT:          0  MISS:          0
ITLB PREFETCH  REQUESTED:          0  ISSUED:          0  USEFUL:          0  USELESS:          0
ITLB TOTAL MSHR MERGED:      57477
ITLB LOAD MSHR MERGED:      57477
ITLB RFO MSHR MERGED:          0
ITLB PREFETCH MSHR MERGED:          0
ITLB WRITEBACK MSHR MERGED:          0
ITLB TOTAL ACCESSES:  146292393 HITS:  146195324 MISSES:      97069
ITLB LOAD ACCESSES:  146292393 HITS:  146195324 MISSES:      97069
ITLB RFO ACCESSES:          0 HITS:          0 MISSES:          0
ITLB PREFETCH ACCESSES:          0 HITS:          0 MISSES:          0
ITLB WRITEBACK ACCESSES:          0 HITS:          0 MISSES:          0
ITLB RQ ACCESS:  499999754
ITLB RQ TO_CACHE:  146292393
ITLB RQ MERGED:  353707361
ITLB RQ FORWARD:          0
ITLB WQ ACCESS:          0
ITLB WQ TO_CACHE:          0
ITLB WQ MERGED:          0
ITLB WQ FORWARD:          0
DTLB TOTAL     ACCESS:  135390412  HIT:  134222073  MISS:    1168339
DTLB LOAD      ACCESS:  127347110  HIT:  126187857  MISS:    1159253
DTLB RFO       ACCESS:    8043302  HIT:    8034216  MISS:       9086
DTLB PREFETCH  ACCESS:          0  HIT:          0  MISS:          0
DTLB WRITEBACK ACCESS:          0  HIT:          0  MISS:          0
DTLB PREFETCH  REQUESTED:          0  ISSUED:          0  USEFUL:          0  USELESS:          0
DTLB TOTAL MSHR MERGED:     560976
DTLB LOAD MSHR MERGED:     556752
DTLB RFO MSHR MERGED:       4224
DTLB PREFETCH MSHR MERGED:          0
DTLB WRITEBACK MSHR MERGED:          0
DTLB TOTAL ACCESSES:  135951388 HITS:  134222073 MISSES:    1729315
DTLB LOAD ACCESSES:  127903862 HITS:  126187857 MISSES:    1716005
DTLB RFO ACCESSES:    8047526 HITS:    8034216 MISSES:      13310
DTLB PREFETCH ACCESSES:          0 HITS:          0 MISSES:          0
DTLB WRITEBACK ACCESSES:          0 HITS:          0 MISSES:          0
DTLB RQ ACCESS:  165756486
DTLB RQ TO_CACHE:  135951388
DTLB RQ MERGED:   29805098
DTLB RQ FORWARD:          0
DTLB WQ ACCESS:          0
DTLB WQ TO_CACHE:          0
DTLB WQ MERGED:          0
DTLB WQ FORWARD:          0
L1D TOTAL     ACCESS:  159468999  HIT:  142153256  MISS:   17315743
L1D LOAD      ACCESS:   90503294  HIT:   79968085  MISS:   10535209
L1D RFO       ACCESS:    8499986  HIT:    8412958  MISS:      87028
L1D PREFETCH  ACCESS:   60465719  HIT:   53772213  MISS:    6693506
L1D WRITEBACK ACCESS:          0  HIT:          0  MISS:          0
L1D PREFETCH  REQUESTED:   93954577  ISSUED:   93085921  USEFUL:    2612042  USELESS:    4081538
L1D TOTAL MSHR MERGED:   13066387
L1D LOAD MSHR MERGED:    6289052
L1D RFO MSHR MERGED:     124641
L1D PREFETCH MSHR MERGED:    6652694
L1D WRITEBACK MSHR MERGED:          0
L1D TOTAL ACCESSES:  172535580 HITS:  142153449 MISSES:   30382131
L1D LOAD ACCESSES:   93954580 HITS:   79968088 MISSES:   13986492
L1D RFO ACCESSES:    8622921 HITS:    8412958 MISSES:     209963
L1D PREFETCH ACCESSES:   69958079 HITS:   53772403 MISSES:   16185676
L1D WRITEBACK ACCESSES:          0 HITS:          0 MISSES:          0
L1D RQ ACCESS:  157117280
L1D RQ TO_CACHE:   93954577
L1D RQ MERGED:   63162700
L1D RQ FORWARD:          0
L1D WQ ACCESS:    8639208
L1D WQ TO_CACHE:    8622921
L1D WQ MERGED:      16287
L1D WQ FORWARD:        193
L1I TOTAL     ACCESS:  179102170  HIT:  178438730  MISS:     663440
L1I LOAD      ACCESS:  179102170  HIT:  178438730  MISS:     663440
L1I RFO       ACCESS:          0  HIT:          0  MISS:          0
L1I PREFETCH  ACCESS:          0  HIT:          0  MISS:          0
L1I WRITEBACK ACCESS:          0  HIT:          0  MISS:          0
L1I PREFETCH  REQUESTED:          0  ISSUED:          0  USEFUL:          0  USELESS:          0
L1I TOTAL MSHR MERGED:     629750
L1I LOAD MSHR MERGED:     629750
L1I RFO MSHR MERGED:          0
L1I PREFETCH MSHR MERGED:          0
L1I WRITEBACK MSHR MERGED:          0
L1I TOTAL ACCESSES:  179731920 HITS:  178438730 MISSES:    1293190
L1I LOAD ACCESSES:  179731920 HITS:  178438730 MISSES:    1293190
L1I RFO ACCESSES:          0 HITS:          0 MISSES:          0
L1I PREFETCH ACCESSES:          0 HITS:          0 MISSES:          0
L1I WRITEBACK ACCESSES:          0 HITS:          0 MISSES:          0
L1I RQ ACCESS:  499999757
L1I RQ TO_CACHE:  179731920
L1I RQ MERGED:  320267837
L1I RQ FORWARD:          0
L1I WQ ACCESS:          0
L1I WQ TO_CACHE:          0
L1I WQ MERGED:          0
L1I WQ FORWARD:          0
L2C TOTAL     ACCESS:   19264601  HIT:    2048750  MISS:   17215851
L2C LOAD      ACCESS:    8360781  HIT:     947977  MISS:    7412804
L2C RFO       ACCESS:      85299  HIT:      53738  MISS:      31561
L2C PREFETCH  ACCESS:   10533551  HIT:     764876  MISS:    9768675
L2C WRITEBACK ACCESS:     284970  HIT:     282159  MISS:       2811
L2C PREFETCH  REQUESTED:    1002606  ISSUED:    1002606  USEFUL:     271956  USELESS:    9495807
L2C TOTAL MSHR MERGED:        459
L2C LOAD MSHR MERGED:         71
L2C RFO MSHR MERGED:          1
L2C PREFETCH MSHR MERGED:        387
L2C WRITEBACK MSHR MERGED:          0
L2C TOTAL ACCESSES:   19265489 HITS:    2048935 MISSES:   17216554
L2C LOAD ACCESSES:    8360880 HITS:     948076 MISSES:    7412804
L2C RFO ACCESSES:      85322 HITS:      53761 MISSES:      31561
L2C PREFETCH ACCESSES:   10534317 HITS:     764939 MISSES:    9769378
L2C WRITEBACK ACCESSES:     284970 HITS:     282159 MISSES:       2811
L2C RQ ACCESS:    8446202
L2C RQ TO_CACHE:    8446080
L2C RQ MERGED:          0
L2C RQ FORWARD:          0
L2C WQ ACCESS:     284970
L2C WQ TO_CACHE:     284970
L2C WQ MERGED:          0
L2C WQ FORWARD:        185
LLC TOTAL     ACCESS:   17319334  HIT:    4114365  MISS:   13204969
LLC LOAD      ACCESS:    7412733  HIT:     579845  MISS:    6832888
LLC RFO       ACCESS:      31560  HIT:      12898  MISS:      18662
LLC PREFETCH  ACCESS:    9768979  HIT:    3447569  MISS:    6321410
LLC WRITEBACK ACCESS:     106062  HIT:      74053  MISS:      32009
LLC PREFETCH  REQUESTED:          0  ISSUED:          0  USEFUL:     217617  USELESS:    6102234
LLC TOTAL MSHR MERGED:          8
LLC LOAD MSHR MERGED:          0
LLC RFO MSHR MERGED:          0
LLC PREFETCH MSHR MERGED:          8
LLC WRITEBACK MSHR MERGED:          0
LLC TOTAL ACCESSES:   17319343 HITS:    4114365 MISSES:   13204978
LLC LOAD ACCESSES:    7412733 HITS:     579845 MISSES:    6832888
LLC RFO ACCESSES:      31560 HITS:      12898 MISSES:      18662
LLC PREFETCH ACCESSES:    9768988 HITS:    3447569 MISSES:    6321419
LLC WRITEBACK ACCESSES:     106062 HITS:      74053 MISSES:      32009
LLC 0 RQ ACCESS:    7444293
LLC 0 RQ TO_CACHE:    7444293
LLC 0 RQ MERGED:          0
LLC 0 RQ FORWARD:          0
LLC WQ ACCESS:     106062
LLC WQ TO_CACHE:     106062
LLC WQ MERGED:          0
LLC WQ FORWARD:          0
Major fault: 0 Minor fault: 6432
CPU 0 L1D next line prefetcher final stats
CPU 0 L2C PC-based stride prefetcher final stats
All Misses: 15711554
All Hits: 4825833
SD Algo Stats - Switches: 0 SRR-Repls: 7618588 BRR-Repls: 0

DRAM Statistics
 CHANNEL 0
 RQ ROW_BUFFER_HIT:    9994584  ROW_BUFFER_MISS:    3171668
 DBUS_CONGESTED:    6655571
 WQ ROW_BUFFER_HIT:       2147  ROW_BUFFER_MISS:      56739  FULL:          0

 AVG_CONGESTED_CYCLE: 13
LOADS RETIRED: 157382665
INSTR RETIRED: 500000000
