
*** ChampSim Multicore Out-of-Order Simulator ***

Warmup Instructions: 100000000
Simulation Instructions: 500000000
Number of CPUs: 1
LLC sets: 2048
LLC ways: 16
Clean RRIP Policies: 1001131210011312 Dirty RRIP Policies: 1131200011312 PSEL Width: 10 Track Set: 4294967295 PSEL Mask: 1 Demote Mask: 1344141313441413DS Algo: 0Window size: 0
Off-chip DRAM Size: 4096 MB Channels: 1 Width: 64-bit Data Rate: 1600 MT/s

CPU 0 runs /mnt/beegfs/iconst01/spec2017/Gcc.trace.gz
NOT SORTED
TRACE STRING: /mnt/beegfs/iconst01/spec2017/Gcc.trace.gz
SORTED
TRACE STRING: /mnt/beegfs/iconst01/spec2017/Gcc.trace.gz
INITIAL
TRACE STRING: /mnt/beegfs/iconst01/spec2017/Gcc.trace.gz

champsim_seed used: 269

CPU 0 L1D next line prefetcher
CPU 0 L2C IP-based stride prefetcher
Initialize DRRIP state
Assign rand_sets[0]: 454  LLC: 2048
rand_sets[0]: 454
Assign rand_sets[1]: 1662  LLC: 2048
rand_sets[1]: 1662
Assign rand_sets[2]: 1921  LLC: 2048
rand_sets[2]: 1921
Assign rand_sets[3]: 1131  LLC: 2048
rand_sets[3]: 1131
Assign rand_sets[4]: 331  LLC: 2048
rand_sets[4]: 331
Assign rand_sets[5]: 1531  LLC: 2048
rand_sets[5]: 1531
Assign rand_sets[6]: 482  LLC: 2048
rand_sets[6]: 482
Assign rand_sets[7]: 1275  LLC: 2048
rand_sets[7]: 1275
Assign rand_sets[8]: 1876  LLC: 2048
rand_sets[8]: 1876
Assign rand_sets[9]: 2038  LLC: 2048
rand_sets[9]: 2038
Assign rand_sets[10]: 701  LLC: 2048
rand_sets[10]: 701
Assign rand_sets[11]: 479  LLC: 2048
rand_sets[11]: 479
Assign rand_sets[12]: 892  LLC: 2048
rand_sets[12]: 892
Assign rand_sets[13]: 1820  LLC: 2048
rand_sets[13]: 1820
Assign rand_sets[14]: 1505  LLC: 2048
rand_sets[14]: 1505
Assign rand_sets[15]: 1159  LLC: 2048
rand_sets[15]: 1159
Assign rand_sets[16]: 513  LLC: 2048
rand_sets[16]: 513
Assign rand_sets[17]: 703  LLC: 2048
rand_sets[17]: 703
Assign rand_sets[18]: 561  LLC: 2048
rand_sets[18]: 561
Assign rand_sets[19]: 990  LLC: 2048
rand_sets[19]: 990
Assign rand_sets[20]: 342  LLC: 2048
rand_sets[20]: 342
Assign rand_sets[21]: 882  LLC: 2048
rand_sets[21]: 882
Assign rand_sets[22]: 15  LLC: 2048
rand_sets[22]: 15
Assign rand_sets[23]: 71  LLC: 2048
rand_sets[23]: 71
Assign rand_sets[24]: 1127  LLC: 2048
rand_sets[24]: 1127
Assign rand_sets[25]: 1382  LLC: 2048
rand_sets[25]: 1382
Assign rand_sets[26]: 647  LLC: 2048
rand_sets[26]: 647
Assign rand_sets[27]: 857  LLC: 2048
rand_sets[27]: 857
Assign rand_sets[28]: 1450  LLC: 2048
rand_sets[28]: 1450
Assign rand_sets[29]: 1160  LLC: 2048
rand_sets[29]: 1160
Assign rand_sets[30]: 1852  LLC: 2048
rand_sets[30]: 1852
Assign rand_sets[31]: 1881  LLC: 2048
rand_sets[31]: 1881
Assign rand_sets[32]: 1770  LLC: 2048
rand_sets[32]: 1770
Assign rand_sets[33]: 1622  LLC: 2048
rand_sets[33]: 1622
Assign rand_sets[34]: 275  LLC: 2048
rand_sets[34]: 275
Assign rand_sets[35]: 635  LLC: 2048
rand_sets[35]: 635
Assign rand_sets[36]: 466  LLC: 2048
rand_sets[36]: 466
Assign rand_sets[37]: 1413  LLC: 2048
rand_sets[37]: 1413
Assign rand_sets[38]: 417  LLC: 2048
rand_sets[38]: 417
Assign rand_sets[39]: 472  LLC: 2048
rand_sets[39]: 472
Assign rand_sets[40]: 1340  LLC: 2048
rand_sets[40]: 1340
Assign rand_sets[41]: 852  LLC: 2048
rand_sets[41]: 852
Assign rand_sets[42]: 1365  LLC: 2048
rand_sets[42]: 1365
Assign rand_sets[43]: 47  LLC: 2048
rand_sets[43]: 47
Assign rand_sets[44]: 823  LLC: 2048
rand_sets[44]: 823
Assign rand_sets[45]: 686  LLC: 2048
rand_sets[45]: 686
Assign rand_sets[46]: 1637  LLC: 2048
rand_sets[46]: 1637
Assign rand_sets[47]: 1115  LLC: 2048
rand_sets[47]: 1115
Assign rand_sets[48]: 986  LLC: 2048
rand_sets[48]: 986
Assign rand_sets[49]: 258  LLC: 2048
rand_sets[49]: 258
Assign rand_sets[50]: 633  LLC: 2048
rand_sets[50]: 633
Assign rand_sets[51]: 920  LLC: 2048
rand_sets[51]: 920
Assign rand_sets[52]: 204  LLC: 2048
rand_sets[52]: 204
Assign rand_sets[53]: 227  LLC: 2048
rand_sets[53]: 227
Assign rand_sets[54]: 1818  LLC: 2048
rand_sets[54]: 1818
Assign rand_sets[55]: 886  LLC: 2048
rand_sets[55]: 886
Assign rand_sets[56]: 1422  LLC: 2048
rand_sets[56]: 1422
Assign rand_sets[57]: 607  LLC: 2048
rand_sets[57]: 607
Assign rand_sets[58]: 217  LLC: 2048
rand_sets[58]: 217
Assign rand_sets[59]: 1945  LLC: 2048
rand_sets[59]: 1945
Assign rand_sets[60]: 143  LLC: 2048
rand_sets[60]: 143
Assign rand_sets[61]: 1311  LLC: 2048
rand_sets[61]: 1311
Assign rand_sets[62]: 319  LLC: 2048
rand_sets[62]: 319
Assign rand_sets[63]: 1846  LLC: 2048
rand_sets[63]: 1846
 CLEAN-RRIP-POLICY-1: 1-0-0-1-1-3-1-2- CLEAN-RRIP-POLICY-2: 1-0-0-1-1-3-1-2-
 DIRTY-RRIP-POLICY-1: 0-0-0-1-1-3-1-2- DIRTY-RRIP-POLICY-2: 0-0-0-1-1-3-1-2-
 PSEL width: 10
Heartbeat CPU 0 instructions: 10000001 cycles: 7315919 heartbeat IPC: 1.36688 cumulative IPC: 1.36688 (Simulation time: 0 hr 0 min 15 sec) 
Heartbeat CPU 0 instructions: 20000000 cycles: 14309133 heartbeat IPC: 1.42996 cumulative IPC: 1.39771 (Simulation time: 0 hr 0 min 29 sec) 
Heartbeat CPU 0 instructions: 30000001 cycles: 21023629 heartbeat IPC: 1.48932 cumulative IPC: 1.42697 (Simulation time: 0 hr 0 min 45 sec) 
Heartbeat CPU 0 instructions: 40000000 cycles: 27484818 heartbeat IPC: 1.5477 cumulative IPC: 1.45535 (Simulation time: 0 hr 1 min 1 sec) 
Heartbeat CPU 0 instructions: 50000001 cycles: 33586606 heartbeat IPC: 1.63886 cumulative IPC: 1.48869 (Simulation time: 0 hr 1 min 17 sec) 
Heartbeat CPU 0 instructions: 60000000 cycles: 40067916 heartbeat IPC: 1.5429 cumulative IPC: 1.49746 (Simulation time: 0 hr 1 min 33 sec) 
Heartbeat CPU 0 instructions: 70000000 cycles: 47110000 heartbeat IPC: 1.42003 cumulative IPC: 1.48588 (Simulation time: 0 hr 1 min 47 sec) 
Heartbeat CPU 0 instructions: 80000000 cycles: 54204282 heartbeat IPC: 1.40959 cumulative IPC: 1.4759 (Simulation time: 0 hr 2 min 2 sec) 
Heartbeat CPU 0 instructions: 90000003 cycles: 61212921 heartbeat IPC: 1.42681 cumulative IPC: 1.47028 (Simulation time: 0 hr 2 min 17 sec) 
Heartbeat CPU 0 instructions: 100000000 cycles: 68384819 heartbeat IPC: 1.39433 cumulative IPC: 1.46231 (Simulation time: 0 hr 2 min 31 sec) 

Warmup complete CPU 0 instructions: 100000004 cycles: 68384820 (Simulation time: 0 hr 2 min 31 sec) 

Heartbeat CPU 0 instructions: 110000003 cycles: 96864004 heartbeat IPC: 0.351134 cumulative IPC: 0.351134 (Simulation time: 0 hr 3 min 0 sec) 
Heartbeat CPU 0 instructions: 120000000 cycles: 124610181 heartbeat IPC: 0.36041 cumulative IPC: 0.355711 (Simulation time: 0 hr 3 min 29 sec) 
Heartbeat CPU 0 instructions: 130000000 cycles: 149705756 heartbeat IPC: 0.398477 cumulative IPC: 0.368909 (Simulation time: 0 hr 3 min 57 sec) 
Heartbeat CPU 0 instructions: 140000000 cycles: 180596141 heartbeat IPC: 0.323725 cumulative IPC: 0.35647 (Simulation time: 0 hr 4 min 26 sec) 
Heartbeat CPU 0 instructions: 150000000 cycles: 211510019 heartbeat IPC: 0.323479 cumulative IPC: 0.349344 (Simulation time: 0 hr 4 min 54 sec) 
Heartbeat CPU 0 instructions: 160000000 cycles: 239237608 heartbeat IPC: 0.360652 cumulative IPC: 0.35118 (Simulation time: 0 hr 5 min 22 sec) 
Heartbeat CPU 0 instructions: 170000001 cycles: 267594835 heartbeat IPC: 0.352644 cumulative IPC: 0.351388 (Simulation time: 0 hr 5 min 52 sec) 
Heartbeat CPU 0 instructions: 180000000 cycles: 296663196 heartbeat IPC: 0.344017 cumulative IPC: 0.350449 (Simulation time: 0 hr 6 min 21 sec) 
Heartbeat CPU 0 instructions: 190000002 cycles: 325148365 heartbeat IPC: 0.35106 cumulative IPC: 0.350517 (Simulation time: 0 hr 6 min 49 sec) 
Heartbeat CPU 0 instructions: 200000000 cycles: 354178971 heartbeat IPC: 0.344464 cumulative IPC: 0.349902 (Simulation time: 0 hr 7 min 19 sec) 
Heartbeat CPU 0 instructions: 210000002 cycles: 382424711 heartbeat IPC: 0.354036 cumulative IPC: 0.350274 (Simulation time: 0 hr 7 min 47 sec) 
Heartbeat CPU 0 instructions: 220000000 cycles: 412888212 heartbeat IPC: 0.328262 cumulative IPC: 0.348327 (Simulation time: 0 hr 8 min 15 sec) 
Heartbeat CPU 0 instructions: 230000000 cycles: 441057678 heartbeat IPC: 0.354994 cumulative IPC: 0.348831 (Simulation time: 0 hr 8 min 43 sec) 
Heartbeat CPU 0 instructions: 240000000 cycles: 467554626 heartbeat IPC: 0.377402 cumulative IPC: 0.350728 (Simulation time: 0 hr 9 min 10 sec) 
Heartbeat CPU 0 instructions: 250000000 cycles: 498181699 heartbeat IPC: 0.326509 cumulative IPC: 0.349002 (Simulation time: 0 hr 9 min 40 sec) 
Heartbeat CPU 0 instructions: 260000000 cycles: 525450276 heartbeat IPC: 0.366722 cumulative IPC: 0.350059 (Simulation time: 0 hr 10 min 8 sec) 
Heartbeat CPU 0 instructions: 270000003 cycles: 554197287 heartbeat IPC: 0.347862 cumulative IPC: 0.349929 (Simulation time: 0 hr 10 min 38 sec) 
Heartbeat CPU 0 instructions: 280000000 cycles: 583023474 heartbeat IPC: 0.346907 cumulative IPC: 0.34976 (Simulation time: 0 hr 11 min 7 sec) 
Heartbeat CPU 0 instructions: 290000000 cycles: 612237174 heartbeat IPC: 0.342305 cumulative IPC: 0.34936 (Simulation time: 0 hr 11 min 37 sec) 
Heartbeat CPU 0 instructions: 300000000 cycles: 643336291 heartbeat IPC: 0.321553 cumulative IPC: 0.347855 (Simulation time: 0 hr 12 min 6 sec) 
Heartbeat CPU 0 instructions: 310000001 cycles: 673719124 heartbeat IPC: 0.329133 cumulative IPC: 0.346916 (Simulation time: 0 hr 12 min 34 sec) 
Heartbeat CPU 0 instructions: 320000000 cycles: 702845455 heartbeat IPC: 0.343332 cumulative IPC: 0.346751 (Simulation time: 0 hr 13 min 2 sec) 
Heartbeat CPU 0 instructions: 330000000 cycles: 732093957 heartbeat IPC: 0.341898 cumulative IPC: 0.346537 (Simulation time: 0 hr 13 min 31 sec) 
Heartbeat CPU 0 instructions: 340000000 cycles: 762344262 heartbeat IPC: 0.330575 cumulative IPC: 0.345842 (Simulation time: 0 hr 14 min 0 sec) 
Heartbeat CPU 0 instructions: 350000003 cycles: 789741112 heartbeat IPC: 0.365006 cumulative IPC: 0.346569 (Simulation time: 0 hr 14 min 27 sec) 
Heartbeat CPU 0 instructions: 360000000 cycles: 819674072 heartbeat IPC: 0.33408 cumulative IPC: 0.346072 (Simulation time: 0 hr 14 min 55 sec) 
Heartbeat CPU 0 instructions: 370000000 cycles: 849390388 heartbeat IPC: 0.336515 cumulative IPC: 0.345708 (Simulation time: 0 hr 15 min 23 sec) 
Heartbeat CPU 0 instructions: 380000000 cycles: 879322144 heartbeat IPC: 0.334093 cumulative IPC: 0.345279 (Simulation time: 0 hr 15 min 50 sec) 
Heartbeat CPU 0 instructions: 390000001 cycles: 908104779 heartbeat IPC: 0.347432 cumulative IPC: 0.345353 (Simulation time: 0 hr 16 min 18 sec) 
Heartbeat CPU 0 instructions: 400000000 cycles: 937923740 heartbeat IPC: 0.335357 cumulative IPC: 0.34501 (Simulation time: 0 hr 16 min 45 sec) 
Heartbeat CPU 0 instructions: 410000001 cycles: 966164263 heartbeat IPC: 0.354101 cumulative IPC: 0.345296 (Simulation time: 0 hr 17 min 13 sec) 
Heartbeat CPU 0 instructions: 420000000 cycles: 994268478 heartbeat IPC: 0.355818 cumulative IPC: 0.345616 (Simulation time: 0 hr 17 min 40 sec) 
Heartbeat CPU 0 instructions: 430000002 cycles: 1022848630 heartbeat IPC: 0.349893 cumulative IPC: 0.345744 (Simulation time: 0 hr 18 min 7 sec) 
Heartbeat CPU 0 instructions: 440000000 cycles: 1053497372 heartbeat IPC: 0.326278 cumulative IPC: 0.345138 (Simulation time: 0 hr 18 min 35 sec) 
Heartbeat CPU 0 instructions: 450000002 cycles: 1083928422 heartbeat IPC: 0.328612 cumulative IPC: 0.344643 (Simulation time: 0 hr 19 min 3 sec) 
Heartbeat CPU 0 instructions: 460000000 cycles: 1112482478 heartbeat IPC: 0.350213 cumulative IPC: 0.344795 (Simulation time: 0 hr 19 min 30 sec) 
Heartbeat CPU 0 instructions: 470000000 cycles: 1140749944 heartbeat IPC: 0.353764 cumulative IPC: 0.345032 (Simulation time: 0 hr 19 min 58 sec) 
Heartbeat CPU 0 instructions: 480000000 cycles: 1169214592 heartbeat IPC: 0.351313 cumulative IPC: 0.345194 (Simulation time: 0 hr 20 min 25 sec) 
Heartbeat CPU 0 instructions: 490000000 cycles: 1197352498 heartbeat IPC: 0.355392 cumulative IPC: 0.345448 (Simulation time: 0 hr 20 min 52 sec) 
Heartbeat CPU 0 instructions: 500000000 cycles: 1226178156 heartbeat IPC: 0.346913 cumulative IPC: 0.345485 (Simulation time: 0 hr 21 min 19 sec) 
Heartbeat CPU 0 instructions: 510000000 cycles: 1261711923 heartbeat IPC: 0.281422 cumulative IPC: 0.343577 (Simulation time: 0 hr 21 min 50 sec) 
Heartbeat CPU 0 instructions: 520000000 cycles: 1290008130 heartbeat IPC: 0.353404 cumulative IPC: 0.343805 (Simulation time: 0 hr 22 min 18 sec) 
Heartbeat CPU 0 instructions: 530000001 cycles: 1320876829 heartbeat IPC: 0.323953 cumulative IPC: 0.343316 (Simulation time: 0 hr 22 min 47 sec) 
Heartbeat CPU 0 instructions: 540000000 cycles: 1350034804 heartbeat IPC: 0.342959 cumulative IPC: 0.343307 (Simulation time: 0 hr 23 min 15 sec) 
Heartbeat CPU 0 instructions: 550000001 cycles: 1379779946 heartbeat IPC: 0.336189 cumulative IPC: 0.343146 (Simulation time: 0 hr 23 min 45 sec) 
Heartbeat CPU 0 instructions: 560000000 cycles: 1405503370 heartbeat IPC: 0.388751 cumulative IPC: 0.344023 (Simulation time: 0 hr 24 min 13 sec) 
Heartbeat CPU 0 instructions: 570000000 cycles: 1436237418 heartbeat IPC: 0.325372 cumulative IPC: 0.343604 (Simulation time: 0 hr 24 min 42 sec) 
Heartbeat CPU 0 instructions: 580000000 cycles: 1465014494 heartbeat IPC: 0.347499 cumulative IPC: 0.343685 (Simulation time: 0 hr 25 min 10 sec) 
Heartbeat CPU 0 instructions: 590000001 cycles: 1490132718 heartbeat IPC: 0.398117 cumulative IPC: 0.344646 (Simulation time: 0 hr 25 min 37 sec) 
Heartbeat CPU 0 instructions: 600000000 cycles: 1516999849 heartbeat IPC: 0.372202 cumulative IPC: 0.345157 (Simulation time: 0 hr 26 min 5 sec) 
Finished CPU 0 instructions: 500000000 cycles: 1448615051 cumulative IPC: 0.345157 (Simulation time: 0 hr 26 min 5 sec) 

CPU 0 Branch Prediction Accuracy: 86.4311% MPKI: 26.2662
Number of Branches: 96788573 Number of Mispredictions: 13133102
Number of LOAD Instructions: 164682285
Number of LOAD Instructions (ROI): 164682285
Number of STORE Instructions: 78194750
Number of STORE Instructions (ROI): 78194750
Total Destination Memory Operands: 83268534
Total Destination Memory Operands (ROI): 83268534
Total Source Memory Operands: 164712438
Total Source Memory Operands (ROI): 164712438
Number of DEPENDED LOADS: 7053587
Number of DEPENDED LOADS (ROI): 7053587
Number of SQ_ADDED: 83268522
Number of SQ_ADDED (ROI): 83268522
Number of LQ_ADDED: 236504973
Number of LQ_ADDED (ROI): 236504973
Number of Instructions read from trace: 600000066

ChampSim completed all CPUs

Region of Interest Statistics

CPU 0 cumulative IPC: 0.345157 instructions: 500000000 cycles: 1448615051
ITLB TOTAL     ACCESS:  100521736  HIT:  100317290  MISS:     204446
ITLB LOAD      ACCESS:  100521736  HIT:  100317290  MISS:     204446
ITLB RFO       ACCESS:          0  HIT:          0  MISS:          0
ITLB PREFETCH  ACCESS:          0  HIT:          0  MISS:          0
ITLB WRITEBACK ACCESS:          0  HIT:          0  MISS:          0
ITLB PREFETCH  REQUESTED:          0  ISSUED:          0  USEFUL:          0  USELESS:          0
ITLB TOTAL MSHR MERGED:     172424
ITLB LOAD MSHR MERGED:     172424
ITLB RFO MSHR MERGED:          0
ITLB PREFETCH MSHR MERGED:          0
ITLB WRITEBACK MSHR MERGED:          0
ITLB TOTAL ACCESSES:  100694160 HITS:  100317290 MISSES:     376870
ITLB LOAD ACCESSES:  100694160 HITS:  100317290 MISSES:     376870
ITLB RFO ACCESSES:          0 HITS:          0 MISSES:          0
ITLB PREFETCH ACCESSES:          0 HITS:          0 MISSES:          0
ITLB WRITEBACK ACCESSES:          0 HITS:          0 MISSES:          0
ITLB RQ ACCESS:  500000057
ITLB RQ TO_CACHE:  100694160
ITLB RQ MERGED:  399305897
ITLB RQ FORWARD:          0
ITLB WQ ACCESS:          0
ITLB WQ TO_CACHE:          0
ITLB WQ MERGED:          0
ITLB WQ FORWARD:          0
DTLB TOTAL     ACCESS:  165350838  HIT:  164716489  MISS:     634349
DTLB LOAD      ACCESS:  106301421  HIT:  105731469  MISS:     569952
DTLB RFO       ACCESS:   59049417  HIT:   58985020  MISS:      64397
DTLB PREFETCH  ACCESS:          0  HIT:          0  MISS:          0
DTLB WRITEBACK ACCESS:          0  HIT:          0  MISS:          0
DTLB PREFETCH  REQUESTED:          0  ISSUED:          0  USEFUL:          0  USELESS:          0
DTLB TOTAL MSHR MERGED:      99656
DTLB LOAD MSHR MERGED:      59211
DTLB RFO MSHR MERGED:      40445
DTLB PREFETCH MSHR MERGED:          0
DTLB WRITEBACK MSHR MERGED:          0
DTLB TOTAL ACCESSES:  165450494 HITS:  164716489 MISSES:     734005
DTLB LOAD ACCESSES:  106360632 HITS:  105731469 MISSES:     629163
DTLB RFO ACCESSES:   59089862 HITS:   58985020 MISSES:     104842
DTLB PREFETCH ACCESSES:          0 HITS:          0 MISSES:          0
DTLB WRITEBACK ACCESSES:          0 HITS:          0 MISSES:          0
DTLB RQ ACCESS:  200317282
DTLB RQ TO_CACHE:  165450494
DTLB RQ MERGED:   34866788
DTLB RQ FORWARD:          0
DTLB WQ ACCESS:          0
DTLB WQ TO_CACHE:          0
DTLB WQ MERGED:          0
DTLB WQ FORWARD:          0
L1D TOTAL     ACCESS:  281918046  HIT:  274008590  MISS:    7909456
L1D LOAD      ACCESS:  110443167  HIT:  107169410  MISS:    3273757
L1D RFO       ACCESS:   67134015  HIT:   66244011  MISS:     890004
L1D PREFETCH  ACCESS:  104340864  HIT:  100595169  MISS:    3745695
L1D WRITEBACK ACCESS:          0  HIT:          0  MISS:          0
L1D PREFETCH  REQUESTED:  110829760  ISSUED:  109130252  USEFUL:    1666249  USELESS:    2079410
L1D TOTAL MSHR MERGED:    2815745
L1D LOAD MSHR MERGED:     480137
L1D RFO MSHR MERGED:    1851588
L1D PREFETCH MSHR MERGED:     484020
L1D WRITEBACK MSHR MERGED:          0
L1D TOTAL ACCESSES:  284761234 HITS:  274036033 MISSES:   10725201
L1D LOAD ACCESSES:  110831200 HITS:  107170850 MISSES:    3660350
L1D RFO ACCESSES:   68974352 HITS:   66244011 MISSES:    2730341
L1D PREFETCH ACCESSES:  104955682 HITS:  100621172 MISSES:    4334510
L1D WRITEBACK ACCESSES:          0 HITS:          0 MISSES:          0
L1D RQ ACCESS:  130764679
L1D RQ TO_CACHE:  110829763
L1D RQ MERGED:   19933476
L1D RQ FORWARD:          0
L1D WQ ACCESS:   69552603
L1D WQ TO_CACHE:   68974353
L1D WQ MERGED:     578250
L1D WQ FORWARD:      27443
L1I TOTAL     ACCESS:  126567312  HIT:  122328771  MISS:    4238541
L1I LOAD      ACCESS:  126567312  HIT:  122328771  MISS:    4238541
L1I RFO       ACCESS:          0  HIT:          0  MISS:          0
L1I PREFETCH  ACCESS:          0  HIT:          0  MISS:          0
L1I WRITEBACK ACCESS:          0  HIT:          0  MISS:          0
L1I PREFETCH  REQUESTED:          0  ISSUED:          0  USEFUL:          0  USELESS:          0
L1I TOTAL MSHR MERGED:    1836619
L1I LOAD MSHR MERGED:    1836619
L1I RFO MSHR MERGED:          0
L1I PREFETCH MSHR MERGED:          0
L1I WRITEBACK MSHR MERGED:          0
L1I TOTAL ACCESSES:  128403934 HITS:  122328771 MISSES:    6075163
L1I LOAD ACCESSES:  128403934 HITS:  122328771 MISSES:    6075163
L1I RFO ACCESSES:          0 HITS:          0 MISSES:          0
L1I PREFETCH ACCESSES:          0 HITS:          0 MISSES:          0
L1I WRITEBACK ACCESSES:          0 HITS:          0 MISSES:          0
L1I RQ ACCESS:  500000057
L1I RQ TO_CACHE:  128403934
L1I RQ MERGED:  371596123
L1I RQ FORWARD:          0
L1I WQ ACCESS:          0
L1I WQ TO_CACHE:          0
L1I WQ MERGED:          0
L1I WQ FORWARD:          0
L2C TOTAL     ACCESS:   14906162  HIT:   11159678  MISS:    3746484
L2C LOAD      ACCESS:    7418551  HIT:    5098897  MISS:    2319654
L2C RFO       ACCESS:     878656  HIT:     409924  MISS:     468732
L2C PREFETCH  ACCESS:    4569701  HIT:    3628863  MISS:     940838
L2C WRITEBACK ACCESS:    2039254  HIT:    2021994  MISS:      17260
L2C PREFETCH  REQUESTED:     842725  ISSUED:     842725  USEFUL:     203592  USELESS:     736952
L2C TOTAL MSHR MERGED:       6215
L2C LOAD MSHR MERGED:        612
L2C RFO MSHR MERGED:          0
L2C PREFETCH MSHR MERGED:       5603
L2C WRITEBACK MSHR MERGED:          0
L2C TOTAL ACCESSES:   14913261 HITS:   11160120 MISSES:    3753141
L2C LOAD ACCESSES:    7418754 HITS:    5099100 MISSES:    2319654
L2C RFO ACCESSES:     878753 HITS:     410021 MISSES:     468732
L2C PREFETCH ACCESSES:    4576500 HITS:    3629005 MISSES:     947495
L2C WRITEBACK ACCESSES:    2039254 HITS:    2021994 MISSES:      17260
L2C RQ ACCESS:    8297510
L2C RQ TO_CACHE:    8297210
L2C RQ MERGED:          0
L2C RQ FORWARD:          0
L2C WQ ACCESS:    2039254
L2C WQ TO_CACHE:    2039254
L2C WQ MERGED:          0
L2C WQ FORWARD:        442
LLC TOTAL     ACCESS:    4609825  HIT:    3704748  MISS:     905077
LLC LOAD      ACCESS:    2319028  HIT:    1733759  MISS:     585269
LLC RFO       ACCESS:     468723  HIT:     424596  MISS:      44127
LLC PREFETCH  ACCESS:     941782  HIT:     716066  MISS:     225716
LLC WRITEBACK ACCESS:     880292  HIT:     830327  MISS:      49965
LLC PREFETCH  REQUESTED:          0  ISSUED:          0  USEFUL:      26504  USELESS:     198309
LLC TOTAL MSHR MERGED:         96
LLC LOAD MSHR MERGED:         33
LLC RFO MSHR MERGED:          0
LLC PREFETCH MSHR MERGED:         63
LLC WRITEBACK MSHR MERGED:          0
LLC TOTAL ACCESSES:    4609952 HITS:    3704779 MISSES:     905173
LLC LOAD ACCESSES:    2319042 HITS:    1733773 MISSES:     585269
LLC RFO ACCESSES:     468732 HITS:     424605 MISSES:      44127
LLC PREFETCH ACCESSES:     941886 HITS:     716074 MISSES:     225812
LLC WRITEBACK ACCESSES:     880292 HITS:     830327 MISSES:      49965
LLC 0 RQ ACCESS:    2787774
LLC 0 RQ TO_CACHE:    2787751
LLC 0 RQ MERGED:          0
LLC 0 RQ FORWARD:          0
LLC WQ ACCESS:     880292
LLC WQ TO_CACHE:     880292
LLC WQ MERGED:          0
LLC WQ FORWARD:         31
Major fault: 0 Minor fault: 12862
CPU 0 L1D next line prefetcher final stats
CPU 0 L2C PC-based stride prefetcher final stats
All Misses: 1054369
All Hits: 4372461
SD Algo Stats - Switches: 9 SRR-Repls: 403849 BRR-Repls: 258366

DRAM Statistics
 CHANNEL 0
 RQ ROW_BUFFER_HIT:     191167  ROW_BUFFER_MISS:     663204
 DBUS_CONGESTED:     347418
 WQ ROW_BUFFER_HIT:       7913  ROW_BUFFER_MISS:     151723  FULL:          0

 AVG_CONGESTED_CYCLE: 13
LOADS RETIRED: 136549171
INSTR RETIRED: 500000000
