
*** ChampSim Multicore Out-of-Order Simulator ***

Warmup Instructions: 100000000
Simulation Instructions: 500000000
Number of CPUs: 1
LLC sets: 2048
LLC ways: 16
Clean RRIP Policies: 1213130112131301 Dirty RRIP Policies: 2213130122131301 PSEL Width: 10 Track Set: 4294967295 PSEL Mask: 1 Demote Mask: 1040201010402010DS Algo: 0Window size: 0
Off-chip DRAM Size: 4096 MB Channels: 1 Width: 64-bit Data Rate: 1600 MT/s

CPU 0 runs /mnt/beegfs/iconst01/spec2017/Roms.trace.gz
NOT SORTED
TRACE STRING: /mnt/beegfs/iconst01/spec2017/Roms.trace.gz
SORTED
TRACE STRING: /mnt/beegfs/iconst01/spec2017/Roms.trace.gz
INITIAL
TRACE STRING: /mnt/beegfs/iconst01/spec2017/Roms.trace.gz

champsim_seed used: 417

CPU 0 L1D next line prefetcher
CPU 0 L2C IP-based stride prefetcher
Initialize DRRIP state
Assign rand_sets[0]: 454  LLC: 2048
rand_sets[0]: 454
Assign rand_sets[1]: 1662  LLC: 2048
rand_sets[1]: 1662
Assign rand_sets[2]: 1921  LLC: 2048
rand_sets[2]: 1921
Assign rand_sets[3]: 1131  LLC: 2048
rand_sets[3]: 1131
Assign rand_sets[4]: 331  LLC: 2048
rand_sets[4]: 331
Assign rand_sets[5]: 1531  LLC: 2048
rand_sets[5]: 1531
Assign rand_sets[6]: 482  LLC: 2048
rand_sets[6]: 482
Assign rand_sets[7]: 1275  LLC: 2048
rand_sets[7]: 1275
Assign rand_sets[8]: 1876  LLC: 2048
rand_sets[8]: 1876
Assign rand_sets[9]: 2038  LLC: 2048
rand_sets[9]: 2038
Assign rand_sets[10]: 701  LLC: 2048
rand_sets[10]: 701
Assign rand_sets[11]: 479  LLC: 2048
rand_sets[11]: 479
Assign rand_sets[12]: 892  LLC: 2048
rand_sets[12]: 892
Assign rand_sets[13]: 1820  LLC: 2048
rand_sets[13]: 1820
Assign rand_sets[14]: 1505  LLC: 2048
rand_sets[14]: 1505
Assign rand_sets[15]: 1159  LLC: 2048
rand_sets[15]: 1159
Assign rand_sets[16]: 513  LLC: 2048
rand_sets[16]: 513
Assign rand_sets[17]: 703  LLC: 2048
rand_sets[17]: 703
Assign rand_sets[18]: 561  LLC: 2048
rand_sets[18]: 561
Assign rand_sets[19]: 990  LLC: 2048
rand_sets[19]: 990
Assign rand_sets[20]: 342  LLC: 2048
rand_sets[20]: 342
Assign rand_sets[21]: 882  LLC: 2048
rand_sets[21]: 882
Assign rand_sets[22]: 15  LLC: 2048
rand_sets[22]: 15
Assign rand_sets[23]: 71  LLC: 2048
rand_sets[23]: 71
Assign rand_sets[24]: 1127  LLC: 2048
rand_sets[24]: 1127
Assign rand_sets[25]: 1382  LLC: 2048
rand_sets[25]: 1382
Assign rand_sets[26]: 647  LLC: 2048
rand_sets[26]: 647
Assign rand_sets[27]: 857  LLC: 2048
rand_sets[27]: 857
Assign rand_sets[28]: 1450  LLC: 2048
rand_sets[28]: 1450
Assign rand_sets[29]: 1160  LLC: 2048
rand_sets[29]: 1160
Assign rand_sets[30]: 1852  LLC: 2048
rand_sets[30]: 1852
Assign rand_sets[31]: 1881  LLC: 2048
rand_sets[31]: 1881
Assign rand_sets[32]: 1770  LLC: 2048
rand_sets[32]: 1770
Assign rand_sets[33]: 1622  LLC: 2048
rand_sets[33]: 1622
Assign rand_sets[34]: 275  LLC: 2048
rand_sets[34]: 275
Assign rand_sets[35]: 635  LLC: 2048
rand_sets[35]: 635
Assign rand_sets[36]: 466  LLC: 2048
rand_sets[36]: 466
Assign rand_sets[37]: 1413  LLC: 2048
rand_sets[37]: 1413
Assign rand_sets[38]: 417  LLC: 2048
rand_sets[38]: 417
Assign rand_sets[39]: 472  LLC: 2048
rand_sets[39]: 472
Assign rand_sets[40]: 1340  LLC: 2048
rand_sets[40]: 1340
Assign rand_sets[41]: 852  LLC: 2048
rand_sets[41]: 852
Assign rand_sets[42]: 1365  LLC: 2048
rand_sets[42]: 1365
Assign rand_sets[43]: 47  LLC: 2048
rand_sets[43]: 47
Assign rand_sets[44]: 823  LLC: 2048
rand_sets[44]: 823
Assign rand_sets[45]: 686  LLC: 2048
rand_sets[45]: 686
Assign rand_sets[46]: 1637  LLC: 2048
rand_sets[46]: 1637
Assign rand_sets[47]: 1115  LLC: 2048
rand_sets[47]: 1115
Assign rand_sets[48]: 986  LLC: 2048
rand_sets[48]: 986
Assign rand_sets[49]: 258  LLC: 2048
rand_sets[49]: 258
Assign rand_sets[50]: 633  LLC: 2048
rand_sets[50]: 633
Assign rand_sets[51]: 920  LLC: 2048
rand_sets[51]: 920
Assign rand_sets[52]: 204  LLC: 2048
rand_sets[52]: 204
Assign rand_sets[53]: 227  LLC: 2048
rand_sets[53]: 227
Assign rand_sets[54]: 1818  LLC: 2048
rand_sets[54]: 1818
Assign rand_sets[55]: 886  LLC: 2048
rand_sets[55]: 886
Assign rand_sets[56]: 1422  LLC: 2048
rand_sets[56]: 1422
Assign rand_sets[57]: 607  LLC: 2048
rand_sets[57]: 607
Assign rand_sets[58]: 217  LLC: 2048
rand_sets[58]: 217
Assign rand_sets[59]: 1945  LLC: 2048
rand_sets[59]: 1945
Assign rand_sets[60]: 143  LLC: 2048
rand_sets[60]: 143
Assign rand_sets[61]: 1311  LLC: 2048
rand_sets[61]: 1311
Assign rand_sets[62]: 319  LLC: 2048
rand_sets[62]: 319
Assign rand_sets[63]: 1846  LLC: 2048
rand_sets[63]: 1846
 CLEAN-RRIP-POLICY-1: 1-2-1-3-1-3-0-1- CLEAN-RRIP-POLICY-2: 1-2-1-3-1-3-0-1-
 DIRTY-RRIP-POLICY-1: 2-2-1-3-1-3-0-1- DIRTY-RRIP-POLICY-2: 2-2-1-3-1-3-0-1-
 PSEL width: 10
Heartbeat CPU 0 instructions: 10000000 cycles: 4688066 heartbeat IPC: 2.13308 cumulative IPC: 2.13308 (Simulation time: 0 hr 0 min 17 sec) 
Heartbeat CPU 0 instructions: 20000000 cycles: 9325334 heartbeat IPC: 2.15644 cumulative IPC: 2.1447 (Simulation time: 0 hr 0 min 34 sec) 
Heartbeat CPU 0 instructions: 30000003 cycles: 14019728 heartbeat IPC: 2.1302 cumulative IPC: 2.13984 (Simulation time: 0 hr 0 min 51 sec) 
Heartbeat CPU 0 instructions: 40000000 cycles: 18670144 heartbeat IPC: 2.15034 cumulative IPC: 2.14246 (Simulation time: 0 hr 1 min 8 sec) 
Heartbeat CPU 0 instructions: 50000003 cycles: 23323505 heartbeat IPC: 2.14898 cumulative IPC: 2.14376 (Simulation time: 0 hr 1 min 25 sec) 
Heartbeat CPU 0 instructions: 60000000 cycles: 27976125 heartbeat IPC: 2.14933 cumulative IPC: 2.14469 (Simulation time: 0 hr 1 min 42 sec) 
Heartbeat CPU 0 instructions: 70000002 cycles: 32367298 heartbeat IPC: 2.2773 cumulative IPC: 2.16268 (Simulation time: 0 hr 1 min 57 sec) 
Heartbeat CPU 0 instructions: 80000000 cycles: 36304059 heartbeat IPC: 2.54016 cumulative IPC: 2.20361 (Simulation time: 0 hr 2 min 9 sec) 
Heartbeat CPU 0 instructions: 90000000 cycles: 40249337 heartbeat IPC: 2.53468 cumulative IPC: 2.23606 (Simulation time: 0 hr 2 min 21 sec) 
Heartbeat CPU 0 instructions: 100000000 cycles: 44211618 heartbeat IPC: 2.5238 cumulative IPC: 2.26185 (Simulation time: 0 hr 2 min 33 sec) 

Warmup complete CPU 0 instructions: 100000002 cycles: 44211619 (Simulation time: 0 hr 2 min 33 sec) 

Heartbeat CPU 0 instructions: 110000000 cycles: 52836595 heartbeat IPC: 1.15942 cumulative IPC: 1.15942 (Simulation time: 0 hr 2 min 51 sec) 
Heartbeat CPU 0 instructions: 120000000 cycles: 61504046 heartbeat IPC: 1.15374 cumulative IPC: 1.15658 (Simulation time: 0 hr 3 min 10 sec) 
Heartbeat CPU 0 instructions: 130000002 cycles: 70215793 heartbeat IPC: 1.14788 cumulative IPC: 1.15366 (Simulation time: 0 hr 3 min 29 sec) 
Heartbeat CPU 0 instructions: 140000000 cycles: 78788295 heartbeat IPC: 1.16652 cumulative IPC: 1.15685 (Simulation time: 0 hr 3 min 48 sec) 
Heartbeat CPU 0 instructions: 150000003 cycles: 87531803 heartbeat IPC: 1.14371 cumulative IPC: 1.1542 (Simulation time: 0 hr 4 min 6 sec) 
Heartbeat CPU 0 instructions: 160000000 cycles: 97795768 heartbeat IPC: 0.974282 cumulative IPC: 1.11973 (Simulation time: 0 hr 4 min 27 sec) 
Heartbeat CPU 0 instructions: 170000000 cycles: 110248807 heartbeat IPC: 0.803017 cumulative IPC: 1.06001 (Simulation time: 0 hr 4 min 51 sec) 
Heartbeat CPU 0 instructions: 180000000 cycles: 122723682 heartbeat IPC: 0.801611 cumulative IPC: 1.01895 (Simulation time: 0 hr 5 min 15 sec) 
Heartbeat CPU 0 instructions: 190000000 cycles: 135469796 heartbeat IPC: 0.784553 cumulative IPC: 0.986213 (Simulation time: 0 hr 5 min 38 sec) 
Heartbeat CPU 0 instructions: 200000000 cycles: 149388376 heartbeat IPC: 0.718464 cumulative IPC: 0.95078 (Simulation time: 0 hr 6 min 2 sec) 
Heartbeat CPU 0 instructions: 210000001 cycles: 163271625 heartbeat IPC: 0.720293 cumulative IPC: 0.923904 (Simulation time: 0 hr 6 min 26 sec) 
Heartbeat CPU 0 instructions: 220000000 cycles: 176981457 heartbeat IPC: 0.729403 cumulative IPC: 0.90382 (Simulation time: 0 hr 6 min 50 sec) 
Heartbeat CPU 0 instructions: 230000000 cycles: 190473707 heartbeat IPC: 0.741166 cumulative IPC: 0.888815 (Simulation time: 0 hr 7 min 15 sec) 
Heartbeat CPU 0 instructions: 240000000 cycles: 204067689 heartbeat IPC: 0.73562 cumulative IPC: 0.875788 (Simulation time: 0 hr 7 min 39 sec) 
Heartbeat CPU 0 instructions: 250000003 cycles: 215139428 heartbeat IPC: 0.903201 cumulative IPC: 0.877563 (Simulation time: 0 hr 8 min 2 sec) 
Heartbeat CPU 0 instructions: 260000000 cycles: 222994050 heartbeat IPC: 1.27314 cumulative IPC: 0.894943 (Simulation time: 0 hr 8 min 22 sec) 
Heartbeat CPU 0 instructions: 270000003 cycles: 231315383 heartbeat IPC: 1.20173 cumulative IPC: 0.908587 (Simulation time: 0 hr 8 min 42 sec) 
Heartbeat CPU 0 instructions: 280000000 cycles: 239763450 heartbeat IPC: 1.1837 cumulative IPC: 0.920472 (Simulation time: 0 hr 9 min 2 sec) 
Heartbeat CPU 0 instructions: 290000000 cycles: 248379955 heartbeat IPC: 1.16056 cumulative IPC: 0.930605 (Simulation time: 0 hr 9 min 22 sec) 
Heartbeat CPU 0 instructions: 300000000 cycles: 257003525 heartbeat IPC: 1.15961 cumulative IPC: 0.939885 (Simulation time: 0 hr 9 min 43 sec) 
Heartbeat CPU 0 instructions: 310000000 cycles: 265698349 heartbeat IPC: 1.15011 cumulative IPC: 0.948138 (Simulation time: 0 hr 10 min 4 sec) 
Heartbeat CPU 0 instructions: 320000000 cycles: 274440551 heartbeat IPC: 1.14388 cumulative IPC: 0.955571 (Simulation time: 0 hr 10 min 26 sec) 
Heartbeat CPU 0 instructions: 330000002 cycles: 283141085 heartbeat IPC: 1.14935 cumulative IPC: 0.962627 (Simulation time: 0 hr 10 min 47 sec) 
Heartbeat CPU 0 instructions: 340000000 cycles: 293138893 heartbeat IPC: 1.00022 cumulative IPC: 0.964137 (Simulation time: 0 hr 11 min 10 sec) 
Heartbeat CPU 0 instructions: 350000001 cycles: 301574531 heartbeat IPC: 1.18545 cumulative IPC: 0.971391 (Simulation time: 0 hr 11 min 31 sec) 
Heartbeat CPU 0 instructions: 360000000 cycles: 310025502 heartbeat IPC: 1.1833 cumulative IPC: 0.978128 (Simulation time: 0 hr 11 min 51 sec) 
Heartbeat CPU 0 instructions: 370000001 cycles: 318486464 heartbeat IPC: 1.1819 cumulative IPC: 0.984414 (Simulation time: 0 hr 12 min 12 sec) 
Heartbeat CPU 0 instructions: 380000000 cycles: 326917223 heartbeat IPC: 1.18613 cumulative IPC: 0.99043 (Simulation time: 0 hr 12 min 32 sec) 
Heartbeat CPU 0 instructions: 390000001 cycles: 335181897 heartbeat IPC: 1.20997 cumulative IPC: 0.996665 (Simulation time: 0 hr 12 min 53 sec) 
Heartbeat CPU 0 instructions: 400000000 cycles: 343532892 heartbeat IPC: 1.19746 cumulative IPC: 1.00227 (Simulation time: 0 hr 13 min 13 sec) 
Heartbeat CPU 0 instructions: 410000003 cycles: 351795956 heartbeat IPC: 1.21021 cumulative IPC: 1.00785 (Simulation time: 0 hr 13 min 33 sec) 
Heartbeat CPU 0 instructions: 420000000 cycles: 360149954 heartbeat IPC: 1.19703 cumulative IPC: 1.01286 (Simulation time: 0 hr 13 min 54 sec) 
Heartbeat CPU 0 instructions: 430000001 cycles: 368423051 heartbeat IPC: 1.20874 cumulative IPC: 1.01785 (Simulation time: 0 hr 14 min 14 sec) 
Heartbeat CPU 0 instructions: 440000000 cycles: 376646942 heartbeat IPC: 1.21597 cumulative IPC: 1.02276 (Simulation time: 0 hr 14 min 34 sec) 
Heartbeat CPU 0 instructions: 450000001 cycles: 386164101 heartbeat IPC: 1.05073 cumulative IPC: 1.02353 (Simulation time: 0 hr 14 min 56 sec) 
Heartbeat CPU 0 instructions: 460000000 cycles: 394429702 heartbeat IPC: 1.20983 cumulative IPC: 1.02793 (Simulation time: 0 hr 15 min 16 sec) 
Heartbeat CPU 0 instructions: 470000003 cycles: 402577750 heartbeat IPC: 1.22729 cumulative IPC: 1.03246 (Simulation time: 0 hr 15 min 37 sec) 
Heartbeat CPU 0 instructions: 480000000 cycles: 410757092 heartbeat IPC: 1.22259 cumulative IPC: 1.03671 (Simulation time: 0 hr 15 min 57 sec) 
Heartbeat CPU 0 instructions: 490000000 cycles: 418918031 heartbeat IPC: 1.22535 cumulative IPC: 1.04081 (Simulation time: 0 hr 16 min 17 sec) 
Heartbeat CPU 0 instructions: 500000000 cycles: 427094437 heartbeat IPC: 1.22303 cumulative IPC: 1.04471 (Simulation time: 0 hr 16 min 37 sec) 
Heartbeat CPU 0 instructions: 510000001 cycles: 435222675 heartbeat IPC: 1.23028 cumulative IPC: 1.04856 (Simulation time: 0 hr 16 min 57 sec) 
Heartbeat CPU 0 instructions: 520000000 cycles: 443388273 heartbeat IPC: 1.22465 cumulative IPC: 1.05217 (Simulation time: 0 hr 17 min 17 sec) 
Heartbeat CPU 0 instructions: 530000001 cycles: 451560487 heartbeat IPC: 1.22366 cumulative IPC: 1.05561 (Simulation time: 0 hr 17 min 38 sec) 
Heartbeat CPU 0 instructions: 540000000 cycles: 459883746 heartbeat IPC: 1.20145 cumulative IPC: 1.05853 (Simulation time: 0 hr 17 min 58 sec) 
Heartbeat CPU 0 instructions: 550000000 cycles: 468280469 heartbeat IPC: 1.19094 cumulative IPC: 1.06115 (Simulation time: 0 hr 18 min 18 sec) 
Heartbeat CPU 0 instructions: 560000000 cycles: 476441821 heartbeat IPC: 1.22529 cumulative IPC: 1.06425 (Simulation time: 0 hr 18 min 38 sec) 
Heartbeat CPU 0 instructions: 570000001 cycles: 487730217 heartbeat IPC: 0.885866 cumulative IPC: 1.05971 (Simulation time: 0 hr 19 min 1 sec) 
Heartbeat CPU 0 instructions: 580000000 cycles: 498784518 heartbeat IPC: 0.904625 cumulative IPC: 1.05594 (Simulation time: 0 hr 19 min 23 sec) 
Heartbeat CPU 0 instructions: 590000001 cycles: 510039809 heartbeat IPC: 0.888471 cumulative IPC: 1.05189 (Simulation time: 0 hr 19 min 45 sec) 
Heartbeat CPU 0 instructions: 600000000 cycles: 521042948 heartbeat IPC: 0.908831 cumulative IPC: 1.04859 (Simulation time: 0 hr 20 min 7 sec) 
Finished CPU 0 instructions: 500000001 cycles: 476831342 cumulative IPC: 1.04859 (Simulation time: 0 hr 20 min 7 sec) 

CPU 0 Branch Prediction Accuracy: 99.7422% MPKI: 0.173296
Number of Branches: 33608403 Number of Mispredictions: 86648
Number of LOAD Instructions: 180215231
Number of LOAD Instructions (ROI): 180215231
Number of STORE Instructions: 36067263
Number of STORE Instructions (ROI): 36067263
Total Destination Memory Operands: 38428915
Total Destination Memory Operands (ROI): 38428915
Total Source Memory Operands: 180215231
Total Source Memory Operands (ROI): 180215231
Number of DEPENDED LOADS: 3041463
Number of DEPENDED LOADS (ROI): 3041463
Number of SQ_ADDED: 38428892
Number of SQ_ADDED (ROI): 38428892
Number of LQ_ADDED: 207553142
Number of LQ_ADDED (ROI): 207553142
Number of Instructions read from trace: 600000257

ChampSim completed all CPUs

Region of Interest Statistics

CPU 0 cumulative IPC: 1.04859 instructions: 500000001 cycles: 476831342
ITLB TOTAL     ACCESS:   91812577  HIT:   91812558  MISS:         19
ITLB LOAD      ACCESS:   91812577  HIT:   91812558  MISS:         19
ITLB RFO       ACCESS:          0  HIT:          0  MISS:          0
ITLB PREFETCH  ACCESS:          0  HIT:          0  MISS:          0
ITLB WRITEBACK ACCESS:          0  HIT:          0  MISS:          0
ITLB PREFETCH  REQUESTED:          0  ISSUED:          0  USEFUL:          0  USELESS:          0
ITLB TOTAL MSHR MERGED:         40
ITLB LOAD MSHR MERGED:         40
ITLB RFO MSHR MERGED:          0
ITLB PREFETCH MSHR MERGED:          0
ITLB WRITEBACK MSHR MERGED:          0
ITLB TOTAL ACCESSES:   91812617 HITS:   91812558 MISSES:         59
ITLB LOAD ACCESSES:   91812617 HITS:   91812558 MISSES:         59
ITLB RFO ACCESSES:          0 HITS:          0 MISSES:          0
ITLB PREFETCH ACCESSES:          0 HITS:          0 MISSES:          0
ITLB WRITEBACK ACCESSES:          0 HITS:          0 MISSES:          0
ITLB RQ ACCESS:  500000003
ITLB RQ TO_CACHE:   91812617
ITLB RQ MERGED:  408187386
ITLB RQ FORWARD:          0
ITLB WQ ACCESS:          0
ITLB WQ TO_CACHE:          0
ITLB WQ MERGED:          0
ITLB WQ FORWARD:          0
DTLB TOTAL     ACCESS:  142036246  HIT:  141669784  MISS:     366462
DTLB LOAD      ACCESS:  119399602  HIT:  119086016  MISS:     313586
DTLB RFO       ACCESS:   22636644  HIT:   22583768  MISS:      52876
DTLB PREFETCH  ACCESS:          0  HIT:          0  MISS:          0
DTLB WRITEBACK ACCESS:          0  HIT:          0  MISS:          0
DTLB PREFETCH  REQUESTED:          0  ISSUED:          0  USEFUL:          0  USELESS:          0
DTLB TOTAL MSHR MERGED:     288859
DTLB LOAD MSHR MERGED:     241016
DTLB RFO MSHR MERGED:      47843
DTLB PREFETCH MSHR MERGED:          0
DTLB WRITEBACK MSHR MERGED:          0
DTLB TOTAL ACCESSES:  142325105 HITS:  141669784 MISSES:     655321
DTLB LOAD ACCESSES:  119640618 HITS:  119086016 MISSES:     554602
DTLB RFO ACCESSES:   22684487 HITS:   22583768 MISSES:     100719
DTLB PREFETCH ACCESSES:          0 HITS:          0 MISSES:          0
DTLB WRITEBACK ACCESSES:          0 HITS:          0 MISSES:          0
DTLB RQ ACCESS:  184791514
DTLB RQ TO_CACHE:  142325105
DTLB RQ MERGED:   42466409
DTLB RQ FORWARD:          0
DTLB WQ ACCESS:          0
DTLB WQ TO_CACHE:          0
DTLB WQ MERGED:          0
DTLB WQ FORWARD:          0
L1D TOTAL     ACCESS:  189933359  HIT:  176483238  MISS:   13450121
L1D LOAD      ACCESS:  111919860  HIT:  108654732  MISS:    3265128
L1D RFO       ACCESS:   18812870  HIT:   16031135  MISS:    2781735
L1D PREFETCH  ACCESS:   59200629  HIT:   51797371  MISS:    7403258
L1D WRITEBACK ACCESS:          0  HIT:          0  MISS:          0
L1D PREFETCH  REQUESTED:  116501951  ISSUED:  115141105  USEFUL:    7193581  USELESS:     209679
L1D TOTAL MSHR MERGED:   31798816
L1D LOAD MSHR MERGED:    7291111
L1D RFO MSHR MERGED:    9439868
L1D PREFETCH MSHR MERGED:   15067837
L1D WRITEBACK MSHR MERGED:          0
L1D TOTAL ACCESSES:  221732587 HITS:  176483647 MISSES:   45248940
L1D LOAD ACCESSES:  116501972 HITS:  108654753 MISSES:    7847219
L1D RFO ACCESSES:   28252697 HITS:   16031135 MISSES:   12221562
L1D PREFETCH ACCESSES:   76977918 HITS:   51797759 MISSES:   25180159
L1D WRITEBACK ACCESSES:          0 HITS:          0 MISSES:          0
L1D RQ ACCESS:  156535448
L1D RQ TO_CACHE:  116501954
L1D RQ MERGED:   40033473
L1D RQ FORWARD:          0
L1D WQ ACCESS:   28256066
L1D WQ TO_CACHE:   28252697
L1D WQ MERGED:       3369
L1D WQ FORWARD:        409
L1I TOTAL     ACCESS:  115806927  HIT:  115805979  MISS:        948
L1I LOAD      ACCESS:  115806927  HIT:  115805979  MISS:        948
L1I RFO       ACCESS:          0  HIT:          0  MISS:          0
L1I PREFETCH  ACCESS:          0  HIT:          0  MISS:          0
L1I WRITEBACK ACCESS:          0  HIT:          0  MISS:          0
L1I PREFETCH  REQUESTED:          0  ISSUED:          0  USEFUL:          0  USELESS:          0
L1I TOTAL MSHR MERGED:       1573
L1I LOAD MSHR MERGED:       1573
L1I RFO MSHR MERGED:          0
L1I PREFETCH MSHR MERGED:          0
L1I WRITEBACK MSHR MERGED:          0
L1I TOTAL ACCESSES:  115808500 HITS:  115805979 MISSES:       2521
L1I LOAD ACCESSES:  115808500 HITS:  115805979 MISSES:       2521
L1I RFO ACCESSES:          0 HITS:          0 MISSES:          0
L1I PREFETCH ACCESSES:          0 HITS:          0 MISSES:          0
L1I WRITEBACK ACCESSES:          0 HITS:          0 MISSES:          0
L1I RQ ACCESS:  500000007
L1I RQ TO_CACHE:  115808500
L1I RQ MERGED:  384191507
L1I RQ FORWARD:          0
L1I WQ ACCESS:          0
L1I WQ TO_CACHE:          0
L1I WQ MERGED:          0
L1I WQ FORWARD:          0
L2C TOTAL     ACCESS:   16695676  HIT:    4851147  MISS:   11844529
L2C LOAD      ACCESS:     557022  HIT:      95377  MISS:     461645
L2C RFO       ACCESS:    2781694  HIT:     266758  MISS:    2514936
L2C PREFETCH  ACCESS:   10136301  HIT:    1270648  MISS:    8865653
L2C WRITEBACK ACCESS:    3220659  HIT:    3218364  MISS:       2295
L2C PREFETCH  REQUESTED:      26042  ISSUED:      26042  USEFUL:      92908  USELESS:    8770820
L2C TOTAL MSHR MERGED:        521
L2C LOAD MSHR MERGED:          5
L2C RFO MSHR MERGED:          0
L2C PREFETCH MSHR MERGED:        516
L2C WRITEBACK MSHR MERGED:          0
L2C TOTAL ACCESSES:   16696350 HITS:    4851202 MISSES:   11845148
L2C LOAD ACCESSES:     557056 HITS:      95411 MISSES:     461645
L2C RFO ACCESSES:    2781694 HITS:     266758 MISSES:    2514936
L2C PREFETCH ACCESSES:   10136941 HITS:    1270669 MISSES:    8866272
L2C WRITEBACK ACCESSES:    3220659 HITS:    3218364 MISSES:       2295
L2C RQ ACCESS:    3338750
L2C RQ TO_CACHE:    3338716
L2C RQ MERGED:          0
L2C RQ FORWARD:          0
L2C WQ ACCESS:    3220659
L2C WQ TO_CACHE:    3220659
L2C WQ MERGED:          0
L2C WQ FORWARD:         55
LLC TOTAL     ACCESS:   14742659  HIT:    7490281  MISS:    7252378
LLC LOAD      ACCESS:     461638  HIT:     246846  MISS:     214792
LLC RFO       ACCESS:    2514916  HIT:    1821846  MISS:     693070
LLC PREFETCH  ACCESS:    8865694  HIT:    3264671  MISS:    5601023
LLC WRITEBACK ACCESS:    2900411  HIT:    2156918  MISS:     743493
LLC PREFETCH  REQUESTED:          0  ISSUED:          0  USEFUL:       3960  USELESS:    5601807
LLC TOTAL MSHR MERGED:          1
LLC LOAD MSHR MERGED:          0
LLC RFO MSHR MERGED:          0
LLC PREFETCH MSHR MERGED:          1
LLC WRITEBACK MSHR MERGED:          0
LLC TOTAL ACCESSES:   14742732 HITS:    7490350 MISSES:    7252382
LLC LOAD ACCESSES:     461640 HITS:     246848 MISSES:     214792
LLC RFO ACCESSES:    2514936 HITS:    1821866 MISSES:     693070
LLC PREFETCH ACCESSES:    8865745 HITS:    3264718 MISSES:    5601027
LLC WRITEBACK ACCESSES:    2900411 HITS:    2156918 MISSES:     743493
LLC 0 RQ ACCESS:    2976576
LLC 0 RQ TO_CACHE:    2976554
LLC 0 RQ MERGED:          0
LLC 0 RQ FORWARD:          0
LLC WQ ACCESS:    2900411
LLC WQ TO_CACHE:    2900411
LLC WQ MERGED:          0
LLC WQ FORWARD:         69
Major fault: 0 Minor fault: 57518
CPU 0 L1D next line prefetcher final stats
CPU 0 L2C PC-based stride prefetcher final stats
All Misses: 7851846
All Hits: 8386994
SD Algo Stats - Switches: 0 SRR-Repls: 221878 BRR-Repls: 0

DRAM Statistics
 CHANNEL 0
 RQ ROW_BUFFER_HIT:    3649645  ROW_BUFFER_MISS:    2855588
 DBUS_CONGESTED:    2993418
 WQ ROW_BUFFER_HIT:      93065  ROW_BUFFER_MISS:     863898  FULL:          0

 AVG_CONGESTED_CYCLE: 12
LOADS RETIRED: 157818985
INSTR RETIRED: 500000000
