
*** ChampSim Multicore Out-of-Order Simulator ***

Warmup Instructions: 100000000
Simulation Instructions: 500000000
Number of CPUs: 1
LLC sets: 2048
LLC ways: 16
Clean RRIP Policies: 2213230222132302 Dirty RRIP Policies: 2203130222031302 PSEL Width: 10 Track Set: 4294967295 PSEL Mask: 1 Demote Mask: 4140100041401000DS Algo: 0Window size: 0
Off-chip DRAM Size: 4096 MB Channels: 1 Width: 64-bit Data Rate: 1600 MT/s

CPU 0 runs /mnt/beegfs/iconst01/spec2017/cactuBSSN.trace.gz
NOT SORTED
TRACE STRING: /mnt/beegfs/iconst01/spec2017/cactuBSSN.trace.gz
SORTED
TRACE STRING: /mnt/beegfs/iconst01/spec2017/cactuBSSN.trace.gz
INITIAL
TRACE STRING: /mnt/beegfs/iconst01/spec2017/cactuBSSN.trace.gz

champsim_seed used: 838

CPU 0 L1D next line prefetcher
CPU 0 L2C IP-based stride prefetcher
Initialize DRRIP state
Assign rand_sets[0]: 454  LLC: 2048
rand_sets[0]: 454
Assign rand_sets[1]: 1662  LLC: 2048
rand_sets[1]: 1662
Assign rand_sets[2]: 1921  LLC: 2048
rand_sets[2]: 1921
Assign rand_sets[3]: 1131  LLC: 2048
rand_sets[3]: 1131
Assign rand_sets[4]: 331  LLC: 2048
rand_sets[4]: 331
Assign rand_sets[5]: 1531  LLC: 2048
rand_sets[5]: 1531
Assign rand_sets[6]: 482  LLC: 2048
rand_sets[6]: 482
Assign rand_sets[7]: 1275  LLC: 2048
rand_sets[7]: 1275
Assign rand_sets[8]: 1876  LLC: 2048
rand_sets[8]: 1876
Assign rand_sets[9]: 2038  LLC: 2048
rand_sets[9]: 2038
Assign rand_sets[10]: 701  LLC: 2048
rand_sets[10]: 701
Assign rand_sets[11]: 479  LLC: 2048
rand_sets[11]: 479
Assign rand_sets[12]: 892  LLC: 2048
rand_sets[12]: 892
Assign rand_sets[13]: 1820  LLC: 2048
rand_sets[13]: 1820
Assign rand_sets[14]: 1505  LLC: 2048
rand_sets[14]: 1505
Assign rand_sets[15]: 1159  LLC: 2048
rand_sets[15]: 1159
Assign rand_sets[16]: 513  LLC: 2048
rand_sets[16]: 513
Assign rand_sets[17]: 703  LLC: 2048
rand_sets[17]: 703
Assign rand_sets[18]: 561  LLC: 2048
rand_sets[18]: 561
Assign rand_sets[19]: 990  LLC: 2048
rand_sets[19]: 990
Assign rand_sets[20]: 342  LLC: 2048
rand_sets[20]: 342
Assign rand_sets[21]: 882  LLC: 2048
rand_sets[21]: 882
Assign rand_sets[22]: 15  LLC: 2048
rand_sets[22]: 15
Assign rand_sets[23]: 71  LLC: 2048
rand_sets[23]: 71
Assign rand_sets[24]: 1127  LLC: 2048
rand_sets[24]: 1127
Assign rand_sets[25]: 1382  LLC: 2048
rand_sets[25]: 1382
Assign rand_sets[26]: 647  LLC: 2048
rand_sets[26]: 647
Assign rand_sets[27]: 857  LLC: 2048
rand_sets[27]: 857
Assign rand_sets[28]: 1450  LLC: 2048
rand_sets[28]: 1450
Assign rand_sets[29]: 1160  LLC: 2048
rand_sets[29]: 1160
Assign rand_sets[30]: 1852  LLC: 2048
rand_sets[30]: 1852
Assign rand_sets[31]: 1881  LLC: 2048
rand_sets[31]: 1881
Assign rand_sets[32]: 1770  LLC: 2048
rand_sets[32]: 1770
Assign rand_sets[33]: 1622  LLC: 2048
rand_sets[33]: 1622
Assign rand_sets[34]: 275  LLC: 2048
rand_sets[34]: 275
Assign rand_sets[35]: 635  LLC: 2048
rand_sets[35]: 635
Assign rand_sets[36]: 466  LLC: 2048
rand_sets[36]: 466
Assign rand_sets[37]: 1413  LLC: 2048
rand_sets[37]: 1413
Assign rand_sets[38]: 417  LLC: 2048
rand_sets[38]: 417
Assign rand_sets[39]: 472  LLC: 2048
rand_sets[39]: 472
Assign rand_sets[40]: 1340  LLC: 2048
rand_sets[40]: 1340
Assign rand_sets[41]: 852  LLC: 2048
rand_sets[41]: 852
Assign rand_sets[42]: 1365  LLC: 2048
rand_sets[42]: 1365
Assign rand_sets[43]: 47  LLC: 2048
rand_sets[43]: 47
Assign rand_sets[44]: 823  LLC: 2048
rand_sets[44]: 823
Assign rand_sets[45]: 686  LLC: 2048
rand_sets[45]: 686
Assign rand_sets[46]: 1637  LLC: 2048
rand_sets[46]: 1637
Assign rand_sets[47]: 1115  LLC: 2048
rand_sets[47]: 1115
Assign rand_sets[48]: 986  LLC: 2048
rand_sets[48]: 986
Assign rand_sets[49]: 258  LLC: 2048
rand_sets[49]: 258
Assign rand_sets[50]: 633  LLC: 2048
rand_sets[50]: 633
Assign rand_sets[51]: 920  LLC: 2048
rand_sets[51]: 920
Assign rand_sets[52]: 204  LLC: 2048
rand_sets[52]: 204
Assign rand_sets[53]: 227  LLC: 2048
rand_sets[53]: 227
Assign rand_sets[54]: 1818  LLC: 2048
rand_sets[54]: 1818
Assign rand_sets[55]: 886  LLC: 2048
rand_sets[55]: 886
Assign rand_sets[56]: 1422  LLC: 2048
rand_sets[56]: 1422
Assign rand_sets[57]: 607  LLC: 2048
rand_sets[57]: 607
Assign rand_sets[58]: 217  LLC: 2048
rand_sets[58]: 217
Assign rand_sets[59]: 1945  LLC: 2048
rand_sets[59]: 1945
Assign rand_sets[60]: 143  LLC: 2048
rand_sets[60]: 143
Assign rand_sets[61]: 1311  LLC: 2048
rand_sets[61]: 1311
Assign rand_sets[62]: 319  LLC: 2048
rand_sets[62]: 319
Assign rand_sets[63]: 1846  LLC: 2048
rand_sets[63]: 1846
 CLEAN-RRIP-POLICY-1: 2-2-1-3-2-3-0-2- CLEAN-RRIP-POLICY-2: 2-2-1-3-2-3-0-2-
 DIRTY-RRIP-POLICY-1: 2-2-0-3-1-3-0-2- DIRTY-RRIP-POLICY-2: 2-2-0-3-1-3-0-2-
 PSEL width: 10
Heartbeat CPU 0 instructions: 10000000 cycles: 6588002 heartbeat IPC: 1.51791 cumulative IPC: 1.51791 (Simulation time: 0 hr 0 min 25 sec) 
Heartbeat CPU 0 instructions: 20000000 cycles: 13179597 heartbeat IPC: 1.51708 cumulative IPC: 1.5175 (Simulation time: 0 hr 0 min 50 sec) 
Heartbeat CPU 0 instructions: 30000003 cycles: 19772916 heartbeat IPC: 1.51669 cumulative IPC: 1.51723 (Simulation time: 0 hr 1 min 16 sec) 
Heartbeat CPU 0 instructions: 40000000 cycles: 26364663 heartbeat IPC: 1.51705 cumulative IPC: 1.51718 (Simulation time: 0 hr 1 min 42 sec) 
Heartbeat CPU 0 instructions: 50000001 cycles: 32957345 heartbeat IPC: 1.51683 cumulative IPC: 1.51711 (Simulation time: 0 hr 2 min 8 sec) 
Heartbeat CPU 0 instructions: 60000000 cycles: 39556189 heartbeat IPC: 1.51542 cumulative IPC: 1.51683 (Simulation time: 0 hr 2 min 33 sec) 
Heartbeat CPU 0 instructions: 70000003 cycles: 46154568 heartbeat IPC: 1.51552 cumulative IPC: 1.51664 (Simulation time: 0 hr 2 min 59 sec) 
Heartbeat CPU 0 instructions: 80000000 cycles: 52752628 heartbeat IPC: 1.5156 cumulative IPC: 1.51651 (Simulation time: 0 hr 3 min 25 sec) 
Heartbeat CPU 0 instructions: 90000002 cycles: 59348326 heartbeat IPC: 1.51614 cumulative IPC: 1.51647 (Simulation time: 0 hr 3 min 51 sec) 
Heartbeat CPU 0 instructions: 100000000 cycles: 65943432 heartbeat IPC: 1.51628 cumulative IPC: 1.51645 (Simulation time: 0 hr 4 min 17 sec) 

Warmup complete CPU 0 instructions: 100000002 cycles: 65943433 (Simulation time: 0 hr 4 min 17 sec) 

Heartbeat CPU 0 instructions: 110000000 cycles: 79179126 heartbeat IPC: 0.755533 cumulative IPC: 0.755533 (Simulation time: 0 hr 4 min 49 sec) 
Heartbeat CPU 0 instructions: 120000000 cycles: 92376316 heartbeat IPC: 0.757737 cumulative IPC: 0.756633 (Simulation time: 0 hr 5 min 21 sec) 
Heartbeat CPU 0 instructions: 130000001 cycles: 105653295 heartbeat IPC: 0.753183 cumulative IPC: 0.75548 (Simulation time: 0 hr 5 min 53 sec) 
Heartbeat CPU 0 instructions: 140000000 cycles: 118820877 heartbeat IPC: 0.759441 cumulative IPC: 0.756466 (Simulation time: 0 hr 6 min 24 sec) 
Heartbeat CPU 0 instructions: 150000001 cycles: 132011480 heartbeat IPC: 0.758116 cumulative IPC: 0.756795 (Simulation time: 0 hr 6 min 56 sec) 
Heartbeat CPU 0 instructions: 160000000 cycles: 145256296 heartbeat IPC: 0.755012 cumulative IPC: 0.756498 (Simulation time: 0 hr 7 min 28 sec) 
Heartbeat CPU 0 instructions: 170000000 cycles: 158469952 heartbeat IPC: 0.756793 cumulative IPC: 0.75654 (Simulation time: 0 hr 8 min 0 sec) 
Heartbeat CPU 0 instructions: 180000000 cycles: 171672506 heartbeat IPC: 0.757429 cumulative IPC: 0.756651 (Simulation time: 0 hr 8 min 31 sec) 
Heartbeat CPU 0 instructions: 190000000 cycles: 184834096 heartbeat IPC: 0.759787 cumulative IPC: 0.756998 (Simulation time: 0 hr 9 min 3 sec) 
Heartbeat CPU 0 instructions: 200000000 cycles: 198093280 heartbeat IPC: 0.754194 cumulative IPC: 0.756717 (Simulation time: 0 hr 9 min 34 sec) 
Heartbeat CPU 0 instructions: 210000002 cycles: 211307197 heartbeat IPC: 0.756778 cumulative IPC: 0.756722 (Simulation time: 0 hr 10 min 6 sec) 
Heartbeat CPU 0 instructions: 220000000 cycles: 224479752 heartbeat IPC: 0.759154 cumulative IPC: 0.756924 (Simulation time: 0 hr 10 min 37 sec) 
Heartbeat CPU 0 instructions: 230000003 cycles: 237729232 heartbeat IPC: 0.754747 cumulative IPC: 0.756756 (Simulation time: 0 hr 11 min 9 sec) 
Heartbeat CPU 0 instructions: 240000000 cycles: 250917686 heartbeat IPC: 0.758239 cumulative IPC: 0.756862 (Simulation time: 0 hr 11 min 40 sec) 
Heartbeat CPU 0 instructions: 250000001 cycles: 264140097 heartbeat IPC: 0.756292 cumulative IPC: 0.756824 (Simulation time: 0 hr 12 min 11 sec) 
Heartbeat CPU 0 instructions: 260000000 cycles: 277351783 heartbeat IPC: 0.756906 cumulative IPC: 0.756829 (Simulation time: 0 hr 12 min 42 sec) 
Heartbeat CPU 0 instructions: 270000003 cycles: 290593729 heartbeat IPC: 0.755176 cumulative IPC: 0.756732 (Simulation time: 0 hr 13 min 13 sec) 
Heartbeat CPU 0 instructions: 280000000 cycles: 303801680 heartbeat IPC: 0.757119 cumulative IPC: 0.756753 (Simulation time: 0 hr 13 min 43 sec) 
Heartbeat CPU 0 instructions: 290000000 cycles: 316969531 heartbeat IPC: 0.759425 cumulative IPC: 0.756893 (Simulation time: 0 hr 14 min 14 sec) 
Heartbeat CPU 0 instructions: 300000000 cycles: 330224249 heartbeat IPC: 0.754448 cumulative IPC: 0.756771 (Simulation time: 0 hr 14 min 44 sec) 
Heartbeat CPU 0 instructions: 310000001 cycles: 343395558 heartbeat IPC: 0.759226 cumulative IPC: 0.756887 (Simulation time: 0 hr 15 min 15 sec) 
Heartbeat CPU 0 instructions: 320000000 cycles: 356594974 heartbeat IPC: 0.757609 cumulative IPC: 0.75692 (Simulation time: 0 hr 15 min 46 sec) 
Heartbeat CPU 0 instructions: 330000002 cycles: 369792541 heartbeat IPC: 0.757716 cumulative IPC: 0.756955 (Simulation time: 0 hr 16 min 16 sec) 
Heartbeat CPU 0 instructions: 340000000 cycles: 383041479 heartbeat IPC: 0.754777 cumulative IPC: 0.756864 (Simulation time: 0 hr 16 min 46 sec) 
Heartbeat CPU 0 instructions: 350000000 cycles: 396300506 heartbeat IPC: 0.754203 cumulative IPC: 0.756757 (Simulation time: 0 hr 17 min 16 sec) 
Heartbeat CPU 0 instructions: 360000000 cycles: 409520581 heartbeat IPC: 0.756425 cumulative IPC: 0.756744 (Simulation time: 0 hr 17 min 46 sec) 
Heartbeat CPU 0 instructions: 370000002 cycles: 422802091 heartbeat IPC: 0.752927 cumulative IPC: 0.756602 (Simulation time: 0 hr 18 min 16 sec) 
Heartbeat CPU 0 instructions: 380000000 cycles: 436013158 heartbeat IPC: 0.756941 cumulative IPC: 0.756614 (Simulation time: 0 hr 18 min 45 sec) 
Heartbeat CPU 0 instructions: 390000000 cycles: 449186267 heartbeat IPC: 0.759122 cumulative IPC: 0.7567 (Simulation time: 0 hr 19 min 15 sec) 
Heartbeat CPU 0 instructions: 400000000 cycles: 462383607 heartbeat IPC: 0.757728 cumulative IPC: 0.756735 (Simulation time: 0 hr 19 min 45 sec) 
Heartbeat CPU 0 instructions: 410000001 cycles: 475635313 heartbeat IPC: 0.75462 cumulative IPC: 0.756666 (Simulation time: 0 hr 20 min 15 sec) 
Heartbeat CPU 0 instructions: 420000000 cycles: 488820567 heartbeat IPC: 0.758423 cumulative IPC: 0.756721 (Simulation time: 0 hr 20 min 44 sec) 
Heartbeat CPU 0 instructions: 430000001 cycles: 502010281 heartbeat IPC: 0.758167 cumulative IPC: 0.756765 (Simulation time: 0 hr 21 min 14 sec) 
Heartbeat CPU 0 instructions: 440000000 cycles: 515181325 heartbeat IPC: 0.759241 cumulative IPC: 0.756837 (Simulation time: 0 hr 21 min 44 sec) 
Heartbeat CPU 0 instructions: 450000002 cycles: 528493756 heartbeat IPC: 0.751178 cumulative IPC: 0.756674 (Simulation time: 0 hr 22 min 13 sec) 
Heartbeat CPU 0 instructions: 460000000 cycles: 541706660 heartbeat IPC: 0.756836 cumulative IPC: 0.756679 (Simulation time: 0 hr 22 min 43 sec) 
Heartbeat CPU 0 instructions: 470000003 cycles: 554899538 heartbeat IPC: 0.757985 cumulative IPC: 0.756714 (Simulation time: 0 hr 23 min 13 sec) 
Heartbeat CPU 0 instructions: 480000000 cycles: 568146180 heartbeat IPC: 0.754908 cumulative IPC: 0.756666 (Simulation time: 0 hr 23 min 43 sec) 
Heartbeat CPU 0 instructions: 490000000 cycles: 581361092 heartbeat IPC: 0.756721 cumulative IPC: 0.756668 (Simulation time: 0 hr 24 min 12 sec) 
Heartbeat CPU 0 instructions: 500000000 cycles: 594557448 heartbeat IPC: 0.757785 cumulative IPC: 0.756696 (Simulation time: 0 hr 24 min 42 sec) 
Heartbeat CPU 0 instructions: 510000001 cycles: 607732852 heartbeat IPC: 0.75899 cumulative IPC: 0.756752 (Simulation time: 0 hr 25 min 12 sec) 
Heartbeat CPU 0 instructions: 520000000 cycles: 621031603 heartbeat IPC: 0.75195 cumulative IPC: 0.756637 (Simulation time: 0 hr 25 min 41 sec) 
Heartbeat CPU 0 instructions: 530000000 cycles: 634281496 heartbeat IPC: 0.754723 cumulative IPC: 0.756592 (Simulation time: 0 hr 26 min 11 sec) 
Heartbeat CPU 0 instructions: 540000000 cycles: 647514954 heartbeat IPC: 0.75566 cumulative IPC: 0.756571 (Simulation time: 0 hr 26 min 41 sec) 
Heartbeat CPU 0 instructions: 550000002 cycles: 660782632 heartbeat IPC: 0.753712 cumulative IPC: 0.756507 (Simulation time: 0 hr 27 min 11 sec) 
Heartbeat CPU 0 instructions: 560000000 cycles: 673972342 heartbeat IPC: 0.758167 cumulative IPC: 0.756543 (Simulation time: 0 hr 27 min 40 sec) 
Heartbeat CPU 0 instructions: 570000001 cycles: 687180120 heartbeat IPC: 0.75713 cumulative IPC: 0.756555 (Simulation time: 0 hr 28 min 10 sec) 
Heartbeat CPU 0 instructions: 580000000 cycles: 700388521 heartbeat IPC: 0.757094 cumulative IPC: 0.756567 (Simulation time: 0 hr 28 min 40 sec) 
Heartbeat CPU 0 instructions: 590000003 cycles: 713640372 heartbeat IPC: 0.754612 cumulative IPC: 0.756527 (Simulation time: 0 hr 29 min 9 sec) 
Heartbeat CPU 0 instructions: 600000000 cycles: 726899341 heartbeat IPC: 0.754206 cumulative IPC: 0.75648 (Simulation time: 0 hr 29 min 39 sec) 
Finished CPU 0 instructions: 500000000 cycles: 660955918 cumulative IPC: 0.75648 (Simulation time: 0 hr 29 min 39 sec) 

CPU 0 Branch Prediction Accuracy: 99.968% MPKI: 0.002246
Number of Branches: 3513331 Number of Mispredictions: 1123
Number of LOAD Instructions: 287251172
Number of LOAD Instructions (ROI): 287251172
Number of STORE Instructions: 51060820
Number of STORE Instructions (ROI): 51060820
Total Destination Memory Operands: 51166221
Total Destination Memory Operands (ROI): 51166221
Total Source Memory Operands: 287251172
Total Source Memory Operands (ROI): 287251172
Number of DEPENDED LOADS: 9555261
Number of DEPENDED LOADS (ROI): 9555261
Number of SQ_ADDED: 51166208
Number of SQ_ADDED (ROI): 51166208
Number of LQ_ADDED: 290422451
Number of LQ_ADDED (ROI): 290422451
Number of Instructions read from trace: 600000257

ChampSim completed all CPUs

Region of Interest Statistics

CPU 0 cumulative IPC: 0.75648 instructions: 500000000 cycles: 660955918
ITLB TOTAL     ACCESS:  108952470  HIT:  108952470  MISS:          0
ITLB LOAD      ACCESS:  108952470  HIT:  108952470  MISS:          0
ITLB RFO       ACCESS:          0  HIT:          0  MISS:          0
ITLB PREFETCH  ACCESS:          0  HIT:          0  MISS:          0
ITLB WRITEBACK ACCESS:          0  HIT:          0  MISS:          0
ITLB PREFETCH  REQUESTED:          0  ISSUED:          0  USEFUL:          0  USELESS:          0
ITLB TOTAL MSHR MERGED:          0
ITLB LOAD MSHR MERGED:          0
ITLB RFO MSHR MERGED:          0
ITLB PREFETCH MSHR MERGED:          0
ITLB WRITEBACK MSHR MERGED:          0
ITLB TOTAL ACCESSES:  108952470 HITS:  108952470 MISSES:          0
ITLB LOAD ACCESSES:  108952470 HITS:  108952470 MISSES:          0
ITLB RFO ACCESSES:          0 HITS:          0 MISSES:          0
ITLB PREFETCH ACCESSES:          0 HITS:          0 MISSES:          0
ITLB WRITEBACK ACCESSES:          0 HITS:          0 MISSES:          0
ITLB RQ ACCESS:  500000001
ITLB RQ TO_CACHE:  108952470
ITLB RQ MERGED:  391047531
ITLB RQ FORWARD:          0
ITLB WQ ACCESS:          0
ITLB WQ TO_CACHE:          0
ITLB WQ MERGED:          0
ITLB WQ FORWARD:          0
DTLB TOTAL     ACCESS:  171132074  HIT:  161115762  MISS:   10016312
DTLB LOAD      ACCESS:  143472514  HIT:  135596452  MISS:    7876062
DTLB RFO       ACCESS:   27659560  HIT:   25519310  MISS:    2140250
DTLB PREFETCH  ACCESS:          0  HIT:          0  MISS:          0
DTLB WRITEBACK ACCESS:          0  HIT:          0  MISS:          0
DTLB PREFETCH  REQUESTED:          0  ISSUED:          0  USEFUL:          0  USELESS:          0
DTLB TOTAL MSHR MERGED:     360406
DTLB LOAD MSHR MERGED:     360406
DTLB RFO MSHR MERGED:          0
DTLB PREFETCH MSHR MERGED:          0
DTLB WRITEBACK MSHR MERGED:          0
DTLB TOTAL ACCESSES:  171492480 HITS:  161115762 MISSES:   10376718
DTLB LOAD ACCESSES:  143832920 HITS:  135596452 MISSES:    8236468
DTLB RFO ACCESSES:   27659560 HITS:   25519310 MISSES:    2140250
DTLB PREFETCH ACCESSES:          0 HITS:          0 MISSES:          0
DTLB WRITEBACK ACCESSES:          0 HITS:          0 MISSES:          0
DTLB RQ ACCESS:  274072556
DTLB RQ TO_CACHE:  171492480
DTLB RQ MERGED:  102580076
DTLB RQ FORWARD:          0
DTLB WQ ACCESS:          0
DTLB WQ TO_CACHE:          0
DTLB WQ MERGED:          0
DTLB WQ FORWARD:          0
L1D TOTAL     ACCESS:  350915635  HIT:  283715923  MISS:   67199712
L1D LOAD      ACCESS:  175624562  HIT:  142585071  MISS:   33039491
L1D RFO       ACCESS:   42018703  HIT:   39212850  MISS:    2805853
L1D PREFETCH  ACCESS:  133272370  HIT:  101918002  MISS:   31354368
L1D WRITEBACK ACCESS:          0  HIT:          0  MISS:          0
L1D PREFETCH  REQUESTED:  176228767  ISSUED:  175289920  USEFUL:    2180247  USELESS:   29174123
L1D TOTAL MSHR MERGED:    1484438
L1D LOAD MSHR MERGED:     704095
L1D RFO MSHR MERGED:     350335
L1D PREFETCH MSHR MERGED:     430008
L1D WRITEBACK MSHR MERGED:          0
L1D TOTAL ACCESSES:  352514828 HITS:  283830678 MISSES:   68684150
L1D LOAD ACCESSES:  176237300 HITS:  142593604 MISSES:   33643696
L1D RFO ACCESSES:   42368332 HITS:   39212850 MISSES:    3155482
L1D PREFETCH ACCESSES:  133909196 HITS:  102024224 MISSES:   31884972
L1D WRITEBACK ACCESSES:          0 HITS:          0 MISSES:          0
L1D RQ ACCESS:  231434083
L1D RQ TO_CACHE:  176228767
L1D RQ MERGED:   55196783
L1D RQ FORWARD:          0
L1D WQ ACCESS:   42638475
L1D WQ TO_CACHE:   42368332
L1D WQ MERGED:     270143
L1D WQ FORWARD:     114755
L1I TOTAL     ACCESS:  109346275  HIT:   77830571  MISS:   31515704
L1I LOAD      ACCESS:  109346275  HIT:   77830571  MISS:   31515704
L1I RFO       ACCESS:          0  HIT:          0  MISS:          0
L1I PREFETCH  ACCESS:          0  HIT:          0  MISS:          0
L1I WRITEBACK ACCESS:          0  HIT:          0  MISS:          0
L1I PREFETCH  REQUESTED:          0  ISSUED:          0  USEFUL:          0  USELESS:          0
L1I TOTAL MSHR MERGED:   30750005
L1I LOAD MSHR MERGED:   30750005
L1I RFO MSHR MERGED:          0
L1I PREFETCH MSHR MERGED:          0
L1I WRITEBACK MSHR MERGED:          0
L1I TOTAL ACCESSES:  140096282 HITS:   77830571 MISSES:   62265711
L1I LOAD ACCESSES:  140096282 HITS:   77830571 MISSES:   62265711
L1I RFO ACCESSES:          0 HITS:          0 MISSES:          0
L1I PREFETCH ACCESSES:          0 HITS:          0 MISSES:          0
L1I WRITEBACK ACCESSES:          0 HITS:          0 MISSES:          0
L1I RQ ACCESS:  500000003
L1I RQ TO_CACHE:  140096282
L1I RQ MERGED:  359903721
L1I RQ FORWARD:          0
L1I WQ ACCESS:          0
L1I WQ TO_CACHE:          0
L1I WQ MERGED:          0
L1I WQ FORWARD:          0
L2C TOTAL     ACCESS:  113687389  HIT:  110687142  MISS:    3000247
L2C LOAD      ACCESS:   64453452  HIT:   63893525  MISS:     559927
L2C RFO       ACCESS:    2803269  HIT:    2194123  MISS:     609146
L2C PREFETCH  ACCESS:   43269795  HIT:   41444897  MISS:    1824898
L2C WRITEBACK ACCESS:    3160873  HIT:    3154597  MISS:       6276
L2C PREFETCH  REQUESTED:   15134662  ISSUED:   14620684  USEFUL:    1700455  USELESS:     124449
L2C TOTAL MSHR MERGED:      13129
L2C LOAD MSHR MERGED:          0
L2C RFO MSHR MERGED:          0
L2C PREFETCH MSHR MERGED:      13129
L2C WRITEBACK MSHR MERGED:          0
L2C TOTAL ACCESSES:  113908506 HITS:  110692982 MISSES:    3215524
L2C LOAD ACCESSES:   64455306 HITS:   63895378 MISSES:     559928
L2C RFO ACCESSES:    2805147 HITS:    2196001 MISSES:     609146
L2C PREFETCH ACCESSES:   43487180 HITS:   41447006 MISSES:    2040174
L2C WRITEBACK ACCESSES:    3160873 HITS:    3154597 MISSES:       6276
L2C RQ ACCESS:   67260454
L2C RQ TO_CACHE:   67256723
L2C RQ MERGED:          0
L2C RQ FORWARD:          0
L2C WQ ACCESS:    3160873
L2C WQ TO_CACHE:    3160873
L2C WQ MERGED:          0
L2C WQ FORWARD:       5840
LLC TOTAL     ACCESS:    3726475  HIT:    1741714  MISS:    1984761
LLC LOAD      ACCESS:     559900  HIT:     492257  MISS:      67643
LLC RFO       ACCESS:     527190  HIT:     238749  MISS:     288441
LLC PREFETCH  ACCESS:    2021222  HIT:     558904  MISS:    1462318
LLC WRITEBACK ACCESS:     618163  HIT:     451804  MISS:     166359
LLC PREFETCH  REQUESTED:          0  ISSUED:          0  USEFUL:      43034  USELESS:    1418362
LLC TOTAL MSHR MERGED:       5162
LLC LOAD MSHR MERGED:          0
LLC RFO MSHR MERGED:          0
LLC PREFETCH MSHR MERGED:       5162
LLC WRITEBACK MSHR MERGED:          0
LLC TOTAL ACCESSES:    3813704 HITS:    1823781 MISSES:    1989923
LLC LOAD ACCESSES:     559927 HITS:     492284 MISSES:      67643
LLC RFO ACCESSES:     609146 HITS:     320705 MISSES:     288441
LLC PREFETCH ACCESSES:    2026468 HITS:     558988 MISSES:    1467480
LLC WRITEBACK ACCESSES:     618163 HITS:     451804 MISSES:     166359
LLC 0 RQ ACCESS:    1169074
LLC 0 RQ TO_CACHE:    1087091
LLC 0 RQ MERGED:          0
LLC 0 RQ FORWARD:          0
LLC WQ ACCESS:     618163
LLC WQ TO_CACHE:     618163
LLC WQ MERGED:          0
LLC WQ FORWARD:      82067
Major fault: 0 Minor fault: 12800
CPU 0 L1D next line prefetcher final stats
CPU 0 L2C PC-based stride prefetcher final stats
All Misses: 2392405
All Hits: 2184979
SD Algo Stats - Switches: 0 SRR-Repls: 85858 BRR-Repls: 0

DRAM Statistics
 CHANNEL 0
 RQ ROW_BUFFER_HIT:     908926  ROW_BUFFER_MISS:     909142
 DBUS_CONGESTED:     981692
 WQ ROW_BUFFER_HIT:      32025  ROW_BUFFER_MISS:     262482  FULL:          0

 AVG_CONGESTED_CYCLE: 13
LOADS RETIRED: 239375970
INSTR RETIRED: 500000000
