
*** ChampSim Multicore Out-of-Order Simulator ***

Warmup Instructions: 100000000
Simulation Instructions: 500000000
Number of CPUs: 1
LLC sets: 2048
LLC ways: 16
Clean RRIP Policies: 1101030111010301 Dirty RRIP Policies: 2111131121111311 PSEL Width: 10 Track Set: 4294967295 PSEL Mask: 1 Demote Mask: 3330141033301410DS Algo: 0Window size: 0
Off-chip DRAM Size: 4096 MB Channels: 1 Width: 64-bit Data Rate: 1600 MT/s

CPU 0 runs /mnt/beegfs/iconst01/spec2017/Gcc.trace.gz
NOT SORTED
TRACE STRING: /mnt/beegfs/iconst01/spec2017/Gcc.trace.gz
SORTED
TRACE STRING: /mnt/beegfs/iconst01/spec2017/Gcc.trace.gz
INITIAL
TRACE STRING: /mnt/beegfs/iconst01/spec2017/Gcc.trace.gz

champsim_seed used: 269

CPU 0 L1D next line prefetcher
CPU 0 L2C IP-based stride prefetcher
Initialize DRRIP state
Assign rand_sets[0]: 454  LLC: 2048
rand_sets[0]: 454
Assign rand_sets[1]: 1662  LLC: 2048
rand_sets[1]: 1662
Assign rand_sets[2]: 1921  LLC: 2048
rand_sets[2]: 1921
Assign rand_sets[3]: 1131  LLC: 2048
rand_sets[3]: 1131
Assign rand_sets[4]: 331  LLC: 2048
rand_sets[4]: 331
Assign rand_sets[5]: 1531  LLC: 2048
rand_sets[5]: 1531
Assign rand_sets[6]: 482  LLC: 2048
rand_sets[6]: 482
Assign rand_sets[7]: 1275  LLC: 2048
rand_sets[7]: 1275
Assign rand_sets[8]: 1876  LLC: 2048
rand_sets[8]: 1876
Assign rand_sets[9]: 2038  LLC: 2048
rand_sets[9]: 2038
Assign rand_sets[10]: 701  LLC: 2048
rand_sets[10]: 701
Assign rand_sets[11]: 479  LLC: 2048
rand_sets[11]: 479
Assign rand_sets[12]: 892  LLC: 2048
rand_sets[12]: 892
Assign rand_sets[13]: 1820  LLC: 2048
rand_sets[13]: 1820
Assign rand_sets[14]: 1505  LLC: 2048
rand_sets[14]: 1505
Assign rand_sets[15]: 1159  LLC: 2048
rand_sets[15]: 1159
Assign rand_sets[16]: 513  LLC: 2048
rand_sets[16]: 513
Assign rand_sets[17]: 703  LLC: 2048
rand_sets[17]: 703
Assign rand_sets[18]: 561  LLC: 2048
rand_sets[18]: 561
Assign rand_sets[19]: 990  LLC: 2048
rand_sets[19]: 990
Assign rand_sets[20]: 342  LLC: 2048
rand_sets[20]: 342
Assign rand_sets[21]: 882  LLC: 2048
rand_sets[21]: 882
Assign rand_sets[22]: 15  LLC: 2048
rand_sets[22]: 15
Assign rand_sets[23]: 71  LLC: 2048
rand_sets[23]: 71
Assign rand_sets[24]: 1127  LLC: 2048
rand_sets[24]: 1127
Assign rand_sets[25]: 1382  LLC: 2048
rand_sets[25]: 1382
Assign rand_sets[26]: 647  LLC: 2048
rand_sets[26]: 647
Assign rand_sets[27]: 857  LLC: 2048
rand_sets[27]: 857
Assign rand_sets[28]: 1450  LLC: 2048
rand_sets[28]: 1450
Assign rand_sets[29]: 1160  LLC: 2048
rand_sets[29]: 1160
Assign rand_sets[30]: 1852  LLC: 2048
rand_sets[30]: 1852
Assign rand_sets[31]: 1881  LLC: 2048
rand_sets[31]: 1881
Assign rand_sets[32]: 1770  LLC: 2048
rand_sets[32]: 1770
Assign rand_sets[33]: 1622  LLC: 2048
rand_sets[33]: 1622
Assign rand_sets[34]: 275  LLC: 2048
rand_sets[34]: 275
Assign rand_sets[35]: 635  LLC: 2048
rand_sets[35]: 635
Assign rand_sets[36]: 466  LLC: 2048
rand_sets[36]: 466
Assign rand_sets[37]: 1413  LLC: 2048
rand_sets[37]: 1413
Assign rand_sets[38]: 417  LLC: 2048
rand_sets[38]: 417
Assign rand_sets[39]: 472  LLC: 2048
rand_sets[39]: 472
Assign rand_sets[40]: 1340  LLC: 2048
rand_sets[40]: 1340
Assign rand_sets[41]: 852  LLC: 2048
rand_sets[41]: 852
Assign rand_sets[42]: 1365  LLC: 2048
rand_sets[42]: 1365
Assign rand_sets[43]: 47  LLC: 2048
rand_sets[43]: 47
Assign rand_sets[44]: 823  LLC: 2048
rand_sets[44]: 823
Assign rand_sets[45]: 686  LLC: 2048
rand_sets[45]: 686
Assign rand_sets[46]: 1637  LLC: 2048
rand_sets[46]: 1637
Assign rand_sets[47]: 1115  LLC: 2048
rand_sets[47]: 1115
Assign rand_sets[48]: 986  LLC: 2048
rand_sets[48]: 986
Assign rand_sets[49]: 258  LLC: 2048
rand_sets[49]: 258
Assign rand_sets[50]: 633  LLC: 2048
rand_sets[50]: 633
Assign rand_sets[51]: 920  LLC: 2048
rand_sets[51]: 920
Assign rand_sets[52]: 204  LLC: 2048
rand_sets[52]: 204
Assign rand_sets[53]: 227  LLC: 2048
rand_sets[53]: 227
Assign rand_sets[54]: 1818  LLC: 2048
rand_sets[54]: 1818
Assign rand_sets[55]: 886  LLC: 2048
rand_sets[55]: 886
Assign rand_sets[56]: 1422  LLC: 2048
rand_sets[56]: 1422
Assign rand_sets[57]: 607  LLC: 2048
rand_sets[57]: 607
Assign rand_sets[58]: 217  LLC: 2048
rand_sets[58]: 217
Assign rand_sets[59]: 1945  LLC: 2048
rand_sets[59]: 1945
Assign rand_sets[60]: 143  LLC: 2048
rand_sets[60]: 143
Assign rand_sets[61]: 1311  LLC: 2048
rand_sets[61]: 1311
Assign rand_sets[62]: 319  LLC: 2048
rand_sets[62]: 319
Assign rand_sets[63]: 1846  LLC: 2048
rand_sets[63]: 1846
 CLEAN-RRIP-POLICY-1: 1-1-0-1-0-3-0-1- CLEAN-RRIP-POLICY-2: 1-1-0-1-0-3-0-1-
 DIRTY-RRIP-POLICY-1: 2-1-1-1-1-3-1-1- DIRTY-RRIP-POLICY-2: 2-1-1-1-1-3-1-1-
 PSEL width: 10
Heartbeat CPU 0 instructions: 10000001 cycles: 7315907 heartbeat IPC: 1.36688 cumulative IPC: 1.36688 (Simulation time: 0 hr 0 min 14 sec) 
Heartbeat CPU 0 instructions: 20000000 cycles: 14307610 heartbeat IPC: 1.43027 cumulative IPC: 1.39786 (Simulation time: 0 hr 0 min 29 sec) 
Heartbeat CPU 0 instructions: 30000001 cycles: 21020840 heartbeat IPC: 1.4896 cumulative IPC: 1.42716 (Simulation time: 0 hr 0 min 45 sec) 
Heartbeat CPU 0 instructions: 40000000 cycles: 27481779 heartbeat IPC: 1.54776 cumulative IPC: 1.45551 (Simulation time: 0 hr 1 min 1 sec) 
Heartbeat CPU 0 instructions: 50000001 cycles: 33583762 heartbeat IPC: 1.63881 cumulative IPC: 1.48881 (Simulation time: 0 hr 1 min 17 sec) 
Heartbeat CPU 0 instructions: 60000000 cycles: 40065073 heartbeat IPC: 1.5429 cumulative IPC: 1.49756 (Simulation time: 0 hr 1 min 33 sec) 
Heartbeat CPU 0 instructions: 70000000 cycles: 47104132 heartbeat IPC: 1.42064 cumulative IPC: 1.48607 (Simulation time: 0 hr 1 min 48 sec) 
Heartbeat CPU 0 instructions: 80000000 cycles: 54194031 heartbeat IPC: 1.41046 cumulative IPC: 1.47618 (Simulation time: 0 hr 2 min 3 sec) 
Heartbeat CPU 0 instructions: 90000003 cycles: 61198651 heartbeat IPC: 1.42763 cumulative IPC: 1.47062 (Simulation time: 0 hr 2 min 18 sec) 
Heartbeat CPU 0 instructions: 100000000 cycles: 68366344 heartbeat IPC: 1.39515 cumulative IPC: 1.46271 (Simulation time: 0 hr 2 min 33 sec) 

Warmup complete CPU 0 instructions: 100000004 cycles: 68366345 (Simulation time: 0 hr 2 min 33 sec) 

Heartbeat CPU 0 instructions: 110000003 cycles: 96103068 heartbeat IPC: 0.360533 cumulative IPC: 0.360533 (Simulation time: 0 hr 3 min 2 sec) 
Heartbeat CPU 0 instructions: 120000000 cycles: 123602786 heartbeat IPC: 0.36364 cumulative IPC: 0.36208 (Simulation time: 0 hr 3 min 31 sec) 
Heartbeat CPU 0 instructions: 130000000 cycles: 148640341 heartbeat IPC: 0.3994 cumulative IPC: 0.37372 (Simulation time: 0 hr 4 min 0 sec) 
Heartbeat CPU 0 instructions: 140000000 cycles: 178214956 heartbeat IPC: 0.338128 cumulative IPC: 0.364137 (Simulation time: 0 hr 4 min 29 sec) 
Heartbeat CPU 0 instructions: 150000000 cycles: 208128476 heartbeat IPC: 0.334297 cumulative IPC: 0.357751 (Simulation time: 0 hr 4 min 58 sec) 
Heartbeat CPU 0 instructions: 160000000 cycles: 235564270 heartbeat IPC: 0.364487 cumulative IPC: 0.358856 (Simulation time: 0 hr 5 min 26 sec) 
Heartbeat CPU 0 instructions: 170000001 cycles: 263660791 heartbeat IPC: 0.355916 cumulative IPC: 0.358433 (Simulation time: 0 hr 5 min 56 sec) 
Heartbeat CPU 0 instructions: 180000000 cycles: 292161172 heartbeat IPC: 0.350872 cumulative IPC: 0.35747 (Simulation time: 0 hr 6 min 26 sec) 
Heartbeat CPU 0 instructions: 190000002 cycles: 320267079 heartbeat IPC: 0.355797 cumulative IPC: 0.357284 (Simulation time: 0 hr 6 min 55 sec) 
Heartbeat CPU 0 instructions: 200000000 cycles: 348651105 heartbeat IPC: 0.352311 cumulative IPC: 0.35678 (Simulation time: 0 hr 7 min 25 sec) 
Heartbeat CPU 0 instructions: 210000002 cycles: 376562471 heartbeat IPC: 0.358277 cumulative IPC: 0.356916 (Simulation time: 0 hr 7 min 54 sec) 
Heartbeat CPU 0 instructions: 220000000 cycles: 405766366 heartbeat IPC: 0.34242 cumulative IPC: 0.355661 (Simulation time: 0 hr 8 min 22 sec) 
Heartbeat CPU 0 instructions: 230000000 cycles: 433371823 heartbeat IPC: 0.362247 cumulative IPC: 0.356159 (Simulation time: 0 hr 8 min 51 sec) 
Heartbeat CPU 0 instructions: 240000000 cycles: 459333243 heartbeat IPC: 0.385187 cumulative IPC: 0.358087 (Simulation time: 0 hr 9 min 18 sec) 
Heartbeat CPU 0 instructions: 250000000 cycles: 489510735 heartbeat IPC: 0.331373 cumulative IPC: 0.356172 (Simulation time: 0 hr 9 min 49 sec) 
Heartbeat CPU 0 instructions: 260000000 cycles: 516652917 heartbeat IPC: 0.36843 cumulative IPC: 0.356915 (Simulation time: 0 hr 10 min 18 sec) 
Heartbeat CPU 0 instructions: 270000003 cycles: 545184196 heartbeat IPC: 0.350493 cumulative IPC: 0.35653 (Simulation time: 0 hr 10 min 48 sec) 
Heartbeat CPU 0 instructions: 280000000 cycles: 573425244 heartbeat IPC: 0.354094 cumulative IPC: 0.356394 (Simulation time: 0 hr 11 min 18 sec) 
Heartbeat CPU 0 instructions: 290000000 cycles: 602381124 heartbeat IPC: 0.345353 cumulative IPC: 0.355795 (Simulation time: 0 hr 11 min 48 sec) 
Heartbeat CPU 0 instructions: 300000000 cycles: 632430480 heartbeat IPC: 0.332786 cumulative IPC: 0.35457 (Simulation time: 0 hr 12 min 17 sec) 
Heartbeat CPU 0 instructions: 310000001 cycles: 661859449 heartbeat IPC: 0.339801 cumulative IPC: 0.353837 (Simulation time: 0 hr 12 min 46 sec) 
Heartbeat CPU 0 instructions: 320000000 cycles: 690170856 heartbeat IPC: 0.353214 cumulative IPC: 0.353809 (Simulation time: 0 hr 13 min 15 sec) 
Heartbeat CPU 0 instructions: 330000000 cycles: 718880135 heartbeat IPC: 0.348319 cumulative IPC: 0.353567 (Simulation time: 0 hr 13 min 43 sec) 
Heartbeat CPU 0 instructions: 340000000 cycles: 748227016 heartbeat IPC: 0.340752 cumulative IPC: 0.353014 (Simulation time: 0 hr 14 min 13 sec) 
Heartbeat CPU 0 instructions: 350000003 cycles: 775307011 heartbeat IPC: 0.369276 cumulative IPC: 0.353636 (Simulation time: 0 hr 14 min 41 sec) 
Heartbeat CPU 0 instructions: 360000000 cycles: 803452084 heartbeat IPC: 0.355302 cumulative IPC: 0.3537 (Simulation time: 0 hr 15 min 9 sec) 
Heartbeat CPU 0 instructions: 370000000 cycles: 831613771 heartbeat IPC: 0.355092 cumulative IPC: 0.353752 (Simulation time: 0 hr 15 min 37 sec) 
Heartbeat CPU 0 instructions: 380000000 cycles: 860115104 heartbeat IPC: 0.350861 cumulative IPC: 0.353648 (Simulation time: 0 hr 16 min 4 sec) 
Heartbeat CPU 0 instructions: 390000001 cycles: 887724429 heartbeat IPC: 0.362197 cumulative IPC: 0.353936 (Simulation time: 0 hr 16 min 32 sec) 
Heartbeat CPU 0 instructions: 400000000 cycles: 916377100 heartbeat IPC: 0.349008 cumulative IPC: 0.353769 (Simulation time: 0 hr 17 min 0 sec) 
Heartbeat CPU 0 instructions: 410000001 cycles: 943648291 heartbeat IPC: 0.366687 cumulative IPC: 0.354172 (Simulation time: 0 hr 17 min 28 sec) 
Heartbeat CPU 0 instructions: 420000000 cycles: 970925834 heartbeat IPC: 0.366602 cumulative IPC: 0.354547 (Simulation time: 0 hr 17 min 55 sec) 
Heartbeat CPU 0 instructions: 430000002 cycles: 998626776 heartbeat IPC: 0.360999 cumulative IPC: 0.354739 (Simulation time: 0 hr 18 min 23 sec) 
Heartbeat CPU 0 instructions: 440000000 cycles: 1028257555 heartbeat IPC: 0.337487 cumulative IPC: 0.354207 (Simulation time: 0 hr 18 min 51 sec) 
Heartbeat CPU 0 instructions: 450000002 cycles: 1057541378 heartbeat IPC: 0.341486 cumulative IPC: 0.35383 (Simulation time: 0 hr 19 min 19 sec) 
Heartbeat CPU 0 instructions: 460000000 cycles: 1085225349 heartbeat IPC: 0.36122 cumulative IPC: 0.354031 (Simulation time: 0 hr 19 min 47 sec) 
Heartbeat CPU 0 instructions: 470000000 cycles: 1112850228 heartbeat IPC: 0.361993 cumulative IPC: 0.354242 (Simulation time: 0 hr 20 min 14 sec) 
Heartbeat CPU 0 instructions: 480000000 cycles: 1140725279 heartbeat IPC: 0.358744 cumulative IPC: 0.354359 (Simulation time: 0 hr 20 min 42 sec) 
Heartbeat CPU 0 instructions: 490000000 cycles: 1168295371 heartbeat IPC: 0.362712 cumulative IPC: 0.354568 (Simulation time: 0 hr 21 min 9 sec) 
Heartbeat CPU 0 instructions: 500000000 cycles: 1196633119 heartbeat IPC: 0.352886 cumulative IPC: 0.354526 (Simulation time: 0 hr 21 min 37 sec) 
Heartbeat CPU 0 instructions: 510000000 cycles: 1231337566 heartbeat IPC: 0.288148 cumulative IPC: 0.352545 (Simulation time: 0 hr 22 min 8 sec) 
Heartbeat CPU 0 instructions: 520000000 cycles: 1259311220 heartbeat IPC: 0.357479 cumulative IPC: 0.352661 (Simulation time: 0 hr 22 min 36 sec) 
Heartbeat CPU 0 instructions: 530000001 cycles: 1288642999 heartbeat IPC: 0.340927 cumulative IPC: 0.352379 (Simulation time: 0 hr 23 min 5 sec) 
Heartbeat CPU 0 instructions: 540000000 cycles: 1316710655 heartbeat IPC: 0.356282 cumulative IPC: 0.352467 (Simulation time: 0 hr 23 min 33 sec) 
Heartbeat CPU 0 instructions: 550000001 cycles: 1345920203 heartbeat IPC: 0.342354 cumulative IPC: 0.352236 (Simulation time: 0 hr 24 min 4 sec) 
Heartbeat CPU 0 instructions: 560000000 cycles: 1371335953 heartbeat IPC: 0.393457 cumulative IPC: 0.35304 (Simulation time: 0 hr 24 min 31 sec) 
Heartbeat CPU 0 instructions: 570000000 cycles: 1400938720 heartbeat IPC: 0.337806 cumulative IPC: 0.352701 (Simulation time: 0 hr 25 min 1 sec) 
Heartbeat CPU 0 instructions: 580000000 cycles: 1428931691 heartbeat IPC: 0.357233 cumulative IPC: 0.352795 (Simulation time: 0 hr 25 min 29 sec) 
Heartbeat CPU 0 instructions: 590000001 cycles: 1453717832 heartbeat IPC: 0.403451 cumulative IPC: 0.353701 (Simulation time: 0 hr 25 min 56 sec) 
Heartbeat CPU 0 instructions: 600000000 cycles: 1479833030 heartbeat IPC: 0.382919 cumulative IPC: 0.354241 (Simulation time: 0 hr 26 min 24 sec) 
Finished CPU 0 instructions: 500000000 cycles: 1411466707 cumulative IPC: 0.354241 (Simulation time: 0 hr 26 min 24 sec) 

CPU 0 Branch Prediction Accuracy: 86.4311% MPKI: 26.2662
Number of Branches: 96788573 Number of Mispredictions: 13133102
Number of LOAD Instructions: 164682285
Number of LOAD Instructions (ROI): 164682285
Number of STORE Instructions: 78194750
Number of STORE Instructions (ROI): 78194750
Total Destination Memory Operands: 83268534
Total Destination Memory Operands (ROI): 83268534
Total Source Memory Operands: 164712438
Total Source Memory Operands (ROI): 164712438
Number of DEPENDED LOADS: 7060285
Number of DEPENDED LOADS (ROI): 7060285
Number of SQ_ADDED: 83268522
Number of SQ_ADDED (ROI): 83268522
Number of LQ_ADDED: 236554438
Number of LQ_ADDED (ROI): 236554438
Number of Instructions read from trace: 600000066

ChampSim completed all CPUs

Region of Interest Statistics

CPU 0 cumulative IPC: 0.354241 instructions: 500000000 cycles: 1411466707
ITLB TOTAL     ACCESS:  100514058  HIT:  100309612  MISS:     204446
ITLB LOAD      ACCESS:  100514058  HIT:  100309612  MISS:     204446
ITLB RFO       ACCESS:          0  HIT:          0  MISS:          0
ITLB PREFETCH  ACCESS:          0  HIT:          0  MISS:          0
ITLB WRITEBACK ACCESS:          0  HIT:          0  MISS:          0
ITLB PREFETCH  REQUESTED:          0  ISSUED:          0  USEFUL:          0  USELESS:          0
ITLB TOTAL MSHR MERGED:     172424
ITLB LOAD MSHR MERGED:     172424
ITLB RFO MSHR MERGED:          0
ITLB PREFETCH MSHR MERGED:          0
ITLB WRITEBACK MSHR MERGED:          0
ITLB TOTAL ACCESSES:  100686482 HITS:  100309612 MISSES:     376870
ITLB LOAD ACCESSES:  100686482 HITS:  100309612 MISSES:     376870
ITLB RFO ACCESSES:          0 HITS:          0 MISSES:          0
ITLB PREFETCH ACCESSES:          0 HITS:          0 MISSES:          0
ITLB WRITEBACK ACCESSES:          0 HITS:          0 MISSES:          0
ITLB RQ ACCESS:  500000057
ITLB RQ TO_CACHE:  100686482
ITLB RQ MERGED:  399313575
ITLB RQ FORWARD:          0
ITLB WQ ACCESS:          0
ITLB WQ TO_CACHE:          0
ITLB WQ MERGED:          0
ITLB WQ FORWARD:          0
DTLB TOTAL     ACCESS:  165336266  HIT:  164701919  MISS:     634347
DTLB LOAD      ACCESS:  106292384  HIT:  105722422  MISS:     569962
DTLB RFO       ACCESS:   59043882  HIT:   58979497  MISS:      64385
DTLB PREFETCH  ACCESS:          0  HIT:          0  MISS:          0
DTLB WRITEBACK ACCESS:          0  HIT:          0  MISS:          0
DTLB PREFETCH  REQUESTED:          0  ISSUED:          0  USEFUL:          0  USELESS:          0
DTLB TOTAL MSHR MERGED:      99908
DTLB LOAD MSHR MERGED:      59451
DTLB RFO MSHR MERGED:      40457
DTLB PREFETCH MSHR MERGED:          0
DTLB WRITEBACK MSHR MERGED:          0
DTLB TOTAL ACCESSES:  165436174 HITS:  164701919 MISSES:     734255
DTLB LOAD ACCESSES:  106351835 HITS:  105722422 MISSES:     629413
DTLB RFO ACCESSES:   59084339 HITS:   58979497 MISSES:     104842
DTLB PREFETCH ACCESSES:          0 HITS:          0 MISSES:          0
DTLB WRITEBACK ACCESSES:          0 HITS:          0 MISSES:          0
DTLB RQ ACCESS:  200310624
DTLB RQ TO_CACHE:  165436174
DTLB RQ MERGED:   34874450
DTLB RQ FORWARD:          0
DTLB WQ ACCESS:          0
DTLB WQ TO_CACHE:          0
DTLB WQ MERGED:          0
DTLB WQ FORWARD:          0
L1D TOTAL     ACCESS:  281848445  HIT:  273939075  MISS:    7909370
L1D LOAD      ACCESS:  110428346  HIT:  107154471  MISS:    3273875
L1D RFO       ACCESS:   67102814  HIT:   66211493  MISS:     891321
L1D PREFETCH  ACCESS:  104317285  HIT:  100573111  MISS:    3744174
L1D WRITEBACK ACCESS:          0  HIT:          0  MISS:          0
L1D PREFETCH  REQUESTED:  110816184  ISSUED:  109116852  USEFUL:    1664947  USELESS:    2079191
L1D TOTAL MSHR MERGED:    2853928
L1D LOAD MSHR MERGED:     481208
L1D RFO MSHR MERGED:    1883784
L1D PREFETCH MSHR MERGED:     488936
L1D WRITEBACK MSHR MERGED:          0
L1D TOTAL ACCESSES:  284729943 HITS:  273966645 MISSES:   10763298
L1D LOAD ACCESSES:  110817750 HITS:  107156037 MISSES:    3661713
L1D RFO ACCESSES:   68974077 HITS:   66211493 MISSES:    2762584
L1D PREFETCH ACCESSES:  104938116 HITS:  100599115 MISSES:    4339001
L1D WRITEBACK ACCESSES:          0 HITS:          0 MISSES:          0
L1D RQ ACCESS:  130758021
L1D RQ TO_CACHE:  110816187
L1D RQ MERGED:   19940268
L1D RQ FORWARD:          0
L1D WQ ACCESS:   69552603
L1D WQ TO_CACHE:   68974078
L1D WQ MERGED:     578525
L1D WQ FORWARD:      27570
L1I TOTAL     ACCESS:  126561578  HIT:  122323026  MISS:    4238552
L1I LOAD      ACCESS:  126561578  HIT:  122323026  MISS:    4238552
L1I RFO       ACCESS:          0  HIT:          0  MISS:          0
L1I PREFETCH  ACCESS:          0  HIT:          0  MISS:          0
L1I WRITEBACK ACCESS:          0  HIT:          0  MISS:          0
L1I PREFETCH  REQUESTED:          0  ISSUED:          0  USEFUL:          0  USELESS:          0
L1I TOTAL MSHR MERGED:    1834708
L1I LOAD MSHR MERGED:    1834708
L1I RFO MSHR MERGED:          0
L1I PREFETCH MSHR MERGED:          0
L1I WRITEBACK MSHR MERGED:          0
L1I TOTAL ACCESSES:  128396289 HITS:  122323026 MISSES:    6073263
L1I LOAD ACCESSES:  128396289 HITS:  122323026 MISSES:    6073263
L1I RFO ACCESSES:          0 HITS:          0 MISSES:          0
L1I PREFETCH ACCESSES:          0 HITS:          0 MISSES:          0
L1I WRITEBACK ACCESSES:          0 HITS:          0 MISSES:          0
L1I RQ ACCESS:  500000057
L1I RQ TO_CACHE:  128396289
L1I RQ MERGED:  371603768
L1I RQ FORWARD:          0
L1I WQ ACCESS:          0
L1I WQ TO_CACHE:          0
L1I WQ MERGED:          0
L1I WQ FORWARD:          0
L2C TOTAL     ACCESS:   14904790  HIT:   11158401  MISS:    3746389
L2C LOAD      ACCESS:    7418849  HIT:    5098729  MISS:    2320120
L2C RFO       ACCESS:     878699  HIT:     409920  MISS:     468779
L2C PREFETCH  ACCESS:    4567995  HIT:    3627762  MISS:     940233
L2C WRITEBACK ACCESS:    2039247  HIT:    2021990  MISS:      17257
L2C PREFETCH  REQUESTED:     842720  ISSUED:     842720  USEFUL:     203229  USELESS:     736710
L2C TOTAL MSHR MERGED:       7477
L2C LOAD MSHR MERGED:        945
L2C RFO MSHR MERGED:          0
L2C PREFETCH MSHR MERGED:       6532
L2C WRITEBACK MSHR MERGED:          0
L2C TOTAL ACCESSES:   14913186 HITS:   11158856 MISSES:    3754330
L2C LOAD ACCESSES:    7419057 HITS:    5098937 MISSES:    2320120
L2C RFO ACCESSES:     878800 HITS:     410021 MISSES:     468779
L2C PREFETCH ACCESSES:    4576082 HITS:    3627908 MISSES:     948174
L2C WRITEBACK ACCESSES:    2039247 HITS:    2021990 MISSES:      17257
L2C RQ ACCESS:    8297860
L2C RQ TO_CACHE:    8297551
L2C RQ MERGED:          0
L2C RQ FORWARD:          0
L2C WQ ACCESS:    2039247
L2C WQ TO_CACHE:    2039247
L2C WQ MERGED:          0
L2C WQ FORWARD:        455
LLC TOTAL     ACCESS:    4609711  HIT:    3981648  MISS:     628063
LLC LOAD      ACCESS:    2319162  HIT:    2055277  MISS:     263885
LLC RFO       ACCESS:     468768  HIT:     372328  MISS:      96440
LLC PREFETCH  ACCESS:     941516  HIT:     718915  MISS:     222601
LLC WRITEBACK ACCESS:     880265  HIT:     835128  MISS:      45137
LLC PREFETCH  REQUESTED:          0  ISSUED:          0  USEFUL:      40611  USELESS:     182565
LLC TOTAL MSHR MERGED:        101
LLC LOAD MSHR MERGED:         33
LLC RFO MSHR MERGED:          0
LLC PREFETCH MSHR MERGED:         68
LLC WRITEBACK MSHR MERGED:          0
LLC TOTAL ACCESSES:    4609846 HITS:    3981682 MISSES:     628164
LLC LOAD ACCESSES:    2319175 HITS:    2055290 MISSES:     263885
LLC RFO ACCESSES:     468779 HITS:     372339 MISSES:      96440
LLC PREFETCH ACCESSES:     941627 HITS:     718925 MISSES:     222702
LLC WRITEBACK ACCESSES:     880265 HITS:     835128 MISSES:      45137
LLC 0 RQ ACCESS:    2787954
LLC 0 RQ TO_CACHE:    2787930
LLC 0 RQ MERGED:          0
LLC 0 RQ FORWARD:          0
LLC WQ ACCESS:     880265
LLC WQ TO_CACHE:     880265
LLC WQ MERGED:          0
LLC WQ FORWARD:         34
Major fault: 0 Minor fault: 12862
CPU 0 L1D next line prefetcher final stats
CPU 0 L2C PC-based stride prefetcher final stats
All Misses: 747064
All Hits: 4679653
SD Algo Stats - Switches: 0 SRR-Repls: 310476 BRR-Repls: 0

DRAM Statistics
 CHANNEL 0
 RQ ROW_BUFFER_HIT:     132014  ROW_BUFFER_MISS:     448883
 DBUS_CONGESTED:     403365
 WQ ROW_BUFFER_HIT:      22341  ROW_BUFFER_MISS:     218188  FULL:          0

 AVG_CONGESTED_CYCLE: 13
LOADS RETIRED: 136549171
INSTR RETIRED: 500000000
