
*** ChampSim Multicore Out-of-Order Simulator ***

Warmup Instructions: 100000000
Simulation Instructions: 500000000
Number of CPUs: 1
LLC sets: 2048
LLC ways: 16
Clean RRIP Policies: 2101131321011313 Dirty RRIP Policies: 2121032321210323 PSEL Width: 10 Track Set: 4294967295 PSEL Mask: 1 Demote Mask: 2113012421130124DS Algo: 0Window size: 0
Off-chip DRAM Size: 4096 MB Channels: 1 Width: 64-bit Data Rate: 1600 MT/s

CPU 0 runs /mnt/beegfs/iconst01/spec2017/Xalancbmk.trace.gz
NOT SORTED
TRACE STRING: /mnt/beegfs/iconst01/spec2017/Xalancbmk.trace.gz
SORTED
TRACE STRING: /mnt/beegfs/iconst01/spec2017/Xalancbmk.trace.gz
INITIAL
TRACE STRING: /mnt/beegfs/iconst01/spec2017/Xalancbmk.trace.gz

champsim_seed used: 913

CPU 0 L1D next line prefetcher
CPU 0 L2C IP-based stride prefetcher
Initialize DRRIP state
Assign rand_sets[0]: 454  LLC: 2048
rand_sets[0]: 454
Assign rand_sets[1]: 1662  LLC: 2048
rand_sets[1]: 1662
Assign rand_sets[2]: 1921  LLC: 2048
rand_sets[2]: 1921
Assign rand_sets[3]: 1131  LLC: 2048
rand_sets[3]: 1131
Assign rand_sets[4]: 331  LLC: 2048
rand_sets[4]: 331
Assign rand_sets[5]: 1531  LLC: 2048
rand_sets[5]: 1531
Assign rand_sets[6]: 482  LLC: 2048
rand_sets[6]: 482
Assign rand_sets[7]: 1275  LLC: 2048
rand_sets[7]: 1275
Assign rand_sets[8]: 1876  LLC: 2048
rand_sets[8]: 1876
Assign rand_sets[9]: 2038  LLC: 2048
rand_sets[9]: 2038
Assign rand_sets[10]: 701  LLC: 2048
rand_sets[10]: 701
Assign rand_sets[11]: 479  LLC: 2048
rand_sets[11]: 479
Assign rand_sets[12]: 892  LLC: 2048
rand_sets[12]: 892
Assign rand_sets[13]: 1820  LLC: 2048
rand_sets[13]: 1820
Assign rand_sets[14]: 1505  LLC: 2048
rand_sets[14]: 1505
Assign rand_sets[15]: 1159  LLC: 2048
rand_sets[15]: 1159
Assign rand_sets[16]: 513  LLC: 2048
rand_sets[16]: 513
Assign rand_sets[17]: 703  LLC: 2048
rand_sets[17]: 703
Assign rand_sets[18]: 561  LLC: 2048
rand_sets[18]: 561
Assign rand_sets[19]: 990  LLC: 2048
rand_sets[19]: 990
Assign rand_sets[20]: 342  LLC: 2048
rand_sets[20]: 342
Assign rand_sets[21]: 882  LLC: 2048
rand_sets[21]: 882
Assign rand_sets[22]: 15  LLC: 2048
rand_sets[22]: 15
Assign rand_sets[23]: 71  LLC: 2048
rand_sets[23]: 71
Assign rand_sets[24]: 1127  LLC: 2048
rand_sets[24]: 1127
Assign rand_sets[25]: 1382  LLC: 2048
rand_sets[25]: 1382
Assign rand_sets[26]: 647  LLC: 2048
rand_sets[26]: 647
Assign rand_sets[27]: 857  LLC: 2048
rand_sets[27]: 857
Assign rand_sets[28]: 1450  LLC: 2048
rand_sets[28]: 1450
Assign rand_sets[29]: 1160  LLC: 2048
rand_sets[29]: 1160
Assign rand_sets[30]: 1852  LLC: 2048
rand_sets[30]: 1852
Assign rand_sets[31]: 1881  LLC: 2048
rand_sets[31]: 1881
Assign rand_sets[32]: 1770  LLC: 2048
rand_sets[32]: 1770
Assign rand_sets[33]: 1622  LLC: 2048
rand_sets[33]: 1622
Assign rand_sets[34]: 275  LLC: 2048
rand_sets[34]: 275
Assign rand_sets[35]: 635  LLC: 2048
rand_sets[35]: 635
Assign rand_sets[36]: 466  LLC: 2048
rand_sets[36]: 466
Assign rand_sets[37]: 1413  LLC: 2048
rand_sets[37]: 1413
Assign rand_sets[38]: 417  LLC: 2048
rand_sets[38]: 417
Assign rand_sets[39]: 472  LLC: 2048
rand_sets[39]: 472
Assign rand_sets[40]: 1340  LLC: 2048
rand_sets[40]: 1340
Assign rand_sets[41]: 852  LLC: 2048
rand_sets[41]: 852
Assign rand_sets[42]: 1365  LLC: 2048
rand_sets[42]: 1365
Assign rand_sets[43]: 47  LLC: 2048
rand_sets[43]: 47
Assign rand_sets[44]: 823  LLC: 2048
rand_sets[44]: 823
Assign rand_sets[45]: 686  LLC: 2048
rand_sets[45]: 686
Assign rand_sets[46]: 1637  LLC: 2048
rand_sets[46]: 1637
Assign rand_sets[47]: 1115  LLC: 2048
rand_sets[47]: 1115
Assign rand_sets[48]: 986  LLC: 2048
rand_sets[48]: 986
Assign rand_sets[49]: 258  LLC: 2048
rand_sets[49]: 258
Assign rand_sets[50]: 633  LLC: 2048
rand_sets[50]: 633
Assign rand_sets[51]: 920  LLC: 2048
rand_sets[51]: 920
Assign rand_sets[52]: 204  LLC: 2048
rand_sets[52]: 204
Assign rand_sets[53]: 227  LLC: 2048
rand_sets[53]: 227
Assign rand_sets[54]: 1818  LLC: 2048
rand_sets[54]: 1818
Assign rand_sets[55]: 886  LLC: 2048
rand_sets[55]: 886
Assign rand_sets[56]: 1422  LLC: 2048
rand_sets[56]: 1422
Assign rand_sets[57]: 607  LLC: 2048
rand_sets[57]: 607
Assign rand_sets[58]: 217  LLC: 2048
rand_sets[58]: 217
Assign rand_sets[59]: 1945  LLC: 2048
rand_sets[59]: 1945
Assign rand_sets[60]: 143  LLC: 2048
rand_sets[60]: 143
Assign rand_sets[61]: 1311  LLC: 2048
rand_sets[61]: 1311
Assign rand_sets[62]: 319  LLC: 2048
rand_sets[62]: 319
Assign rand_sets[63]: 1846  LLC: 2048
rand_sets[63]: 1846
 CLEAN-RRIP-POLICY-1: 2-1-0-1-1-3-1-3- CLEAN-RRIP-POLICY-2: 2-1-0-1-1-3-1-3-
 DIRTY-RRIP-POLICY-1: 2-1-2-1-0-3-2-3- DIRTY-RRIP-POLICY-2: 2-1-2-1-0-3-2-3-
 PSEL width: 10
Heartbeat CPU 0 instructions: 10000003 cycles: 4614590 heartbeat IPC: 2.16704 cumulative IPC: 2.16704 (Simulation time: 0 hr 0 min 15 sec) 
Heartbeat CPU 0 instructions: 20000000 cycles: 9066848 heartbeat IPC: 2.24605 cumulative IPC: 2.20584 (Simulation time: 0 hr 0 min 29 sec) 
Heartbeat CPU 0 instructions: 30000000 cycles: 13528610 heartbeat IPC: 2.24127 cumulative IPC: 2.21752 (Simulation time: 0 hr 0 min 44 sec) 
Heartbeat CPU 0 instructions: 40000000 cycles: 18187491 heartbeat IPC: 2.14644 cumulative IPC: 2.19931 (Simulation time: 0 hr 0 min 59 sec) 
Heartbeat CPU 0 instructions: 50000002 cycles: 22655135 heartbeat IPC: 2.23832 cumulative IPC: 2.20701 (Simulation time: 0 hr 1 min 14 sec) 
Heartbeat CPU 0 instructions: 60000000 cycles: 27349086 heartbeat IPC: 2.1304 cumulative IPC: 2.19386 (Simulation time: 0 hr 1 min 30 sec) 
Heartbeat CPU 0 instructions: 70000003 cycles: 31801879 heartbeat IPC: 2.24578 cumulative IPC: 2.20113 (Simulation time: 0 hr 1 min 44 sec) 
Heartbeat CPU 0 instructions: 80000000 cycles: 36276548 heartbeat IPC: 2.2348 cumulative IPC: 2.20528 (Simulation time: 0 hr 1 min 59 sec) 
Heartbeat CPU 0 instructions: 90000002 cycles: 40782165 heartbeat IPC: 2.21945 cumulative IPC: 2.20685 (Simulation time: 0 hr 2 min 13 sec) 
Heartbeat CPU 0 instructions: 100000000 cycles: 45303309 heartbeat IPC: 2.21183 cumulative IPC: 2.20734 (Simulation time: 0 hr 2 min 28 sec) 

Warmup complete CPU 0 instructions: 100000003 cycles: 45303310 (Simulation time: 0 hr 2 min 28 sec) 

Heartbeat CPU 0 instructions: 110000000 cycles: 74696456 heartbeat IPC: 0.340215 cumulative IPC: 0.340215 (Simulation time: 0 hr 3 min 1 sec) 
Heartbeat CPU 0 instructions: 120000000 cycles: 108678608 heartbeat IPC: 0.294272 cumulative IPC: 0.31558 (Simulation time: 0 hr 3 min 37 sec) 
Heartbeat CPU 0 instructions: 130000000 cycles: 134333675 heartbeat IPC: 0.389787 cumulative IPC: 0.336964 (Simulation time: 0 hr 4 min 7 sec) 
Heartbeat CPU 0 instructions: 140000000 cycles: 158623203 heartbeat IPC: 0.4117 cumulative IPC: 0.352983 (Simulation time: 0 hr 4 min 37 sec) 
Heartbeat CPU 0 instructions: 150000000 cycles: 184824363 heartbeat IPC: 0.381662 cumulative IPC: 0.358369 (Simulation time: 0 hr 5 min 7 sec) 
Heartbeat CPU 0 instructions: 160000000 cycles: 211897197 heartbeat IPC: 0.369374 cumulative IPC: 0.360157 (Simulation time: 0 hr 5 min 39 sec) 
Heartbeat CPU 0 instructions: 170000002 cycles: 235356128 heartbeat IPC: 0.426277 cumulative IPC: 0.368319 (Simulation time: 0 hr 6 min 7 sec) 
Heartbeat CPU 0 instructions: 180000000 cycles: 259322671 heartbeat IPC: 0.417248 cumulative IPC: 0.373798 (Simulation time: 0 hr 6 min 37 sec) 
Heartbeat CPU 0 instructions: 190000000 cycles: 280315129 heartbeat IPC: 0.476362 cumulative IPC: 0.382959 (Simulation time: 0 hr 7 min 4 sec) 
Heartbeat CPU 0 instructions: 200000000 cycles: 302924193 heartbeat IPC: 0.4423 cumulative IPC: 0.388167 (Simulation time: 0 hr 7 min 32 sec) 
Heartbeat CPU 0 instructions: 210000001 cycles: 331334282 heartbeat IPC: 0.351988 cumulative IPC: 0.384574 (Simulation time: 0 hr 8 min 4 sec) 
Heartbeat CPU 0 instructions: 220000000 cycles: 359425331 heartbeat IPC: 0.355985 cumulative IPC: 0.382017 (Simulation time: 0 hr 8 min 36 sec) 
Heartbeat CPU 0 instructions: 230000000 cycles: 383982678 heartbeat IPC: 0.40721 cumulative IPC: 0.383844 (Simulation time: 0 hr 9 min 6 sec) 
Heartbeat CPU 0 instructions: 240000000 cycles: 412006961 heartbeat IPC: 0.356833 cumulative IPC: 0.38178 (Simulation time: 0 hr 9 min 38 sec) 
Heartbeat CPU 0 instructions: 250000001 cycles: 439837297 heartbeat IPC: 0.35932 cumulative IPC: 0.380195 (Simulation time: 0 hr 10 min 10 sec) 
Heartbeat CPU 0 instructions: 260000000 cycles: 462276054 heartbeat IPC: 0.445657 cumulative IPC: 0.383718 (Simulation time: 0 hr 10 min 38 sec) 
Heartbeat CPU 0 instructions: 270000000 cycles: 485451862 heartbeat IPC: 0.431484 cumulative IPC: 0.386233 (Simulation time: 0 hr 11 min 7 sec) 
Heartbeat CPU 0 instructions: 280000000 cycles: 516741635 heartbeat IPC: 0.319593 cumulative IPC: 0.38181 (Simulation time: 0 hr 11 min 41 sec) 
Heartbeat CPU 0 instructions: 290000000 cycles: 539342121 heartbeat IPC: 0.442468 cumulative IPC: 0.384585 (Simulation time: 0 hr 12 min 9 sec) 
Heartbeat CPU 0 instructions: 300000000 cycles: 561527362 heartbeat IPC: 0.45075 cumulative IPC: 0.387429 (Simulation time: 0 hr 12 min 36 sec) 
Heartbeat CPU 0 instructions: 310000000 cycles: 582698801 heartbeat IPC: 0.472334 cumulative IPC: 0.390774 (Simulation time: 0 hr 13 min 3 sec) 
Heartbeat CPU 0 instructions: 320000000 cycles: 615787521 heartbeat IPC: 0.302218 cumulative IPC: 0.385637 (Simulation time: 0 hr 13 min 38 sec) 
Heartbeat CPU 0 instructions: 330000001 cycles: 636883448 heartbeat IPC: 0.474025 cumulative IPC: 0.388789 (Simulation time: 0 hr 14 min 5 sec) 
Heartbeat CPU 0 instructions: 340000000 cycles: 658259633 heartbeat IPC: 0.46781 cumulative IPC: 0.391545 (Simulation time: 0 hr 14 min 31 sec) 
Heartbeat CPU 0 instructions: 350000000 cycles: 686200362 heartbeat IPC: 0.3579 cumulative IPC: 0.390078 (Simulation time: 0 hr 15 min 3 sec) 
Heartbeat CPU 0 instructions: 360000000 cycles: 710004591 heartbeat IPC: 0.420093 cumulative IPC: 0.391153 (Simulation time: 0 hr 15 min 31 sec) 
Heartbeat CPU 0 instructions: 370000001 cycles: 737281751 heartbeat IPC: 0.366607 cumulative IPC: 0.390186 (Simulation time: 0 hr 16 min 2 sec) 
Heartbeat CPU 0 instructions: 380000000 cycles: 762549068 heartbeat IPC: 0.395768 cumulative IPC: 0.390382 (Simulation time: 0 hr 16 min 31 sec) 
Heartbeat CPU 0 instructions: 390000000 cycles: 782983497 heartbeat IPC: 0.48937 cumulative IPC: 0.393124 (Simulation time: 0 hr 16 min 57 sec) 
Heartbeat CPU 0 instructions: 400000000 cycles: 804877511 heartbeat IPC: 0.456746 cumulative IPC: 0.394958 (Simulation time: 0 hr 17 min 24 sec) 
Heartbeat CPU 0 instructions: 410000001 cycles: 833616513 heartbeat IPC: 0.347959 cumulative IPC: 0.393245 (Simulation time: 0 hr 17 min 56 sec) 
Heartbeat CPU 0 instructions: 420000000 cycles: 859864790 heartbeat IPC: 0.380977 cumulative IPC: 0.392849 (Simulation time: 0 hr 18 min 26 sec) 
Heartbeat CPU 0 instructions: 430000002 cycles: 882512627 heartbeat IPC: 0.441543 cumulative IPC: 0.394167 (Simulation time: 0 hr 18 min 53 sec) 
Heartbeat CPU 0 instructions: 440000000 cycles: 904451522 heartbeat IPC: 0.455811 cumulative IPC: 0.395741 (Simulation time: 0 hr 19 min 20 sec) 
Heartbeat CPU 0 instructions: 450000002 cycles: 933716110 heartbeat IPC: 0.34171 cumulative IPC: 0.393961 (Simulation time: 0 hr 19 min 52 sec) 
Heartbeat CPU 0 instructions: 460000000 cycles: 963120862 heartbeat IPC: 0.340081 cumulative IPC: 0.392235 (Simulation time: 0 hr 20 min 23 sec) 
Heartbeat CPU 0 instructions: 470000002 cycles: 991475073 heartbeat IPC: 0.352681 cumulative IPC: 0.39105 (Simulation time: 0 hr 20 min 55 sec) 
Heartbeat CPU 0 instructions: 480000000 cycles: 1017310676 heartbeat IPC: 0.387063 cumulative IPC: 0.390944 (Simulation time: 0 hr 21 min 24 sec) 
Heartbeat CPU 0 instructions: 490000000 cycles: 1039804947 heartbeat IPC: 0.444558 cumulative IPC: 0.392156 (Simulation time: 0 hr 21 min 51 sec) 
Heartbeat CPU 0 instructions: 500000000 cycles: 1066994222 heartbeat IPC: 0.367792 cumulative IPC: 0.391508 (Simulation time: 0 hr 22 min 22 sec) 
Heartbeat CPU 0 instructions: 510000000 cycles: 1094087730 heartbeat IPC: 0.369092 cumulative IPC: 0.390929 (Simulation time: 0 hr 22 min 52 sec) 
Heartbeat CPU 0 instructions: 520000000 cycles: 1116961386 heartbeat IPC: 0.437184 cumulative IPC: 0.391916 (Simulation time: 0 hr 23 min 19 sec) 
Heartbeat CPU 0 instructions: 530000003 cycles: 1144563812 heartbeat IPC: 0.362287 cumulative IPC: 0.391172 (Simulation time: 0 hr 23 min 50 sec) 
Heartbeat CPU 0 instructions: 540000000 cycles: 1169399388 heartbeat IPC: 0.402648 cumulative IPC: 0.391426 (Simulation time: 0 hr 24 min 19 sec) 
Heartbeat CPU 0 instructions: 550000000 cycles: 1196869381 heartbeat IPC: 0.364034 cumulative IPC: 0.390772 (Simulation time: 0 hr 24 min 50 sec) 
Heartbeat CPU 0 instructions: 560000000 cycles: 1221290016 heartbeat IPC: 0.40949 cumulative IPC: 0.391161 (Simulation time: 0 hr 25 min 18 sec) 
Heartbeat CPU 0 instructions: 570000002 cycles: 1246849258 heartbeat IPC: 0.391248 cumulative IPC: 0.391163 (Simulation time: 0 hr 25 min 48 sec) 
Heartbeat CPU 0 instructions: 580000000 cycles: 1269271478 heartbeat IPC: 0.445986 cumulative IPC: 0.392167 (Simulation time: 0 hr 26 min 15 sec) 
Heartbeat CPU 0 instructions: 590000001 cycles: 1294936080 heartbeat IPC: 0.389642 cumulative IPC: 0.392115 (Simulation time: 0 hr 26 min 44 sec) 
Heartbeat CPU 0 instructions: 600000000 cycles: 1315593777 heartbeat IPC: 0.484081 cumulative IPC: 0.393611 (Simulation time: 0 hr 27 min 10 sec) 
Finished CPU 0 instructions: 500000000 cycles: 1270290488 cumulative IPC: 0.393611 (Simulation time: 0 hr 27 min 10 sec) 

CPU 0 Branch Prediction Accuracy: 99.5434% MPKI: 1.33026
Number of Branches: 145676990 Number of Mispredictions: 665128
Number of LOAD Instructions: 188863207
Number of LOAD Instructions (ROI): 188863207
Number of STORE Instructions: 7332002
Number of STORE Instructions (ROI): 7332002
Total Destination Memory Operands: 10029285
Total Destination Memory Operands (ROI): 10029285
Total Source Memory Operands: 188863207
Total Source Memory Operands (ROI): 188863207
Number of DEPENDED LOADS: 299391
Number of DEPENDED LOADS (ROI): 299391
Number of SQ_ADDED: 10029285
Number of SQ_ADDED (ROI): 10029285
Number of LQ_ADDED: 201300310
Number of LQ_ADDED (ROI): 201300310
Number of Instructions read from trace: 600000010

ChampSim completed all CPUs

Region of Interest Statistics

CPU 0 cumulative IPC: 0.393611 instructions: 500000000 cycles: 1270290488
ITLB TOTAL     ACCESS:  146285413  HIT:  146245814  MISS:      39599
ITLB LOAD      ACCESS:  146285413  HIT:  146245814  MISS:      39599
ITLB RFO       ACCESS:          0  HIT:          0  MISS:          0
ITLB PREFETCH  ACCESS:          0  HIT:          0  MISS:          0
ITLB WRITEBACK ACCESS:          0  HIT:          0  MISS:          0
ITLB PREFETCH  REQUESTED:          0  ISSUED:          0  USEFUL:          0  USELESS:          0
ITLB TOTAL MSHR MERGED:      57478
ITLB LOAD MSHR MERGED:      57478
ITLB RFO MSHR MERGED:          0
ITLB PREFETCH MSHR MERGED:          0
ITLB WRITEBACK MSHR MERGED:          0
ITLB TOTAL ACCESSES:  146342891 HITS:  146245814 MISSES:      97077
ITLB LOAD ACCESSES:  146342891 HITS:  146245814 MISSES:      97077
ITLB RFO ACCESSES:          0 HITS:          0 MISSES:          0
ITLB PREFETCH ACCESSES:          0 HITS:          0 MISSES:          0
ITLB WRITEBACK ACCESSES:          0 HITS:          0 MISSES:          0
ITLB RQ ACCESS:  499999754
ITLB RQ TO_CACHE:  146342891
ITLB RQ MERGED:  353656863
ITLB RQ FORWARD:          0
ITLB WQ ACCESS:          0
ITLB WQ TO_CACHE:          0
ITLB WQ MERGED:          0
ITLB WQ FORWARD:          0
DTLB TOTAL     ACCESS:  135364773  HIT:  134196436  MISS:    1168337
DTLB LOAD      ACCESS:  127321157  HIT:  126161899  MISS:    1159258
DTLB RFO       ACCESS:    8043616  HIT:    8034537  MISS:       9079
DTLB PREFETCH  ACCESS:          0  HIT:          0  MISS:          0
DTLB WRITEBACK ACCESS:          0  HIT:          0  MISS:          0
DTLB PREFETCH  REQUESTED:          0  ISSUED:          0  USEFUL:          0  USELESS:          0
DTLB TOTAL MSHR MERGED:     560981
DTLB LOAD MSHR MERGED:     556772
DTLB RFO MSHR MERGED:       4209
DTLB PREFETCH MSHR MERGED:          0
DTLB WRITEBACK MSHR MERGED:          0
DTLB TOTAL ACCESSES:  135925754 HITS:  134196436 MISSES:    1729318
DTLB LOAD ACCESSES:  127877929 HITS:  126161899 MISSES:    1716030
DTLB RFO ACCESSES:    8047825 HITS:    8034537 MISSES:      13288
DTLB PREFETCH ACCESSES:          0 HITS:          0 MISSES:          0
DTLB WRITEBACK ACCESSES:          0 HITS:          0 MISSES:          0
DTLB RQ ACCESS:  165755028
DTLB RQ TO_CACHE:  135925754
DTLB RQ MERGED:   29829274
DTLB RQ FORWARD:          0
DTLB WQ ACCESS:          0
DTLB WQ TO_CACHE:          0
DTLB WQ MERGED:          0
DTLB WQ FORWARD:          0
L1D TOTAL     ACCESS:  159791041  HIT:  142475258  MISS:   17315783
L1D LOAD      ACCESS:   90580133  HIT:   80119589  MISS:   10460544
L1D RFO       ACCESS:    8499967  HIT:    8412854  MISS:      87113
L1D PREFETCH  ACCESS:   60710941  HIT:   53942815  MISS:    6768126
L1D WRITEBACK ACCESS:          0  HIT:          0  MISS:          0
L1D PREFETCH  REQUESTED:   93965469  ISSUED:   93096851  USEFUL:    2686662  USELESS:    4081538
L1D TOTAL MSHR MERGED:   12763389
L1D LOAD MSHR MERGED:    6147368
L1D RFO MSHR MERGED:     124816
L1D PREFETCH MSHR MERGED:    6491205
L1D WRITEBACK MSHR MERGED:          0
L1D TOTAL ACCESSES:  172554633 HITS:  142475460 MISSES:   30079173
L1D LOAD ACCESSES:   93965473 HITS:   80119593 MISSES:   13845880
L1D RFO ACCESSES:    8622992 HITS:    8412854 MISSES:     210138
L1D PREFETCH ACCESSES:   69966168 HITS:   53943013 MISSES:   16023155
L1D WRITEBACK ACCESSES:          0 HITS:          0 MISSES:          0
L1D RQ ACCESS:  157115822
L1D RQ TO_CACHE:   93965469
L1D RQ MERGED:   63150349
L1D RQ FORWARD:          0
L1D WQ ACCESS:    8639208
L1D WQ TO_CACHE:    8622992
L1D WQ MERGED:      16216
L1D WQ FORWARD:        202
L1I TOTAL     ACCESS:  179145808  HIT:  178482354  MISS:     663454
L1I LOAD      ACCESS:  179145808  HIT:  178482354  MISS:     663454
L1I RFO       ACCESS:          0  HIT:          0  MISS:          0
L1I PREFETCH  ACCESS:          0  HIT:          0  MISS:          0
L1I WRITEBACK ACCESS:          0  HIT:          0  MISS:          0
L1I PREFETCH  REQUESTED:          0  ISSUED:          0  USEFUL:          0  USELESS:          0
L1I TOTAL MSHR MERGED:     629323
L1I LOAD MSHR MERGED:     629323
L1I RFO MSHR MERGED:          0
L1I PREFETCH MSHR MERGED:          0
L1I WRITEBACK MSHR MERGED:          0
L1I TOTAL ACCESSES:  179775131 HITS:  178482354 MISSES:    1292777
L1I LOAD ACCESSES:  179775131 HITS:  178482354 MISSES:    1292777
L1I RFO ACCESSES:          0 HITS:          0 MISSES:          0
L1I PREFETCH ACCESSES:          0 HITS:          0 MISSES:          0
L1I WRITEBACK ACCESSES:          0 HITS:          0 MISSES:          0
L1I RQ ACCESS:  499999757
L1I RQ TO_CACHE:  179775131
L1I RQ MERGED:  320224626
L1I RQ FORWARD:          0
L1I WQ ACCESS:          0
L1I WQ TO_CACHE:          0
L1I WQ MERGED:          0
L1I WQ FORWARD:          0
L2C TOTAL     ACCESS:   19264138  HIT:    2048489  MISS:   17215649
L2C LOAD      ACCESS:    8361868  HIT:     947858  MISS:    7414010
L2C RFO       ACCESS:      85298  HIT:      53748  MISS:      31550
L2C PREFETCH  ACCESS:   10531966  HIT:     764687  MISS:    9767279
L2C WRITEBACK ACCESS:     285006  HIT:     282196  MISS:       2810
L2C PREFETCH  REQUESTED:    1002045  ISSUED:    1002045  USEFUL:     271799  USELESS:    9494568
L2C TOTAL MSHR MERGED:        478
L2C LOAD MSHR MERGED:         83
L2C RFO MSHR MERGED:          1
L2C PREFETCH MSHR MERGED:        394
L2C WRITEBACK MSHR MERGED:          0
L2C TOTAL ACCESSES:   19265021 HITS:    2048674 MISSES:   17216347
L2C LOAD ACCESSES:    8361966 HITS:     947956 MISSES:    7414010
L2C RFO ACCESSES:      85322 HITS:      53772 MISSES:      31550
L2C PREFETCH ACCESSES:   10532727 HITS:     764750 MISSES:    9767977
L2C WRITEBACK ACCESSES:     285006 HITS:     282196 MISSES:       2810
L2C RQ ACCESS:    8447288
L2C RQ TO_CACHE:    8447166
L2C RQ MERGED:          0
L2C RQ FORWARD:          0
L2C WQ ACCESS:     285006
L2C WQ TO_CACHE:     285006
L2C WQ MERGED:          0
L2C WQ FORWARD:        185
LLC TOTAL     ACCESS:   17319110  HIT:    4442937  MISS:   12876173
LLC LOAD      ACCESS:    7413927  HIT:     517108  MISS:    6896819
LLC RFO       ACCESS:      31549  HIT:      10318  MISS:      21231
LLC PREFETCH  ACCESS:    9767572  HIT:    3847310  MISS:    5920262
LLC WRITEBACK ACCESS:     106062  HIT:      68201  MISS:      37861
LLC PREFETCH  REQUESTED:          0  ISSUED:          0  USEFUL:     203235  USELESS:    5715684
LLC TOTAL MSHR MERGED:          8
LLC LOAD MSHR MERGED:          0
LLC RFO MSHR MERGED:          0
LLC PREFETCH MSHR MERGED:          8
LLC WRITEBACK MSHR MERGED:          0
LLC TOTAL ACCESSES:   17319119 HITS:    4442937 MISSES:   12876182
LLC LOAD ACCESSES:    7413927 HITS:     517108 MISSES:    6896819
LLC RFO ACCESSES:      31549 HITS:      10318 MISSES:      21231
LLC PREFETCH ACCESSES:    9767581 HITS:    3847310 MISSES:    5920271
LLC WRITEBACK ACCESSES:     106062 HITS:      68201 MISSES:      37861
LLC 0 RQ ACCESS:    7445476
LLC 0 RQ TO_CACHE:    7445476
LLC 0 RQ MERGED:          0
LLC 0 RQ FORWARD:          0
LLC WQ ACCESS:     106062
LLC WQ TO_CACHE:     106062
LLC WQ MERGED:          0
LLC WQ FORWARD:          0
Major fault: 0 Minor fault: 6432
CPU 0 L1D next line prefetcher final stats
CPU 0 L2C PC-based stride prefetcher final stats
All Misses: 15274437
All Hits: 5262671
SD Algo Stats - Switches: 0 SRR-Repls: 7688299 BRR-Repls: 0

DRAM Statistics
 CHANNEL 0
 RQ ROW_BUFFER_HIT:    9659898  ROW_BUFFER_MISS:    3171069
 DBUS_CONGESTED:    6411091
 WQ ROW_BUFFER_HIT:       2463  ROW_BUFFER_MISS:      72721  FULL:          0

 AVG_CONGESTED_CYCLE: 13
LOADS RETIRED: 157382665
INSTR RETIRED: 500000000
