
*** ChampSim Multicore Out-of-Order Simulator ***

Warmup Instructions: 100000000
Simulation Instructions: 500000000
Number of CPUs: 1
LLC sets: 2048
LLC ways: 16
Clean RRIP Policies: 1213010112130101 Dirty RRIP Policies: 2203110122031101 PSEL Width: 10 Track Set: 4294967295 PSEL Mask: 1 Demote Mask: 3010001030100010DS Algo: 0Window size: 0
Off-chip DRAM Size: 4096 MB Channels: 1 Width: 64-bit Data Rate: 1600 MT/s

CPU 0 runs /mnt/beegfs/iconst01/spec2017/Omnetpp.trace.gz
NOT SORTED
TRACE STRING: /mnt/beegfs/iconst01/spec2017/Omnetpp.trace.gz
SORTED
TRACE STRING: /mnt/beegfs/iconst01/spec2017/Omnetpp.trace.gz
INITIAL
TRACE STRING: /mnt/beegfs/iconst01/spec2017/Omnetpp.trace.gz

champsim_seed used: 739

CPU 0 L1D next line prefetcher
CPU 0 L2C IP-based stride prefetcher
Initialize DRRIP state
Assign rand_sets[0]: 454  LLC: 2048
rand_sets[0]: 454
Assign rand_sets[1]: 1662  LLC: 2048
rand_sets[1]: 1662
Assign rand_sets[2]: 1921  LLC: 2048
rand_sets[2]: 1921
Assign rand_sets[3]: 1131  LLC: 2048
rand_sets[3]: 1131
Assign rand_sets[4]: 331  LLC: 2048
rand_sets[4]: 331
Assign rand_sets[5]: 1531  LLC: 2048
rand_sets[5]: 1531
Assign rand_sets[6]: 482  LLC: 2048
rand_sets[6]: 482
Assign rand_sets[7]: 1275  LLC: 2048
rand_sets[7]: 1275
Assign rand_sets[8]: 1876  LLC: 2048
rand_sets[8]: 1876
Assign rand_sets[9]: 2038  LLC: 2048
rand_sets[9]: 2038
Assign rand_sets[10]: 701  LLC: 2048
rand_sets[10]: 701
Assign rand_sets[11]: 479  LLC: 2048
rand_sets[11]: 479
Assign rand_sets[12]: 892  LLC: 2048
rand_sets[12]: 892
Assign rand_sets[13]: 1820  LLC: 2048
rand_sets[13]: 1820
Assign rand_sets[14]: 1505  LLC: 2048
rand_sets[14]: 1505
Assign rand_sets[15]: 1159  LLC: 2048
rand_sets[15]: 1159
Assign rand_sets[16]: 513  LLC: 2048
rand_sets[16]: 513
Assign rand_sets[17]: 703  LLC: 2048
rand_sets[17]: 703
Assign rand_sets[18]: 561  LLC: 2048
rand_sets[18]: 561
Assign rand_sets[19]: 990  LLC: 2048
rand_sets[19]: 990
Assign rand_sets[20]: 342  LLC: 2048
rand_sets[20]: 342
Assign rand_sets[21]: 882  LLC: 2048
rand_sets[21]: 882
Assign rand_sets[22]: 15  LLC: 2048
rand_sets[22]: 15
Assign rand_sets[23]: 71  LLC: 2048
rand_sets[23]: 71
Assign rand_sets[24]: 1127  LLC: 2048
rand_sets[24]: 1127
Assign rand_sets[25]: 1382  LLC: 2048
rand_sets[25]: 1382
Assign rand_sets[26]: 647  LLC: 2048
rand_sets[26]: 647
Assign rand_sets[27]: 857  LLC: 2048
rand_sets[27]: 857
Assign rand_sets[28]: 1450  LLC: 2048
rand_sets[28]: 1450
Assign rand_sets[29]: 1160  LLC: 2048
rand_sets[29]: 1160
Assign rand_sets[30]: 1852  LLC: 2048
rand_sets[30]: 1852
Assign rand_sets[31]: 1881  LLC: 2048
rand_sets[31]: 1881
Assign rand_sets[32]: 1770  LLC: 2048
rand_sets[32]: 1770
Assign rand_sets[33]: 1622  LLC: 2048
rand_sets[33]: 1622
Assign rand_sets[34]: 275  LLC: 2048
rand_sets[34]: 275
Assign rand_sets[35]: 635  LLC: 2048
rand_sets[35]: 635
Assign rand_sets[36]: 466  LLC: 2048
rand_sets[36]: 466
Assign rand_sets[37]: 1413  LLC: 2048
rand_sets[37]: 1413
Assign rand_sets[38]: 417  LLC: 2048
rand_sets[38]: 417
Assign rand_sets[39]: 472  LLC: 2048
rand_sets[39]: 472
Assign rand_sets[40]: 1340  LLC: 2048
rand_sets[40]: 1340
Assign rand_sets[41]: 852  LLC: 2048
rand_sets[41]: 852
Assign rand_sets[42]: 1365  LLC: 2048
rand_sets[42]: 1365
Assign rand_sets[43]: 47  LLC: 2048
rand_sets[43]: 47
Assign rand_sets[44]: 823  LLC: 2048
rand_sets[44]: 823
Assign rand_sets[45]: 686  LLC: 2048
rand_sets[45]: 686
Assign rand_sets[46]: 1637  LLC: 2048
rand_sets[46]: 1637
Assign rand_sets[47]: 1115  LLC: 2048
rand_sets[47]: 1115
Assign rand_sets[48]: 986  LLC: 2048
rand_sets[48]: 986
Assign rand_sets[49]: 258  LLC: 2048
rand_sets[49]: 258
Assign rand_sets[50]: 633  LLC: 2048
rand_sets[50]: 633
Assign rand_sets[51]: 920  LLC: 2048
rand_sets[51]: 920
Assign rand_sets[52]: 204  LLC: 2048
rand_sets[52]: 204
Assign rand_sets[53]: 227  LLC: 2048
rand_sets[53]: 227
Assign rand_sets[54]: 1818  LLC: 2048
rand_sets[54]: 1818
Assign rand_sets[55]: 886  LLC: 2048
rand_sets[55]: 886
Assign rand_sets[56]: 1422  LLC: 2048
rand_sets[56]: 1422
Assign rand_sets[57]: 607  LLC: 2048
rand_sets[57]: 607
Assign rand_sets[58]: 217  LLC: 2048
rand_sets[58]: 217
Assign rand_sets[59]: 1945  LLC: 2048
rand_sets[59]: 1945
Assign rand_sets[60]: 143  LLC: 2048
rand_sets[60]: 143
Assign rand_sets[61]: 1311  LLC: 2048
rand_sets[61]: 1311
Assign rand_sets[62]: 319  LLC: 2048
rand_sets[62]: 319
Assign rand_sets[63]: 1846  LLC: 2048
rand_sets[63]: 1846
 CLEAN-RRIP-POLICY-1: 1-2-1-3-0-1-0-1- CLEAN-RRIP-POLICY-2: 1-2-1-3-0-1-0-1-
 DIRTY-RRIP-POLICY-1: 2-2-0-3-1-1-0-1- DIRTY-RRIP-POLICY-2: 2-2-0-3-1-1-0-1-
 PSEL width: 10
Heartbeat CPU 0 instructions: 10000000 cycles: 7319921 heartbeat IPC: 1.36614 cumulative IPC: 1.36614 (Simulation time: 0 hr 0 min 19 sec) 
Heartbeat CPU 0 instructions: 20000000 cycles: 14623672 heartbeat IPC: 1.36916 cumulative IPC: 1.36765 (Simulation time: 0 hr 0 min 39 sec) 
Heartbeat CPU 0 instructions: 30000003 cycles: 21925083 heartbeat IPC: 1.3696 cumulative IPC: 1.3683 (Simulation time: 0 hr 0 min 58 sec) 
Heartbeat CPU 0 instructions: 40000000 cycles: 29213240 heartbeat IPC: 1.37209 cumulative IPC: 1.36924 (Simulation time: 0 hr 1 min 17 sec) 
Heartbeat CPU 0 instructions: 50000000 cycles: 36489704 heartbeat IPC: 1.37429 cumulative IPC: 1.37025 (Simulation time: 0 hr 1 min 36 sec) 
Heartbeat CPU 0 instructions: 60000000 cycles: 43769715 heartbeat IPC: 1.37362 cumulative IPC: 1.37081 (Simulation time: 0 hr 1 min 56 sec) 
Heartbeat CPU 0 instructions: 70000001 cycles: 51055016 heartbeat IPC: 1.37263 cumulative IPC: 1.37107 (Simulation time: 0 hr 2 min 15 sec) 
Heartbeat CPU 0 instructions: 80000000 cycles: 58330047 heartbeat IPC: 1.37456 cumulative IPC: 1.37151 (Simulation time: 0 hr 2 min 34 sec) 
Heartbeat CPU 0 instructions: 90000000 cycles: 65636396 heartbeat IPC: 1.36867 cumulative IPC: 1.37119 (Simulation time: 0 hr 2 min 54 sec) 
Heartbeat CPU 0 instructions: 100000000 cycles: 72928516 heartbeat IPC: 1.37134 cumulative IPC: 1.37121 (Simulation time: 0 hr 3 min 13 sec) 

Warmup complete CPU 0 instructions: 100000002 cycles: 72928517 (Simulation time: 0 hr 3 min 13 sec) 

Heartbeat CPU 0 instructions: 110000002 cycles: 113355406 heartbeat IPC: 0.24736 cumulative IPC: 0.24736 (Simulation time: 0 hr 3 min 51 sec) 
Heartbeat CPU 0 instructions: 120000000 cycles: 153466959 heartbeat IPC: 0.249305 cumulative IPC: 0.248329 (Simulation time: 0 hr 4 min 29 sec) 
Heartbeat CPU 0 instructions: 130000002 cycles: 193812792 heartbeat IPC: 0.247857 cumulative IPC: 0.248171 (Simulation time: 0 hr 5 min 7 sec) 
Heartbeat CPU 0 instructions: 140000000 cycles: 234272554 heartbeat IPC: 0.247159 cumulative IPC: 0.247917 (Simulation time: 0 hr 5 min 45 sec) 
Heartbeat CPU 0 instructions: 150000002 cycles: 274304187 heartbeat IPC: 0.249803 cumulative IPC: 0.248292 (Simulation time: 0 hr 6 min 23 sec) 
Heartbeat CPU 0 instructions: 160000000 cycles: 314375930 heartbeat IPC: 0.249552 cumulative IPC: 0.248501 (Simulation time: 0 hr 7 min 1 sec) 
Heartbeat CPU 0 instructions: 170000001 cycles: 353701059 heartbeat IPC: 0.25429 cumulative IPC: 0.249312 (Simulation time: 0 hr 7 min 38 sec) 
Heartbeat CPU 0 instructions: 180000000 cycles: 393777246 heartbeat IPC: 0.249525 cumulative IPC: 0.249339 (Simulation time: 0 hr 8 min 16 sec) 
Heartbeat CPU 0 instructions: 190000002 cycles: 433836081 heartbeat IPC: 0.249633 cumulative IPC: 0.249371 (Simulation time: 0 hr 8 min 53 sec) 
Heartbeat CPU 0 instructions: 200000000 cycles: 475025097 heartbeat IPC: 0.242783 cumulative IPC: 0.248696 (Simulation time: 0 hr 9 min 32 sec) 
Heartbeat CPU 0 instructions: 210000003 cycles: 515085916 heartbeat IPC: 0.249621 cumulative IPC: 0.24878 (Simulation time: 0 hr 10 min 10 sec) 
Heartbeat CPU 0 instructions: 220000000 cycles: 555355367 heartbeat IPC: 0.248327 cumulative IPC: 0.248742 (Simulation time: 0 hr 10 min 48 sec) 
Heartbeat CPU 0 instructions: 230000000 cycles: 595622599 heartbeat IPC: 0.248341 cumulative IPC: 0.248711 (Simulation time: 0 hr 11 min 26 sec) 
Heartbeat CPU 0 instructions: 240000000 cycles: 635659649 heartbeat IPC: 0.249769 cumulative IPC: 0.248787 (Simulation time: 0 hr 12 min 3 sec) 
Heartbeat CPU 0 instructions: 250000000 cycles: 675708911 heartbeat IPC: 0.249692 cumulative IPC: 0.248847 (Simulation time: 0 hr 12 min 40 sec) 
Heartbeat CPU 0 instructions: 260000000 cycles: 715876539 heartbeat IPC: 0.248957 cumulative IPC: 0.248854 (Simulation time: 0 hr 13 min 18 sec) 
Heartbeat CPU 0 instructions: 270000000 cycles: 756088234 heartbeat IPC: 0.248684 cumulative IPC: 0.248844 (Simulation time: 0 hr 13 min 55 sec) 
Heartbeat CPU 0 instructions: 280000000 cycles: 796661090 heartbeat IPC: 0.24647 cumulative IPC: 0.248711 (Simulation time: 0 hr 14 min 33 sec) 
Heartbeat CPU 0 instructions: 290000001 cycles: 836465045 heartbeat IPC: 0.251231 cumulative IPC: 0.248842 (Simulation time: 0 hr 15 min 10 sec) 
Heartbeat CPU 0 instructions: 300000000 cycles: 876919686 heartbeat IPC: 0.24719 cumulative IPC: 0.248759 (Simulation time: 0 hr 15 min 48 sec) 
Heartbeat CPU 0 instructions: 310000000 cycles: 917313299 heartbeat IPC: 0.247564 cumulative IPC: 0.248702 (Simulation time: 0 hr 16 min 25 sec) 
Heartbeat CPU 0 instructions: 320000000 cycles: 957407799 heartbeat IPC: 0.249411 cumulative IPC: 0.248734 (Simulation time: 0 hr 17 min 2 sec) 
Heartbeat CPU 0 instructions: 330000000 cycles: 997521943 heartbeat IPC: 0.249289 cumulative IPC: 0.248758 (Simulation time: 0 hr 17 min 40 sec) 
Heartbeat CPU 0 instructions: 340000000 cycles: 1038221766 heartbeat IPC: 0.245701 cumulative IPC: 0.248629 (Simulation time: 0 hr 18 min 17 sec) 
Heartbeat CPU 0 instructions: 350000001 cycles: 1078398110 heartbeat IPC: 0.248903 cumulative IPC: 0.24864 (Simulation time: 0 hr 18 min 54 sec) 
Heartbeat CPU 0 instructions: 360000000 cycles: 1118861915 heartbeat IPC: 0.247134 cumulative IPC: 0.248582 (Simulation time: 0 hr 19 min 32 sec) 
Heartbeat CPU 0 instructions: 370000000 cycles: 1158434288 heartbeat IPC: 0.252702 cumulative IPC: 0.248732 (Simulation time: 0 hr 20 min 8 sec) 
Heartbeat CPU 0 instructions: 380000000 cycles: 1198876736 heartbeat IPC: 0.247265 cumulative IPC: 0.248679 (Simulation time: 0 hr 20 min 45 sec) 
Heartbeat CPU 0 instructions: 390000001 cycles: 1238852622 heartbeat IPC: 0.250151 cumulative IPC: 0.24873 (Simulation time: 0 hr 21 min 22 sec) 
Heartbeat CPU 0 instructions: 400000000 cycles: 1278957673 heartbeat IPC: 0.249345 cumulative IPC: 0.24875 (Simulation time: 0 hr 22 min 0 sec) 
Heartbeat CPU 0 instructions: 410000000 cycles: 1318903386 heartbeat IPC: 0.25034 cumulative IPC: 0.248801 (Simulation time: 0 hr 22 min 36 sec) 
Heartbeat CPU 0 instructions: 420000000 cycles: 1358883407 heartbeat IPC: 0.250125 cumulative IPC: 0.248842 (Simulation time: 0 hr 23 min 13 sec) 
Heartbeat CPU 0 instructions: 430000000 cycles: 1398911870 heartbeat IPC: 0.249822 cumulative IPC: 0.248872 (Simulation time: 0 hr 23 min 50 sec) 
Heartbeat CPU 0 instructions: 440000000 cycles: 1439037757 heartbeat IPC: 0.249216 cumulative IPC: 0.248882 (Simulation time: 0 hr 24 min 27 sec) 
Heartbeat CPU 0 instructions: 450000002 cycles: 1478999258 heartbeat IPC: 0.250241 cumulative IPC: 0.248921 (Simulation time: 0 hr 25 min 4 sec) 
Heartbeat CPU 0 instructions: 460000000 cycles: 1518392960 heartbeat IPC: 0.253848 cumulative IPC: 0.249055 (Simulation time: 0 hr 25 min 41 sec) 
Heartbeat CPU 0 instructions: 470000000 cycles: 1558643031 heartbeat IPC: 0.248447 cumulative IPC: 0.249038 (Simulation time: 0 hr 26 min 18 sec) 
Heartbeat CPU 0 instructions: 480000000 cycles: 1598487150 heartbeat IPC: 0.250978 cumulative IPC: 0.249089 (Simulation time: 0 hr 26 min 55 sec) 
Heartbeat CPU 0 instructions: 490000001 cycles: 1638526507 heartbeat IPC: 0.249754 cumulative IPC: 0.249106 (Simulation time: 0 hr 27 min 31 sec) 
Heartbeat CPU 0 instructions: 500000000 cycles: 1678767280 heartbeat IPC: 0.248504 cumulative IPC: 0.249091 (Simulation time: 0 hr 28 min 7 sec) 
Heartbeat CPU 0 instructions: 510000000 cycles: 1718466186 heartbeat IPC: 0.251896 cumulative IPC: 0.249159 (Simulation time: 0 hr 28 min 41 sec) 
Heartbeat CPU 0 instructions: 520000000 cycles: 1758910196 heartbeat IPC: 0.247255 cumulative IPC: 0.249113 (Simulation time: 0 hr 29 min 16 sec) 
Heartbeat CPU 0 instructions: 530000000 cycles: 1798811899 heartbeat IPC: 0.250616 cumulative IPC: 0.249148 (Simulation time: 0 hr 29 min 51 sec) 
Heartbeat CPU 0 instructions: 540000000 cycles: 1838463028 heartbeat IPC: 0.2522 cumulative IPC: 0.249216 (Simulation time: 0 hr 30 min 25 sec) 
Heartbeat CPU 0 instructions: 550000001 cycles: 1878817893 heartbeat IPC: 0.247802 cumulative IPC: 0.249185 (Simulation time: 0 hr 31 min 0 sec) 
Heartbeat CPU 0 instructions: 560000000 cycles: 1919295153 heartbeat IPC: 0.247052 cumulative IPC: 0.249138 (Simulation time: 0 hr 31 min 35 sec) 
Heartbeat CPU 0 instructions: 570000003 cycles: 1959736237 heartbeat IPC: 0.247273 cumulative IPC: 0.249098 (Simulation time: 0 hr 32 min 9 sec) 
Heartbeat CPU 0 instructions: 580000000 cycles: 2000003401 heartbeat IPC: 0.248341 cumulative IPC: 0.249082 (Simulation time: 0 hr 32 min 44 sec) 
Heartbeat CPU 0 instructions: 590000001 cycles: 2040641071 heartbeat IPC: 0.246077 cumulative IPC: 0.24902 (Simulation time: 0 hr 33 min 19 sec) 
Heartbeat CPU 0 instructions: 600000000 cycles: 2081087549 heartbeat IPC: 0.24724 cumulative IPC: 0.248984 (Simulation time: 0 hr 33 min 54 sec) 
Finished CPU 0 instructions: 500000000 cycles: 2008159040 cumulative IPC: 0.248984 (Simulation time: 0 hr 33 min 54 sec) 

CPU 0 Branch Prediction Accuracy: 96.2429% MPKI: 5.85335
Number of Branches: 77897976 Number of Mispredictions: 2926674
Number of LOAD Instructions: 193081861
Number of LOAD Instructions (ROI): 193081861
Number of STORE Instructions: 97310749
Number of STORE Instructions (ROI): 97310749
Total Destination Memory Operands: 106368027
Total Destination Memory Operands (ROI): 106368027
Total Source Memory Operands: 193081861
Total Source Memory Operands (ROI): 193081861
Number of DEPENDED LOADS: 6442175
Number of DEPENDED LOADS (ROI): 6442175
Number of SQ_ADDED: 106367982
Number of SQ_ADDED (ROI): 106367982
Number of LQ_ADDED: 426779061
Number of LQ_ADDED (ROI): 426779061
Number of Instructions read from trace: 600000256

ChampSim completed all CPUs

Region of Interest Statistics

CPU 0 cumulative IPC: 0.248984 instructions: 500000000 cycles: 2008159040
ITLB TOTAL     ACCESS:  151253035  HIT:  151237204  MISS:      15831
ITLB LOAD      ACCESS:  151253035  HIT:  151237204  MISS:      15831
ITLB RFO       ACCESS:          0  HIT:          0  MISS:          0
ITLB PREFETCH  ACCESS:          0  HIT:          0  MISS:          0
ITLB WRITEBACK ACCESS:          0  HIT:          0  MISS:          0
ITLB PREFETCH  REQUESTED:          0  ISSUED:          0  USEFUL:          0  USELESS:          0
ITLB TOTAL MSHR MERGED:      17787
ITLB LOAD MSHR MERGED:      17787
ITLB RFO MSHR MERGED:          0
ITLB PREFETCH MSHR MERGED:          0
ITLB WRITEBACK MSHR MERGED:          0
ITLB TOTAL ACCESSES:  151270822 HITS:  151237204 MISSES:      33618
ITLB LOAD ACCESSES:  151270822 HITS:  151237204 MISSES:      33618
ITLB RFO ACCESSES:          0 HITS:          0 MISSES:          0
ITLB PREFETCH ACCESSES:          0 HITS:          0 MISSES:          0
ITLB WRITEBACK ACCESSES:          0 HITS:          0 MISSES:          0
ITLB RQ ACCESS:  500000242
ITLB RQ TO_CACHE:  151270822
ITLB RQ MERGED:  348729420
ITLB RQ FORWARD:          0
ITLB WQ ACCESS:          0
ITLB WQ TO_CACHE:          0
ITLB WQ MERGED:          0
ITLB WQ FORWARD:          0
DTLB TOTAL     ACCESS:  199561382  HIT:  194182379  MISS:    5379003
DTLB LOAD      ACCESS:  123132124  HIT:  118113606  MISS:    5018518
DTLB RFO       ACCESS:   76429258  HIT:   76068773  MISS:     360485
DTLB PREFETCH  ACCESS:          0  HIT:          0  MISS:          0
DTLB WRITEBACK ACCESS:          0  HIT:          0  MISS:          0
DTLB PREFETCH  REQUESTED:          0  ISSUED:          0  USEFUL:          0  USELESS:          0
DTLB TOTAL MSHR MERGED:     916706
DTLB LOAD MSHR MERGED:     807096
DTLB RFO MSHR MERGED:     109610
DTLB PREFETCH MSHR MERGED:          0
DTLB WRITEBACK MSHR MERGED:          0
DTLB TOTAL ACCESSES:  200478088 HITS:  194182379 MISSES:    6295709
DTLB LOAD ACCESSES:  123939220 HITS:  118113606 MISSES:    5825614
DTLB RFO ACCESSES:   76538868 HITS:   76068773 MISSES:     470095
DTLB PREFETCH ACCESSES:          0 HITS:          0 MISSES:          0
DTLB WRITEBACK ACCESSES:          0 HITS:          0 MISSES:          0
DTLB RQ ACCESS:  243883412
DTLB RQ TO_CACHE:  200478088
DTLB RQ MERGED:   43405324
DTLB RQ FORWARD:          0
DTLB WQ ACCESS:          0
DTLB WQ TO_CACHE:          0
DTLB WQ MERGED:          0
DTLB WQ FORWARD:          0
L1D TOTAL     ACCESS:  335598933  HIT:  317502814  MISS:   18096119
L1D LOAD      ACCESS:  127695567  HIT:  118751512  MISS:    8944055
L1D RFO       ACCESS:   87084151  HIT:   86296097  MISS:     788054
L1D PREFETCH  ACCESS:  120819215  HIT:  112455205  MISS:    8364010
L1D WRITEBACK ACCESS:          0  HIT:          0  MISS:          0
L1D PREFETCH  REQUESTED:  128474525  ISSUED:  126876553  USEFUL:    1740960  USELESS:    6623062
L1D TOTAL MSHR MERGED:    3855784
L1D LOAD MSHR MERGED:     944011
L1D RFO MSHR MERGED:    1068983
L1D PREFETCH MSHR MERGED:    1842790
L1D WRITEBACK MSHR MERGED:          0
L1D TOTAL ACCESSES:  339539734 HITS:  317587831 MISSES:   21951903
L1D LOAD ACCESSES:  128474963 HITS:  118751950 MISSES:    9723013
L1D RFO ACCESSES:   88085773 HITS:   86296097 MISSES:    1789676
L1D PREFETCH ACCESSES:  122978998 HITS:  112539784 MISSES:   10439214
L1D WRITEBACK ACCESSES:          0 HITS:          0 MISSES:          0
L1D RQ ACCESS:  155252027
L1D RQ TO_CACHE:  128474525
L1D RQ MERGED:   26777064
L1D RQ FORWARD:          0
L1D WQ ACCESS:   88631385
L1D WQ TO_CACHE:   88085772
L1D WQ MERGED:     545613
L1D WQ FORWARD:      85017
L1I TOTAL     ACCESS:  175556131  HIT:  175289661  MISS:     266470
L1I LOAD      ACCESS:  175556131  HIT:  175289661  MISS:     266470
L1I RFO       ACCESS:          0  HIT:          0  MISS:          0
L1I PREFETCH  ACCESS:          0  HIT:          0  MISS:          0
L1I WRITEBACK ACCESS:          0  HIT:          0  MISS:          0
L1I PREFETCH  REQUESTED:          0  ISSUED:          0  USEFUL:          0  USELESS:          0
L1I TOTAL MSHR MERGED:     213075
L1I LOAD MSHR MERGED:     213075
L1I RFO MSHR MERGED:          0
L1I PREFETCH MSHR MERGED:          0
L1I WRITEBACK MSHR MERGED:          0
L1I TOTAL ACCESSES:  175769206 HITS:  175289661 MISSES:     479545
L1I LOAD ACCESSES:  175769206 HITS:  175289661 MISSES:     479545
L1I RFO ACCESSES:          0 HITS:          0 MISSES:          0
L1I PREFETCH ACCESSES:          0 HITS:          0 MISSES:          0
L1I WRITEBACK ACCESSES:          0 HITS:          0 MISSES:          0
L1I RQ ACCESS:  500000242
L1I RQ TO_CACHE:  175769206
L1I RQ MERGED:  324231036
L1I RQ FORWARD:          0
L1I WQ ACCESS:          0
L1I WQ TO_CACHE:          0
L1I WQ MERGED:          0
L1I WQ FORWARD:          0
L2C TOTAL     ACCESS:   23738674  HIT:   12112932  MISS:   11625742
L2C LOAD      ACCESS:    9044291  HIT:    3564733  MISS:    5479558
L2C RFO       ACCESS:     720638  HIT:     130373  MISS:     590265
L2C PREFETCH  ACCESS:    8613414  HIT:    3086198  MISS:    5527216
L2C WRITEBACK ACCESS:    5360331  HIT:    5331628  MISS:      28703
L2C PREFETCH  REQUESTED:      18037  ISSUED:      18037  USEFUL:     323031  USELESS:    5204361
L2C TOTAL MSHR MERGED:         23
L2C LOAD MSHR MERGED:          2
L2C RFO MSHR MERGED:          0
L2C PREFETCH MSHR MERGED:         21
L2C WRITEBACK MSHR MERGED:          0
L2C TOTAL ACCESSES:   23740497 HITS:   12114726 MISSES:   11625771
L2C LOAD ACCESSES:    9045472 HITS:    3565914 MISSES:    5479558
L2C RFO ACCESSES:     720693 HITS:     130428 MISSES:     590265
L2C PREFETCH ACCESSES:    8614001 HITS:    3086756 MISSES:    5527245
L2C WRITEBACK ACCESSES:    5360331 HITS:    5331628 MISSES:      28703
L2C RQ ACCESS:    9766165
L2C RQ TO_CACHE:    9764929
L2C RQ MERGED:          0
L2C RQ FORWARD:          0
L2C WQ ACCESS:    5360331
L2C WQ TO_CACHE:    5360331
L2C WQ MERGED:          0
L2C WQ FORWARD:       1794
LLC TOTAL     ACCESS:   15448700  HIT:    6729525  MISS:    8719175
LLC LOAD      ACCESS:    5479526  HIT:    2071240  MISS:    3408286
LLC RFO       ACCESS:     590263  HIT:     302177  MISS:     288086
LLC PREFETCH  ACCESS:    5527210  HIT:    1032095  MISS:    4495115
LLC WRITEBACK ACCESS:    3851701  HIT:    3324013  MISS:     527688
LLC PREFETCH  REQUESTED:          0  ISSUED:          0  USEFUL:      26637  USELESS:    4469076
LLC TOTAL MSHR MERGED:          0
LLC LOAD MSHR MERGED:          0
LLC RFO MSHR MERGED:          0
LLC PREFETCH MSHR MERGED:          0
LLC WRITEBACK MSHR MERGED:          0
LLC TOTAL ACCESSES:   15448746 HITS:    6729571 MISSES:    8719175
LLC LOAD ACCESSES:    5479556 HITS:    2071270 MISSES:    3408286
LLC RFO ACCESSES:     590265 HITS:     302179 MISSES:     288086
LLC PREFETCH ACCESSES:    5527224 HITS:    1032109 MISSES:    4495115
LLC WRITEBACK ACCESSES:    3851701 HITS:    3324013 MISSES:     527688
LLC 0 RQ ACCESS:    6069821
LLC 0 RQ TO_CACHE:    6069789
LLC 0 RQ MERGED:          0
LLC 0 RQ FORWARD:          0
LLC WQ ACCESS:    3851701
LLC WQ TO_CACHE:    3851701
LLC WQ MERGED:          0
LLC WQ FORWARD:         46
Major fault: 0 Minor fault: 44814
CPU 0 L1D next line prefetcher final stats
CPU 0 L2C PC-based stride prefetcher final stats
All Misses: 10545656
All Hits: 8075536
SD Algo Stats - Switches: 0 SRR-Repls: 3889474 BRR-Repls: 0

DRAM Statistics
 CHANNEL 0
 RQ ROW_BUFFER_HIT:    1435695  ROW_BUFFER_MISS:    6754304
 DBUS_CONGESTED:    5487001
 WQ ROW_BUFFER_HIT:     174956  ROW_BUFFER_MISS:    2084116  FULL:          0

 AVG_CONGESTED_CYCLE: 13
LOADS RETIRED: 160808997
INSTR RETIRED: 500000000
