
*** ChampSim Multicore Out-of-Order Simulator ***

Warmup Instructions: 100000000
Simulation Instructions: 500000000
Number of CPUs: 1
LLC sets: 2048
LLC ways: 16
Clean RRIP Policies: 303102303031023 Dirty RRIP Policies: 2303200323032003 PSEL Width: 10 Track Set: 4294967295 PSEL Mask: 1 Demote Mask: 2313143323131433DS Algo: 0Window size: 0
Off-chip DRAM Size: 4096 MB Channels: 1 Width: 64-bit Data Rate: 1600 MT/s

CPU 0 runs /mnt/beegfs/iconst01/spec2017/Gcc.trace.gz
NOT SORTED
TRACE STRING: /mnt/beegfs/iconst01/spec2017/Gcc.trace.gz
SORTED
TRACE STRING: /mnt/beegfs/iconst01/spec2017/Gcc.trace.gz
INITIAL
TRACE STRING: /mnt/beegfs/iconst01/spec2017/Gcc.trace.gz

champsim_seed used: 269

CPU 0 L1D next line prefetcher
CPU 0 L2C IP-based stride prefetcher
Initialize DRRIP state
Assign rand_sets[0]: 454  LLC: 2048
rand_sets[0]: 454
Assign rand_sets[1]: 1662  LLC: 2048
rand_sets[1]: 1662
Assign rand_sets[2]: 1921  LLC: 2048
rand_sets[2]: 1921
Assign rand_sets[3]: 1131  LLC: 2048
rand_sets[3]: 1131
Assign rand_sets[4]: 331  LLC: 2048
rand_sets[4]: 331
Assign rand_sets[5]: 1531  LLC: 2048
rand_sets[5]: 1531
Assign rand_sets[6]: 482  LLC: 2048
rand_sets[6]: 482
Assign rand_sets[7]: 1275  LLC: 2048
rand_sets[7]: 1275
Assign rand_sets[8]: 1876  LLC: 2048
rand_sets[8]: 1876
Assign rand_sets[9]: 2038  LLC: 2048
rand_sets[9]: 2038
Assign rand_sets[10]: 701  LLC: 2048
rand_sets[10]: 701
Assign rand_sets[11]: 479  LLC: 2048
rand_sets[11]: 479
Assign rand_sets[12]: 892  LLC: 2048
rand_sets[12]: 892
Assign rand_sets[13]: 1820  LLC: 2048
rand_sets[13]: 1820
Assign rand_sets[14]: 1505  LLC: 2048
rand_sets[14]: 1505
Assign rand_sets[15]: 1159  LLC: 2048
rand_sets[15]: 1159
Assign rand_sets[16]: 513  LLC: 2048
rand_sets[16]: 513
Assign rand_sets[17]: 703  LLC: 2048
rand_sets[17]: 703
Assign rand_sets[18]: 561  LLC: 2048
rand_sets[18]: 561
Assign rand_sets[19]: 990  LLC: 2048
rand_sets[19]: 990
Assign rand_sets[20]: 342  LLC: 2048
rand_sets[20]: 342
Assign rand_sets[21]: 882  LLC: 2048
rand_sets[21]: 882
Assign rand_sets[22]: 15  LLC: 2048
rand_sets[22]: 15
Assign rand_sets[23]: 71  LLC: 2048
rand_sets[23]: 71
Assign rand_sets[24]: 1127  LLC: 2048
rand_sets[24]: 1127
Assign rand_sets[25]: 1382  LLC: 2048
rand_sets[25]: 1382
Assign rand_sets[26]: 647  LLC: 2048
rand_sets[26]: 647
Assign rand_sets[27]: 857  LLC: 2048
rand_sets[27]: 857
Assign rand_sets[28]: 1450  LLC: 2048
rand_sets[28]: 1450
Assign rand_sets[29]: 1160  LLC: 2048
rand_sets[29]: 1160
Assign rand_sets[30]: 1852  LLC: 2048
rand_sets[30]: 1852
Assign rand_sets[31]: 1881  LLC: 2048
rand_sets[31]: 1881
Assign rand_sets[32]: 1770  LLC: 2048
rand_sets[32]: 1770
Assign rand_sets[33]: 1622  LLC: 2048
rand_sets[33]: 1622
Assign rand_sets[34]: 275  LLC: 2048
rand_sets[34]: 275
Assign rand_sets[35]: 635  LLC: 2048
rand_sets[35]: 635
Assign rand_sets[36]: 466  LLC: 2048
rand_sets[36]: 466
Assign rand_sets[37]: 1413  LLC: 2048
rand_sets[37]: 1413
Assign rand_sets[38]: 417  LLC: 2048
rand_sets[38]: 417
Assign rand_sets[39]: 472  LLC: 2048
rand_sets[39]: 472
Assign rand_sets[40]: 1340  LLC: 2048
rand_sets[40]: 1340
Assign rand_sets[41]: 852  LLC: 2048
rand_sets[41]: 852
Assign rand_sets[42]: 1365  LLC: 2048
rand_sets[42]: 1365
Assign rand_sets[43]: 47  LLC: 2048
rand_sets[43]: 47
Assign rand_sets[44]: 823  LLC: 2048
rand_sets[44]: 823
Assign rand_sets[45]: 686  LLC: 2048
rand_sets[45]: 686
Assign rand_sets[46]: 1637  LLC: 2048
rand_sets[46]: 1637
Assign rand_sets[47]: 1115  LLC: 2048
rand_sets[47]: 1115
Assign rand_sets[48]: 986  LLC: 2048
rand_sets[48]: 986
Assign rand_sets[49]: 258  LLC: 2048
rand_sets[49]: 258
Assign rand_sets[50]: 633  LLC: 2048
rand_sets[50]: 633
Assign rand_sets[51]: 920  LLC: 2048
rand_sets[51]: 920
Assign rand_sets[52]: 204  LLC: 2048
rand_sets[52]: 204
Assign rand_sets[53]: 227  LLC: 2048
rand_sets[53]: 227
Assign rand_sets[54]: 1818  LLC: 2048
rand_sets[54]: 1818
Assign rand_sets[55]: 886  LLC: 2048
rand_sets[55]: 886
Assign rand_sets[56]: 1422  LLC: 2048
rand_sets[56]: 1422
Assign rand_sets[57]: 607  LLC: 2048
rand_sets[57]: 607
Assign rand_sets[58]: 217  LLC: 2048
rand_sets[58]: 217
Assign rand_sets[59]: 1945  LLC: 2048
rand_sets[59]: 1945
Assign rand_sets[60]: 143  LLC: 2048
rand_sets[60]: 143
Assign rand_sets[61]: 1311  LLC: 2048
rand_sets[61]: 1311
Assign rand_sets[62]: 319  LLC: 2048
rand_sets[62]: 319
Assign rand_sets[63]: 1846  LLC: 2048
rand_sets[63]: 1846
 CLEAN-RRIP-POLICY-1: 0-3-0-3-1-0-2-3- CLEAN-RRIP-POLICY-2: 0-3-0-3-1-0-2-3-
 DIRTY-RRIP-POLICY-1: 2-3-0-3-2-0-0-3- DIRTY-RRIP-POLICY-2: 2-3-0-3-2-0-0-3-
 PSEL width: 10
Heartbeat CPU 0 instructions: 10000001 cycles: 7321625 heartbeat IPC: 1.36582 cumulative IPC: 1.36582 (Simulation time: 0 hr 0 min 15 sec) 
Heartbeat CPU 0 instructions: 20000000 cycles: 14328006 heartbeat IPC: 1.42727 cumulative IPC: 1.39587 (Simulation time: 0 hr 0 min 30 sec) 
Heartbeat CPU 0 instructions: 30000001 cycles: 21045401 heartbeat IPC: 1.48867 cumulative IPC: 1.42549 (Simulation time: 0 hr 0 min 46 sec) 
Heartbeat CPU 0 instructions: 40000000 cycles: 27507830 heartbeat IPC: 1.54741 cumulative IPC: 1.45413 (Simulation time: 0 hr 1 min 3 sec) 
Heartbeat CPU 0 instructions: 50000001 cycles: 33610830 heartbeat IPC: 1.63854 cumulative IPC: 1.48762 (Simulation time: 0 hr 1 min 19 sec) 
Heartbeat CPU 0 instructions: 60000000 cycles: 40093238 heartbeat IPC: 1.54264 cumulative IPC: 1.49651 (Simulation time: 0 hr 1 min 35 sec) 
Heartbeat CPU 0 instructions: 70000000 cycles: 47136884 heartbeat IPC: 1.41972 cumulative IPC: 1.48504 (Simulation time: 0 hr 1 min 50 sec) 
Heartbeat CPU 0 instructions: 80000000 cycles: 54232939 heartbeat IPC: 1.40923 cumulative IPC: 1.47512 (Simulation time: 0 hr 2 min 5 sec) 
Heartbeat CPU 0 instructions: 90000003 cycles: 61243996 heartbeat IPC: 1.42632 cumulative IPC: 1.46953 (Simulation time: 0 hr 2 min 21 sec) 
Heartbeat CPU 0 instructions: 100000000 cycles: 68418018 heartbeat IPC: 1.39392 cumulative IPC: 1.4616 (Simulation time: 0 hr 2 min 35 sec) 

Warmup complete CPU 0 instructions: 100000004 cycles: 68418019 (Simulation time: 0 hr 2 min 35 sec) 

Heartbeat CPU 0 instructions: 110000003 cycles: 97182544 heartbeat IPC: 0.347651 cumulative IPC: 0.34765 (Simulation time: 0 hr 3 min 6 sec) 
Heartbeat CPU 0 instructions: 120000000 cycles: 125106695 heartbeat IPC: 0.358113 cumulative IPC: 0.352804 (Simulation time: 0 hr 3 min 36 sec) 
Heartbeat CPU 0 instructions: 130000000 cycles: 150466517 heartbeat IPC: 0.394325 cumulative IPC: 0.365637 (Simulation time: 0 hr 4 min 6 sec) 
Heartbeat CPU 0 instructions: 140000000 cycles: 182044285 heartbeat IPC: 0.316678 cumulative IPC: 0.352031 (Simulation time: 0 hr 4 min 37 sec) 
Heartbeat CPU 0 instructions: 150000000 cycles: 213424283 heartbeat IPC: 0.318674 cumulative IPC: 0.344813 (Simulation time: 0 hr 5 min 7 sec) 
Heartbeat CPU 0 instructions: 160000000 cycles: 241409549 heartbeat IPC: 0.357331 cumulative IPC: 0.346838 (Simulation time: 0 hr 5 min 37 sec) 
Heartbeat CPU 0 instructions: 170000001 cycles: 270125369 heartbeat IPC: 0.34824 cumulative IPC: 0.347037 (Simulation time: 0 hr 6 min 8 sec) 
Heartbeat CPU 0 instructions: 180000000 cycles: 299376845 heartbeat IPC: 0.341863 cumulative IPC: 0.346382 (Simulation time: 0 hr 6 min 39 sec) 
Heartbeat CPU 0 instructions: 190000002 cycles: 328239351 heartbeat IPC: 0.34647 cumulative IPC: 0.346392 (Simulation time: 0 hr 7 min 9 sec) 
Heartbeat CPU 0 instructions: 200000000 cycles: 357432500 heartbeat IPC: 0.342546 cumulative IPC: 0.346003 (Simulation time: 0 hr 7 min 40 sec) 
Heartbeat CPU 0 instructions: 210000002 cycles: 386100467 heartbeat IPC: 0.348821 cumulative IPC: 0.346258 (Simulation time: 0 hr 8 min 11 sec) 
Heartbeat CPU 0 instructions: 220000000 cycles: 417260829 heartbeat IPC: 0.32092 cumulative IPC: 0.343994 (Simulation time: 0 hr 8 min 40 sec) 
Heartbeat CPU 0 instructions: 230000000 cycles: 445912521 heartbeat IPC: 0.34902 cumulative IPC: 0.344376 (Simulation time: 0 hr 9 min 10 sec) 
Heartbeat CPU 0 instructions: 240000000 cycles: 472705575 heartbeat IPC: 0.373231 cumulative IPC: 0.346288 (Simulation time: 0 hr 9 min 39 sec) 
Heartbeat CPU 0 instructions: 250000000 cycles: 503465104 heartbeat IPC: 0.325103 cumulative IPC: 0.34479 (Simulation time: 0 hr 10 min 11 sec) 
Heartbeat CPU 0 instructions: 260000000 cycles: 530956900 heartbeat IPC: 0.363745 cumulative IPC: 0.345917 (Simulation time: 0 hr 10 min 40 sec) 
Heartbeat CPU 0 instructions: 270000003 cycles: 560046201 heartbeat IPC: 0.343769 cumulative IPC: 0.34579 (Simulation time: 0 hr 11 min 12 sec) 
Heartbeat CPU 0 instructions: 280000000 cycles: 588963565 heartbeat IPC: 0.345813 cumulative IPC: 0.345791 (Simulation time: 0 hr 11 min 43 sec) 
Heartbeat CPU 0 instructions: 290000000 cycles: 618500877 heartbeat IPC: 0.338555 cumulative IPC: 0.345403 (Simulation time: 0 hr 12 min 14 sec) 
Heartbeat CPU 0 instructions: 300000000 cycles: 650133757 heartbeat IPC: 0.316127 cumulative IPC: 0.343811 (Simulation time: 0 hr 12 min 45 sec) 
Heartbeat CPU 0 instructions: 310000001 cycles: 680788792 heartbeat IPC: 0.326211 cumulative IPC: 0.342929 (Simulation time: 0 hr 13 min 15 sec) 
Heartbeat CPU 0 instructions: 320000000 cycles: 710456750 heartbeat IPC: 0.337064 cumulative IPC: 0.342658 (Simulation time: 0 hr 13 min 45 sec) 
Heartbeat CPU 0 instructions: 330000000 cycles: 740154591 heartbeat IPC: 0.336725 cumulative IPC: 0.342396 (Simulation time: 0 hr 14 min 15 sec) 
Heartbeat CPU 0 instructions: 340000000 cycles: 770690027 heartbeat IPC: 0.327488 cumulative IPC: 0.341748 (Simulation time: 0 hr 14 min 46 sec) 
Heartbeat CPU 0 instructions: 350000003 cycles: 798443592 heartbeat IPC: 0.360314 cumulative IPC: 0.342454 (Simulation time: 0 hr 15 min 15 sec) 
Heartbeat CPU 0 instructions: 360000000 cycles: 829820346 heartbeat IPC: 0.318707 cumulative IPC: 0.341475 (Simulation time: 0 hr 15 min 45 sec) 
Heartbeat CPU 0 instructions: 370000000 cycles: 861324230 heartbeat IPC: 0.317421 cumulative IPC: 0.340519 (Simulation time: 0 hr 16 min 16 sec) 
Heartbeat CPU 0 instructions: 380000000 cycles: 893297807 heartbeat IPC: 0.312758 cumulative IPC: 0.339443 (Simulation time: 0 hr 16 min 46 sec) 
Heartbeat CPU 0 instructions: 390000001 cycles: 924297423 heartbeat IPC: 0.322585 cumulative IPC: 0.338833 (Simulation time: 0 hr 17 min 16 sec) 
Heartbeat CPU 0 instructions: 400000000 cycles: 956169737 heartbeat IPC: 0.313752 cumulative IPC: 0.337932 (Simulation time: 0 hr 17 min 46 sec) 
Heartbeat CPU 0 instructions: 410000001 cycles: 986868195 heartbeat IPC: 0.325749 cumulative IPC: 0.337525 (Simulation time: 0 hr 18 min 16 sec) 
Heartbeat CPU 0 instructions: 420000000 cycles: 1017637028 heartbeat IPC: 0.325004 cumulative IPC: 0.337119 (Simulation time: 0 hr 18 min 45 sec) 
Heartbeat CPU 0 instructions: 430000002 cycles: 1048782809 heartbeat IPC: 0.321071 cumulative IPC: 0.336609 (Simulation time: 0 hr 19 min 14 sec) 
Heartbeat CPU 0 instructions: 440000000 cycles: 1081078431 heartbeat IPC: 0.309639 cumulative IPC: 0.335749 (Simulation time: 0 hr 19 min 43 sec) 
Heartbeat CPU 0 instructions: 450000002 cycles: 1113262442 heartbeat IPC: 0.310713 cumulative IPC: 0.334978 (Simulation time: 0 hr 20 min 13 sec) 
Heartbeat CPU 0 instructions: 460000000 cycles: 1144319537 heartbeat IPC: 0.321988 cumulative IPC: 0.334603 (Simulation time: 0 hr 20 min 42 sec) 
Heartbeat CPU 0 instructions: 470000000 cycles: 1174931729 heartbeat IPC: 0.326667 cumulative IPC: 0.334384 (Simulation time: 0 hr 21 min 11 sec) 
Heartbeat CPU 0 instructions: 480000000 cycles: 1205745044 heartbeat IPC: 0.324535 cumulative IPC: 0.334117 (Simulation time: 0 hr 21 min 40 sec) 
Heartbeat CPU 0 instructions: 490000000 cycles: 1236320742 heartbeat IPC: 0.327057 cumulative IPC: 0.333932 (Simulation time: 0 hr 22 min 9 sec) 
Heartbeat CPU 0 instructions: 500000000 cycles: 1267328246 heartbeat IPC: 0.322503 cumulative IPC: 0.333636 (Simulation time: 0 hr 22 min 38 sec) 
Heartbeat CPU 0 instructions: 510000000 cycles: 1303036989 heartbeat IPC: 0.280043 cumulative IPC: 0.332086 (Simulation time: 0 hr 23 min 10 sec) 
Heartbeat CPU 0 instructions: 520000000 cycles: 1331513235 heartbeat IPC: 0.35117 cumulative IPC: 0.332516 (Simulation time: 0 hr 23 min 38 sec) 
Heartbeat CPU 0 instructions: 530000001 cycles: 1362506186 heartbeat IPC: 0.322654 cumulative IPC: 0.33228 (Simulation time: 0 hr 24 min 8 sec) 
Heartbeat CPU 0 instructions: 540000000 cycles: 1391921862 heartbeat IPC: 0.339955 cumulative IPC: 0.332451 (Simulation time: 0 hr 24 min 37 sec) 
Heartbeat CPU 0 instructions: 550000001 cycles: 1421577020 heartbeat IPC: 0.337209 cumulative IPC: 0.332555 (Simulation time: 0 hr 25 min 8 sec) 
Heartbeat CPU 0 instructions: 560000000 cycles: 1447374792 heartbeat IPC: 0.38763 cumulative IPC: 0.333586 (Simulation time: 0 hr 25 min 36 sec) 
Heartbeat CPU 0 instructions: 570000000 cycles: 1478187471 heartbeat IPC: 0.324542 cumulative IPC: 0.333388 (Simulation time: 0 hr 26 min 6 sec) 
Heartbeat CPU 0 instructions: 580000000 cycles: 1507311699 heartbeat IPC: 0.343357 cumulative IPC: 0.33359 (Simulation time: 0 hr 26 min 36 sec) 
Heartbeat CPU 0 instructions: 590000001 cycles: 1532728616 heartbeat IPC: 0.393439 cumulative IPC: 0.334628 (Simulation time: 0 hr 27 min 3 sec) 
Heartbeat CPU 0 instructions: 600000000 cycles: 1560149963 heartbeat IPC: 0.364679 cumulative IPC: 0.335181 (Simulation time: 0 hr 27 min 32 sec) 
Finished CPU 0 instructions: 500000000 cycles: 1491731966 cumulative IPC: 0.335181 (Simulation time: 0 hr 27 min 32 sec) 

CPU 0 Branch Prediction Accuracy: 86.4311% MPKI: 26.2662
Number of Branches: 96788573 Number of Mispredictions: 13133102
Number of LOAD Instructions: 164682285
Number of LOAD Instructions (ROI): 164682285
Number of STORE Instructions: 78194750
Number of STORE Instructions (ROI): 78194750
Total Destination Memory Operands: 83268534
Total Destination Memory Operands (ROI): 83268534
Total Source Memory Operands: 164712438
Total Source Memory Operands (ROI): 164712438
Number of DEPENDED LOADS: 7051004
Number of DEPENDED LOADS (ROI): 7051004
Number of SQ_ADDED: 83268522
Number of SQ_ADDED (ROI): 83268522
Number of LQ_ADDED: 236624775
Number of LQ_ADDED (ROI): 236624775
Number of Instructions read from trace: 600000066

ChampSim completed all CPUs

Region of Interest Statistics

CPU 0 cumulative IPC: 0.335181 instructions: 500000000 cycles: 1491731966
ITLB TOTAL     ACCESS:  100534893  HIT:  100330447  MISS:     204446
ITLB LOAD      ACCESS:  100534893  HIT:  100330447  MISS:     204446
ITLB RFO       ACCESS:          0  HIT:          0  MISS:          0
ITLB PREFETCH  ACCESS:          0  HIT:          0  MISS:          0
ITLB WRITEBACK ACCESS:          0  HIT:          0  MISS:          0
ITLB PREFETCH  REQUESTED:          0  ISSUED:          0  USEFUL:          0  USELESS:          0
ITLB TOTAL MSHR MERGED:     172424
ITLB LOAD MSHR MERGED:     172424
ITLB RFO MSHR MERGED:          0
ITLB PREFETCH MSHR MERGED:          0
ITLB WRITEBACK MSHR MERGED:          0
ITLB TOTAL ACCESSES:  100707317 HITS:  100330447 MISSES:     376870
ITLB LOAD ACCESSES:  100707317 HITS:  100330447 MISSES:     376870
ITLB RFO ACCESSES:          0 HITS:          0 MISSES:          0
ITLB PREFETCH ACCESSES:          0 HITS:          0 MISSES:          0
ITLB WRITEBACK ACCESSES:          0 HITS:          0 MISSES:          0
ITLB RQ ACCESS:  500000057
ITLB RQ TO_CACHE:  100707317
ITLB RQ MERGED:  399292740
ITLB RQ FORWARD:          0
ITLB WQ ACCESS:          0
ITLB WQ TO_CACHE:          0
ITLB WQ MERGED:          0
ITLB WQ FORWARD:          0
DTLB TOTAL     ACCESS:  165362571  HIT:  164728225  MISS:     634346
DTLB LOAD      ACCESS:  106309731  HIT:  105739681  MISS:     570050
DTLB RFO       ACCESS:   59052840  HIT:   58988544  MISS:      64296
DTLB PREFETCH  ACCESS:          0  HIT:          0  MISS:          0
DTLB WRITEBACK ACCESS:          0  HIT:          0  MISS:          0
DTLB PREFETCH  REQUESTED:          0  ISSUED:          0  USEFUL:          0  USELESS:          0
DTLB TOTAL MSHR MERGED:      99315
DTLB LOAD MSHR MERGED:      59049
DTLB RFO MSHR MERGED:      40266
DTLB PREFETCH MSHR MERGED:          0
DTLB WRITEBACK MSHR MERGED:          0
DTLB TOTAL ACCESSES:  165461886 HITS:  164728225 MISSES:     733661
DTLB LOAD ACCESSES:  106368780 HITS:  105739681 MISSES:     629099
DTLB RFO ACCESSES:   59093106 HITS:   58988544 MISSES:     104562
DTLB PREFETCH ACCESSES:          0 HITS:          0 MISSES:          0
DTLB WRITEBACK ACCESSES:          0 HITS:          0 MISSES:          0
DTLB RQ ACCESS:  200319904
DTLB RQ TO_CACHE:  165461886
DTLB RQ MERGED:   34858018
DTLB RQ FORWARD:          0
DTLB WQ ACCESS:          0
DTLB WQ TO_CACHE:          0
DTLB WQ MERGED:          0
DTLB WQ FORWARD:          0
L1D TOTAL     ACCESS:  281909373  HIT:  273999895  MISS:    7909478
L1D LOAD      ACCESS:  110441883  HIT:  107163752  MISS:    3278131
L1D RFO       ACCESS:   67137254  HIT:   66247196  MISS:     890058
L1D PREFETCH  ACCESS:  104330236  HIT:  100588947  MISS:    3741289
L1D WRITEBACK ACCESS:          0  HIT:          0  MISS:          0
L1D PREFETCH  REQUESTED:  110842595  ISSUED:  109142953  USEFUL:    1661771  USELESS:    2079482
L1D TOTAL MSHR MERGED:    2853750
L1D LOAD MSHR MERGED:     498714
L1D RFO MSHR MERGED:    1848177
L1D PREFETCH MSHR MERGED:     506859
L1D WRITEBACK MSHR MERGED:          0
L1D TOTAL ACCESSES:  284790601 HITS:  274027373 MISSES:   10763228
L1D LOAD ACCESSES:  110844065 HITS:  107165222 MISSES:    3678843
L1D RFO ACCESSES:   68974090 HITS:   66247196 MISSES:    2726894
L1D PREFETCH ACCESSES:  104972446 HITS:  100614955 MISSES:    4357491
L1D WRITEBACK ACCESSES:          0 HITS:          0 MISSES:          0
L1D RQ ACCESS:  130767301
L1D RQ TO_CACHE:  110842598
L1D RQ MERGED:   19923233
L1D RQ FORWARD:          0
L1D WQ ACCESS:   69552603
L1D WQ TO_CACHE:   68974091
L1D WQ MERGED:     578512
L1D WQ FORWARD:      27478
L1I TOTAL     ACCESS:  126576388  HIT:  122337874  MISS:    4238514
L1I LOAD      ACCESS:  126576388  HIT:  122337874  MISS:    4238514
L1I RFO       ACCESS:          0  HIT:          0  MISS:          0
L1I PREFETCH  ACCESS:          0  HIT:          0  MISS:          0
L1I WRITEBACK ACCESS:          0  HIT:          0  MISS:          0
L1I PREFETCH  REQUESTED:          0  ISSUED:          0  USEFUL:          0  USELESS:          0
L1I TOTAL MSHR MERGED:    1840978
L1I LOAD MSHR MERGED:    1840978
L1I RFO MSHR MERGED:          0
L1I PREFETCH MSHR MERGED:          0
L1I WRITEBACK MSHR MERGED:          0
L1I TOTAL ACCESSES:  128417369 HITS:  122337874 MISSES:    6079495
L1I LOAD ACCESSES:  128417369 HITS:  122337874 MISSES:    6079495
L1I RFO ACCESSES:          0 HITS:          0 MISSES:          0
L1I PREFETCH ACCESSES:          0 HITS:          0 MISSES:          0
L1I WRITEBACK ACCESSES:          0 HITS:          0 MISSES:          0
L1I RQ ACCESS:  500000057
L1I RQ TO_CACHE:  128417369
L1I RQ MERGED:  371582688
L1I RQ FORWARD:          0
L1I WQ ACCESS:          0
L1I WQ TO_CACHE:          0
L1I WQ MERGED:          0
L1I WQ FORWARD:          0
L2C TOTAL     ACCESS:   14905190  HIT:   11158728  MISS:    3746462
L2C LOAD      ACCESS:    7418436  HIT:    5098496  MISS:    2319940
L2C RFO       ACCESS:     878623  HIT:     409962  MISS:     468661
L2C PREFETCH  ACCESS:    4568878  HIT:    3628283  MISS:     940595
L2C WRITEBACK ACCESS:    2039253  HIT:    2021987  MISS:      17266
L2C PREFETCH  REQUESTED:     842826  ISSUED:     842826  USEFUL:     203409  USELESS:     736893
L2C TOTAL MSHR MERGED:       7240
L2C LOAD MSHR MERGED:        892
L2C RFO MSHR MERGED:          0
L2C PREFETCH MSHR MERGED:       6348
L2C WRITEBACK MSHR MERGED:          0
L2C TOTAL ACCESSES:   14913339 HITS:   11159171 MISSES:    3754168
L2C LOAD ACCESSES:    7418643 HITS:    5098703 MISSES:    2319940
L2C RFO ACCESSES:     878717 HITS:     410056 MISSES:     468661
L2C PREFETCH ACCESSES:    4576726 HITS:    3628425 MISSES:     948301
L2C WRITEBACK ACCESSES:    2039253 HITS:    2021987 MISSES:      17266
L2C RQ ACCESS:    8297363
L2C RQ TO_CACHE:    8297062
L2C RQ MERGED:          0
L2C RQ FORWARD:          0
L2C WQ ACCESS:    2039253
L2C WQ TO_CACHE:    2039253
L2C WQ MERGED:          0
L2C WQ FORWARD:        443
LLC TOTAL     ACCESS:    4609810  HIT:    3052311  MISS:    1557499
LLC LOAD      ACCESS:    2319036  HIT:    1248474  MISS:    1070562
LLC RFO       ACCESS:     468651  HIT:     409274  MISS:      59377
LLC PREFETCH  ACCESS:     941832  HIT:     602458  MISS:     339374
LLC WRITEBACK ACCESS:     880291  HIT:     792105  MISS:      88186
LLC PREFETCH  REQUESTED:          0  ISSUED:          0  USEFUL:      11882  USELESS:     326742
LLC TOTAL MSHR MERGED:        104
LLC LOAD MSHR MERGED:         34
LLC RFO MSHR MERGED:          0
LLC PREFETCH MSHR MERGED:         70
LLC WRITEBACK MSHR MERGED:          0
LLC TOTAL ACCESSES:    4609946 HITS:    3052343 MISSES:    1557603
LLC LOAD ACCESSES:    2319048 HITS:    1248486 MISSES:    1070562
LLC RFO ACCESSES:     468661 HITS:     409284 MISSES:      59377
LLC PREFETCH ACCESSES:     941946 HITS:     602468 MISSES:     339478
LLC WRITEBACK ACCESSES:     880291 HITS:     792105 MISSES:      88186
LLC 0 RQ ACCESS:    2787709
LLC 0 RQ TO_CACHE:    2787687
LLC 0 RQ MERGED:          0
LLC 0 RQ FORWARD:          0
LLC WQ ACCESS:     880291
LLC WQ TO_CACHE:     880291
LLC WQ MERGED:          0
LLC WQ FORWARD:         32
Major fault: 0 Minor fault: 12862
CPU 0 L1D next line prefetcher final stats
CPU 0 L2C PC-based stride prefetcher final stats
All Misses: 1810195
All Hits: 3616621
SD Algo Stats - Switches: 0 SRR-Repls: 1206854 BRR-Repls: 0

DRAM Statistics
 CHANNEL 0
 RQ ROW_BUFFER_HIT:     444404  ROW_BUFFER_MISS:    1021685
 DBUS_CONGESTED:     525119
 WQ ROW_BUFFER_HIT:       9243  ROW_BUFFER_MISS:     173891  FULL:          0

 AVG_CONGESTED_CYCLE: 13
LOADS RETIRED: 136549171
INSTR RETIRED: 500000000
