
*** ChampSim Multicore Out-of-Order Simulator ***

Warmup Instructions: 100000000
Simulation Instructions: 500000000
Number of CPUs: 1
LLC sets: 2048
LLC ways: 16
Clean RRIP Policies: 2202230122022301 Dirty RRIP Policies: 2202031122020311 PSEL Width: 10 Track Set: 4294967295 PSEL Mask: 1 Demote Mask: 4441011144410111DS Algo: 0Window size: 0
Off-chip DRAM Size: 4096 MB Channels: 1 Width: 64-bit Data Rate: 1600 MT/s

CPU 0 runs /mnt/beegfs/iconst01/spec2017/Blender.trace.gz
NOT SORTED
TRACE STRING: /mnt/beegfs/iconst01/spec2017/Blender.trace.gz
SORTED
TRACE STRING: /mnt/beegfs/iconst01/spec2017/Blender.trace.gz
INITIAL
TRACE STRING: /mnt/beegfs/iconst01/spec2017/Blender.trace.gz

champsim_seed used: 700

CPU 0 L1D next line prefetcher
CPU 0 L2C IP-based stride prefetcher
Initialize DRRIP state
Assign rand_sets[0]: 454  LLC: 2048
rand_sets[0]: 454
Assign rand_sets[1]: 1662  LLC: 2048
rand_sets[1]: 1662
Assign rand_sets[2]: 1921  LLC: 2048
rand_sets[2]: 1921
Assign rand_sets[3]: 1131  LLC: 2048
rand_sets[3]: 1131
Assign rand_sets[4]: 331  LLC: 2048
rand_sets[4]: 331
Assign rand_sets[5]: 1531  LLC: 2048
rand_sets[5]: 1531
Assign rand_sets[6]: 482  LLC: 2048
rand_sets[6]: 482
Assign rand_sets[7]: 1275  LLC: 2048
rand_sets[7]: 1275
Assign rand_sets[8]: 1876  LLC: 2048
rand_sets[8]: 1876
Assign rand_sets[9]: 2038  LLC: 2048
rand_sets[9]: 2038
Assign rand_sets[10]: 701  LLC: 2048
rand_sets[10]: 701
Assign rand_sets[11]: 479  LLC: 2048
rand_sets[11]: 479
Assign rand_sets[12]: 892  LLC: 2048
rand_sets[12]: 892
Assign rand_sets[13]: 1820  LLC: 2048
rand_sets[13]: 1820
Assign rand_sets[14]: 1505  LLC: 2048
rand_sets[14]: 1505
Assign rand_sets[15]: 1159  LLC: 2048
rand_sets[15]: 1159
Assign rand_sets[16]: 513  LLC: 2048
rand_sets[16]: 513
Assign rand_sets[17]: 703  LLC: 2048
rand_sets[17]: 703
Assign rand_sets[18]: 561  LLC: 2048
rand_sets[18]: 561
Assign rand_sets[19]: 990  LLC: 2048
rand_sets[19]: 990
Assign rand_sets[20]: 342  LLC: 2048
rand_sets[20]: 342
Assign rand_sets[21]: 882  LLC: 2048
rand_sets[21]: 882
Assign rand_sets[22]: 15  LLC: 2048
rand_sets[22]: 15
Assign rand_sets[23]: 71  LLC: 2048
rand_sets[23]: 71
Assign rand_sets[24]: 1127  LLC: 2048
rand_sets[24]: 1127
Assign rand_sets[25]: 1382  LLC: 2048
rand_sets[25]: 1382
Assign rand_sets[26]: 647  LLC: 2048
rand_sets[26]: 647
Assign rand_sets[27]: 857  LLC: 2048
rand_sets[27]: 857
Assign rand_sets[28]: 1450  LLC: 2048
rand_sets[28]: 1450
Assign rand_sets[29]: 1160  LLC: 2048
rand_sets[29]: 1160
Assign rand_sets[30]: 1852  LLC: 2048
rand_sets[30]: 1852
Assign rand_sets[31]: 1881  LLC: 2048
rand_sets[31]: 1881
Assign rand_sets[32]: 1770  LLC: 2048
rand_sets[32]: 1770
Assign rand_sets[33]: 1622  LLC: 2048
rand_sets[33]: 1622
Assign rand_sets[34]: 275  LLC: 2048
rand_sets[34]: 275
Assign rand_sets[35]: 635  LLC: 2048
rand_sets[35]: 635
Assign rand_sets[36]: 466  LLC: 2048
rand_sets[36]: 466
Assign rand_sets[37]: 1413  LLC: 2048
rand_sets[37]: 1413
Assign rand_sets[38]: 417  LLC: 2048
rand_sets[38]: 417
Assign rand_sets[39]: 472  LLC: 2048
rand_sets[39]: 472
Assign rand_sets[40]: 1340  LLC: 2048
rand_sets[40]: 1340
Assign rand_sets[41]: 852  LLC: 2048
rand_sets[41]: 852
Assign rand_sets[42]: 1365  LLC: 2048
rand_sets[42]: 1365
Assign rand_sets[43]: 47  LLC: 2048
rand_sets[43]: 47
Assign rand_sets[44]: 823  LLC: 2048
rand_sets[44]: 823
Assign rand_sets[45]: 686  LLC: 2048
rand_sets[45]: 686
Assign rand_sets[46]: 1637  LLC: 2048
rand_sets[46]: 1637
Assign rand_sets[47]: 1115  LLC: 2048
rand_sets[47]: 1115
Assign rand_sets[48]: 986  LLC: 2048
rand_sets[48]: 986
Assign rand_sets[49]: 258  LLC: 2048
rand_sets[49]: 258
Assign rand_sets[50]: 633  LLC: 2048
rand_sets[50]: 633
Assign rand_sets[51]: 920  LLC: 2048
rand_sets[51]: 920
Assign rand_sets[52]: 204  LLC: 2048
rand_sets[52]: 204
Assign rand_sets[53]: 227  LLC: 2048
rand_sets[53]: 227
Assign rand_sets[54]: 1818  LLC: 2048
rand_sets[54]: 1818
Assign rand_sets[55]: 886  LLC: 2048
rand_sets[55]: 886
Assign rand_sets[56]: 1422  LLC: 2048
rand_sets[56]: 1422
Assign rand_sets[57]: 607  LLC: 2048
rand_sets[57]: 607
Assign rand_sets[58]: 217  LLC: 2048
rand_sets[58]: 217
Assign rand_sets[59]: 1945  LLC: 2048
rand_sets[59]: 1945
Assign rand_sets[60]: 143  LLC: 2048
rand_sets[60]: 143
Assign rand_sets[61]: 1311  LLC: 2048
rand_sets[61]: 1311
Assign rand_sets[62]: 319  LLC: 2048
rand_sets[62]: 319
Assign rand_sets[63]: 1846  LLC: 2048
rand_sets[63]: 1846
 CLEAN-RRIP-POLICY-1: 2-2-0-2-2-3-0-1- CLEAN-RRIP-POLICY-2: 2-2-0-2-2-3-0-1-
 DIRTY-RRIP-POLICY-1: 2-2-0-2-0-3-1-1- DIRTY-RRIP-POLICY-2: 2-2-0-2-0-3-1-1-
 PSEL width: 10
Heartbeat CPU 0 instructions: 10000002 cycles: 5480874 heartbeat IPC: 1.82453 cumulative IPC: 1.82453 (Simulation time: 0 hr 0 min 13 sec) 
Heartbeat CPU 0 instructions: 20000000 cycles: 10913471 heartbeat IPC: 1.84074 cumulative IPC: 1.8326 (Simulation time: 0 hr 0 min 25 sec) 
Heartbeat CPU 0 instructions: 30000000 cycles: 16447402 heartbeat IPC: 1.80703 cumulative IPC: 1.824 (Simulation time: 0 hr 0 min 38 sec) 
Heartbeat CPU 0 instructions: 40000000 cycles: 21898291 heartbeat IPC: 1.83456 cumulative IPC: 1.82663 (Simulation time: 0 hr 0 min 51 sec) 
Heartbeat CPU 0 instructions: 50000000 cycles: 27400369 heartbeat IPC: 1.8175 cumulative IPC: 1.82479 (Simulation time: 0 hr 1 min 3 sec) 
Heartbeat CPU 0 instructions: 60000000 cycles: 32779321 heartbeat IPC: 1.8591 cumulative IPC: 1.83042 (Simulation time: 0 hr 1 min 16 sec) 
Heartbeat CPU 0 instructions: 70000001 cycles: 38335681 heartbeat IPC: 1.79974 cumulative IPC: 1.82598 (Simulation time: 0 hr 1 min 29 sec) 
Heartbeat CPU 0 instructions: 80000000 cycles: 43795923 heartbeat IPC: 1.83142 cumulative IPC: 1.82665 (Simulation time: 0 hr 1 min 41 sec) 
Heartbeat CPU 0 instructions: 90000000 cycles: 49242790 heartbeat IPC: 1.83592 cumulative IPC: 1.82768 (Simulation time: 0 hr 1 min 54 sec) 
Heartbeat CPU 0 instructions: 100000000 cycles: 54787976 heartbeat IPC: 1.80337 cumulative IPC: 1.82522 (Simulation time: 0 hr 2 min 7 sec) 

Warmup complete CPU 0 instructions: 100000002 cycles: 54787977 (Simulation time: 0 hr 2 min 7 sec) 

Heartbeat CPU 0 instructions: 110000001 cycles: 69198525 heartbeat IPC: 0.693936 cumulative IPC: 0.693936 (Simulation time: 0 hr 2 min 25 sec) 
Heartbeat CPU 0 instructions: 120000000 cycles: 84208710 heartbeat IPC: 0.666214 cumulative IPC: 0.679793 (Simulation time: 0 hr 2 min 44 sec) 
Heartbeat CPU 0 instructions: 130000000 cycles: 98713421 heartbeat IPC: 0.689431 cumulative IPC: 0.682975 (Simulation time: 0 hr 3 min 2 sec) 
Heartbeat CPU 0 instructions: 140000000 cycles: 113060081 heartbeat IPC: 0.697026 cumulative IPC: 0.686435 (Simulation time: 0 hr 3 min 20 sec) 
Heartbeat CPU 0 instructions: 150000000 cycles: 127767994 heartbeat IPC: 0.679906 cumulative IPC: 0.685119 (Simulation time: 0 hr 3 min 39 sec) 
Heartbeat CPU 0 instructions: 160000000 cycles: 142896999 heartbeat IPC: 0.660982 cumulative IPC: 0.680974 (Simulation time: 0 hr 3 min 57 sec) 
Heartbeat CPU 0 instructions: 170000001 cycles: 157770108 heartbeat IPC: 0.672354 cumulative IPC: 0.67973 (Simulation time: 0 hr 4 min 15 sec) 
Heartbeat CPU 0 instructions: 180000000 cycles: 172710591 heartbeat IPC: 0.669322 cumulative IPC: 0.678411 (Simulation time: 0 hr 4 min 34 sec) 
Heartbeat CPU 0 instructions: 190000002 cycles: 187190322 heartbeat IPC: 0.690621 cumulative IPC: 0.679746 (Simulation time: 0 hr 4 min 52 sec) 
Heartbeat CPU 0 instructions: 200000000 cycles: 201560166 heartbeat IPC: 0.695902 cumulative IPC: 0.681328 (Simulation time: 0 hr 5 min 10 sec) 
Heartbeat CPU 0 instructions: 210000003 cycles: 216187532 heartbeat IPC: 0.68365 cumulative IPC: 0.681538 (Simulation time: 0 hr 5 min 29 sec) 
Heartbeat CPU 0 instructions: 220000000 cycles: 230891669 heartbeat IPC: 0.680081 cumulative IPC: 0.681417 (Simulation time: 0 hr 5 min 47 sec) 
Heartbeat CPU 0 instructions: 230000001 cycles: 246019964 heartbeat IPC: 0.661013 cumulative IPC: 0.679803 (Simulation time: 0 hr 6 min 6 sec) 
Heartbeat CPU 0 instructions: 240000000 cycles: 260926863 heartbeat IPC: 0.67083 cumulative IPC: 0.679154 (Simulation time: 0 hr 6 min 24 sec) 
Heartbeat CPU 0 instructions: 250000003 cycles: 275765405 heartbeat IPC: 0.673921 cumulative IPC: 0.678802 (Simulation time: 0 hr 6 min 42 sec) 
Heartbeat CPU 0 instructions: 260000000 cycles: 291260780 heartbeat IPC: 0.645354 cumulative IPC: 0.676611 (Simulation time: 0 hr 7 min 1 sec) 
Heartbeat CPU 0 instructions: 270000003 cycles: 305860020 heartbeat IPC: 0.684967 cumulative IPC: 0.677096 (Simulation time: 0 hr 7 min 20 sec) 
Heartbeat CPU 0 instructions: 280000000 cycles: 320344921 heartbeat IPC: 0.690374 cumulative IPC: 0.677821 (Simulation time: 0 hr 7 min 38 sec) 
Heartbeat CPU 0 instructions: 290000002 cycles: 334793591 heartbeat IPC: 0.692105 cumulative IPC: 0.678558 (Simulation time: 0 hr 7 min 56 sec) 
Heartbeat CPU 0 instructions: 300000000 cycles: 350205600 heartbeat IPC: 0.648845 cumulative IPC: 0.677008 (Simulation time: 0 hr 8 min 15 sec) 
Heartbeat CPU 0 instructions: 310000000 cycles: 365181590 heartbeat IPC: 0.667736 cumulative IPC: 0.67656 (Simulation time: 0 hr 8 min 33 sec) 
Heartbeat CPU 0 instructions: 320000000 cycles: 379993642 heartbeat IPC: 0.675126 cumulative IPC: 0.676495 (Simulation time: 0 hr 8 min 51 sec) 
Heartbeat CPU 0 instructions: 330000000 cycles: 395772577 heartbeat IPC: 0.633756 cumulative IPC: 0.674517 (Simulation time: 0 hr 9 min 10 sec) 
Heartbeat CPU 0 instructions: 340000000 cycles: 410406294 heartbeat IPC: 0.683353 cumulative IPC: 0.674881 (Simulation time: 0 hr 9 min 28 sec) 
Heartbeat CPU 0 instructions: 350000000 cycles: 425032223 heartbeat IPC: 0.683717 cumulative IPC: 0.67523 (Simulation time: 0 hr 9 min 46 sec) 
Heartbeat CPU 0 instructions: 360000000 cycles: 439694549 heartbeat IPC: 0.68202 cumulative IPC: 0.675489 (Simulation time: 0 hr 10 min 4 sec) 
Heartbeat CPU 0 instructions: 370000002 cycles: 455117737 heartbeat IPC: 0.648374 cumulative IPC: 0.674444 (Simulation time: 0 hr 10 min 23 sec) 
Heartbeat CPU 0 instructions: 380000000 cycles: 469959115 heartbeat IPC: 0.673792 cumulative IPC: 0.674421 (Simulation time: 0 hr 10 min 42 sec) 
Heartbeat CPU 0 instructions: 390000003 cycles: 484919998 heartbeat IPC: 0.66841 cumulative IPC: 0.674212 (Simulation time: 0 hr 11 min 0 sec) 
Heartbeat CPU 0 instructions: 400000000 cycles: 500770863 heartbeat IPC: 0.63088 cumulative IPC: 0.672672 (Simulation time: 0 hr 11 min 18 sec) 
Heartbeat CPU 0 instructions: 410000001 cycles: 515793105 heartbeat IPC: 0.66568 cumulative IPC: 0.672444 (Simulation time: 0 hr 11 min 37 sec) 
Heartbeat CPU 0 instructions: 420000000 cycles: 530532939 heartbeat IPC: 0.678434 cumulative IPC: 0.672629 (Simulation time: 0 hr 11 min 54 sec) 
Heartbeat CPU 0 instructions: 430000000 cycles: 545935517 heartbeat IPC: 0.649242 cumulative IPC: 0.671896 (Simulation time: 0 hr 12 min 13 sec) 
Heartbeat CPU 0 instructions: 440000000 cycles: 560740020 heartbeat IPC: 0.67547 cumulative IPC: 0.672 (Simulation time: 0 hr 12 min 31 sec) 
Heartbeat CPU 0 instructions: 450000000 cycles: 575719145 heartbeat IPC: 0.667596 cumulative IPC: 0.671874 (Simulation time: 0 hr 12 min 49 sec) 
Heartbeat CPU 0 instructions: 460000000 cycles: 591474443 heartbeat IPC: 0.634707 cumulative IPC: 0.670783 (Simulation time: 0 hr 13 min 7 sec) 
Heartbeat CPU 0 instructions: 470000000 cycles: 606552334 heartbeat IPC: 0.663223 cumulative IPC: 0.670576 (Simulation time: 0 hr 13 min 25 sec) 
Heartbeat CPU 0 instructions: 480000000 cycles: 621435286 heartbeat IPC: 0.67191 cumulative IPC: 0.670611 (Simulation time: 0 hr 13 min 43 sec) 
Heartbeat CPU 0 instructions: 490000002 cycles: 636708951 heartbeat IPC: 0.654722 cumulative IPC: 0.670194 (Simulation time: 0 hr 14 min 2 sec) 
Heartbeat CPU 0 instructions: 500000000 cycles: 651579902 heartbeat IPC: 0.672452 cumulative IPC: 0.67025 (Simulation time: 0 hr 14 min 20 sec) 
Heartbeat CPU 0 instructions: 510000001 cycles: 666688215 heartbeat IPC: 0.661887 cumulative IPC: 0.670044 (Simulation time: 0 hr 14 min 38 sec) 
Heartbeat CPU 0 instructions: 520000000 cycles: 682153015 heartbeat IPC: 0.64663 cumulative IPC: 0.669467 (Simulation time: 0 hr 14 min 56 sec) 
Heartbeat CPU 0 instructions: 530000001 cycles: 697585040 heartbeat IPC: 0.648003 cumulative IPC: 0.668951 (Simulation time: 0 hr 15 min 14 sec) 
Heartbeat CPU 0 instructions: 540000000 cycles: 712168846 heartbeat IPC: 0.685692 cumulative IPC: 0.669323 (Simulation time: 0 hr 15 min 32 sec) 
Heartbeat CPU 0 instructions: 550000001 cycles: 727425606 heartbeat IPC: 0.655447 cumulative IPC: 0.669008 (Simulation time: 0 hr 15 min 51 sec) 
Heartbeat CPU 0 instructions: 560000000 cycles: 742229000 heartbeat IPC: 0.675521 cumulative IPC: 0.669148 (Simulation time: 0 hr 16 min 9 sec) 
Heartbeat CPU 0 instructions: 570000002 cycles: 757377687 heartbeat IPC: 0.660123 cumulative IPC: 0.668954 (Simulation time: 0 hr 16 min 27 sec) 
Heartbeat CPU 0 instructions: 580000000 cycles: 772395660 heartbeat IPC: 0.665869 cumulative IPC: 0.668889 (Simulation time: 0 hr 16 min 45 sec) 
Heartbeat CPU 0 instructions: 590000001 cycles: 787400491 heartbeat IPC: 0.666452 cumulative IPC: 0.668839 (Simulation time: 0 hr 17 min 3 sec) 
Heartbeat CPU 0 instructions: 600000000 cycles: 802054133 heartbeat IPC: 0.682424 cumulative IPC: 0.669106 (Simulation time: 0 hr 17 min 21 sec) 
Finished CPU 0 instructions: 500000000 cycles: 747266164 cumulative IPC: 0.669106 (Simulation time: 0 hr 17 min 21 sec) 

CPU 0 Branch Prediction Accuracy: 93.7783% MPKI: 10.0718
Number of Branches: 80940586 Number of Mispredictions: 5035908
Number of LOAD Instructions: 184238101
Number of LOAD Instructions (ROI): 184238101
Number of STORE Instructions: 33143298
Number of STORE Instructions (ROI): 33143298
Total Destination Memory Operands: 33324321
Total Destination Memory Operands (ROI): 33324321
Total Source Memory Operands: 184238101
Total Source Memory Operands (ROI): 184238101
Number of DEPENDED LOADS: 4461484
Number of DEPENDED LOADS (ROI): 4461484
Number of SQ_ADDED: 33324292
Number of SQ_ADDED (ROI): 33324292
Number of LQ_ADDED: 184866961
Number of LQ_ADDED (ROI): 184866961
Number of Instructions read from trace: 600000256

ChampSim completed all CPUs

Region of Interest Statistics

CPU 0 cumulative IPC: 0.669106 instructions: 500000000 cycles: 747266164
ITLB TOTAL     ACCESS:   77746144  HIT:   77746144  MISS:          0
ITLB LOAD      ACCESS:   77746144  HIT:   77746144  MISS:          0
ITLB RFO       ACCESS:          0  HIT:          0  MISS:          0
ITLB PREFETCH  ACCESS:          0  HIT:          0  MISS:          0
ITLB WRITEBACK ACCESS:          0  HIT:          0  MISS:          0
ITLB PREFETCH  REQUESTED:          0  ISSUED:          0  USEFUL:          0  USELESS:          0
ITLB TOTAL MSHR MERGED:          0
ITLB LOAD MSHR MERGED:          0
ITLB RFO MSHR MERGED:          0
ITLB PREFETCH MSHR MERGED:          0
ITLB WRITEBACK MSHR MERGED:          0
ITLB TOTAL ACCESSES:   77746144 HITS:   77746144 MISSES:          0
ITLB LOAD ACCESSES:   77746144 HITS:   77746144 MISSES:          0
ITLB RFO ACCESSES:          0 HITS:          0 MISSES:          0
ITLB PREFETCH ACCESSES:          0 HITS:          0 MISSES:          0
ITLB WRITEBACK ACCESSES:          0 HITS:          0 MISSES:          0
ITLB RQ ACCESS:  500000245
ITLB RQ TO_CACHE:   77746144
ITLB RQ MERGED:  422254101
ITLB RQ FORWARD:          0
ITLB WQ ACCESS:          0
ITLB WQ TO_CACHE:          0
ITLB WQ MERGED:          0
ITLB WQ FORWARD:          0
DTLB TOTAL     ACCESS:   88436840  HIT:   87299990  MISS:    1136850
DTLB LOAD      ACCESS:   66310120  HIT:   65177510  MISS:    1132610
DTLB RFO       ACCESS:   22126720  HIT:   22122480  MISS:       4240
DTLB PREFETCH  ACCESS:          0  HIT:          0  MISS:          0
DTLB WRITEBACK ACCESS:          0  HIT:          0  MISS:          0
DTLB PREFETCH  REQUESTED:          0  ISSUED:          0  USEFUL:          0  USELESS:          0
DTLB TOTAL MSHR MERGED:     135527
DTLB LOAD MSHR MERGED:     133710
DTLB RFO MSHR MERGED:       1817
DTLB PREFETCH MSHR MERGED:          0
DTLB WRITEBACK MSHR MERGED:          0
DTLB TOTAL ACCESSES:   88572367 HITS:   87299990 MISSES:    1272377
DTLB LOAD ACCESSES:   66443830 HITS:   65177510 MISSES:    1266320
DTLB RFO ACCESSES:   22128537 HITS:   22122480 MISSES:       6057
DTLB PREFETCH ACCESSES:          0 HITS:          0 MISSES:          0
DTLB WRITEBACK ACCESSES:          0 HITS:          0 MISSES:          0
DTLB RQ ACCESS:  177579221
DTLB RQ TO_CACHE:   88572367
DTLB RQ MERGED:   89006854
DTLB RQ FORWARD:          0
DTLB WQ ACCESS:          0
DTLB WQ TO_CACHE:          0
DTLB WQ MERGED:          0
DTLB WQ FORWARD:          0
L1D TOTAL     ACCESS:  142110721  HIT:  136551659  MISS:    5559062
L1D LOAD      ACCESS:   61384439  HIT:   58284272  MISS:    3100167
L1D RFO       ACCESS:   27666883  HIT:   27585062  MISS:      81821
L1D PREFETCH  ACCESS:   53059399  HIT:   50682325  MISS:    2377074
L1D WRITEBACK ACCESS:          0  HIT:          0  MISS:          0
L1D PREFETCH  REQUESTED:   61670478  ISSUED:   60752299  USEFUL:     670188  USELESS:    1706891
L1D TOTAL MSHR MERGED:    1169150
L1D LOAD MSHR MERGED:     380558
L1D RFO MSHR MERGED:     166210
L1D PREFETCH MSHR MERGED:     622382
L1D WRITEBACK MSHR MERGED:          0
L1D TOTAL ACCESSES:  143377488 HITS:  136649276 MISSES:    6728212
L1D LOAD ACCESSES:   61670489 HITS:   58284283 MISSES:    3386206
L1D RFO ACCESSES:   27829287 HITS:   27585062 MISSES:     244225
L1D PREFETCH ACCESSES:   53877712 HITS:   50779931 MISSES:    3097781
L1D WRITEBACK ACCESSES:          0 HITS:          0 MISSES:          0
L1D RQ ACCESS:  149746255
L1D RQ TO_CACHE:   61670478
L1D RQ MERGED:   88075766
L1D RQ FORWARD:          0
L1D WQ ACCESS:   27832966
L1D WQ TO_CACHE:   27829287
L1D WQ MERGED:       3679
L1D WQ FORWARD:      97617
L1I TOTAL     ACCESS:   96223413  HIT:   96064149  MISS:     159264
L1I LOAD      ACCESS:   96223413  HIT:   96064149  MISS:     159264
L1I RFO       ACCESS:          0  HIT:          0  MISS:          0
L1I PREFETCH  ACCESS:          0  HIT:          0  MISS:          0
L1I WRITEBACK ACCESS:          0  HIT:          0  MISS:          0
L1I PREFETCH  REQUESTED:          0  ISSUED:          0  USEFUL:          0  USELESS:          0
L1I TOTAL MSHR MERGED:     130237
L1I LOAD MSHR MERGED:     130237
L1I RFO MSHR MERGED:          0
L1I PREFETCH MSHR MERGED:          0
L1I WRITEBACK MSHR MERGED:          0
L1I TOTAL ACCESSES:   96353650 HITS:   96064149 MISSES:     289501
L1I LOAD ACCESSES:   96353650 HITS:   96064149 MISSES:     289501
L1I RFO ACCESSES:          0 HITS:          0 MISSES:          0
L1I PREFETCH ACCESSES:          0 HITS:          0 MISSES:          0
L1I WRITEBACK ACCESSES:          0 HITS:          0 MISSES:          0
L1I RQ ACCESS:  500000245
L1I RQ TO_CACHE:   96353650
L1I RQ MERGED:  403646595
L1I RQ FORWARD:          0
L1I WQ ACCESS:          0
L1I WQ TO_CACHE:          0
L1I WQ MERGED:          0
L1I WQ FORWARD:          0
L2C TOTAL     ACCESS:    5911533  HIT:    3062863  MISS:    2848670
L2C LOAD      ACCESS:    3164902  HIT:    1583261  MISS:    1581641
L2C RFO       ACCESS:      77940  HIT:      45087  MISS:      32853
L2C PREFETCH  ACCESS:    2525160  HIT:    1296567  MISS:    1228593
L2C WRITEBACK ACCESS:     143531  HIT:     137948  MISS:       5583
L2C PREFETCH  REQUESTED:      52724  ISSUED:      52724  USEFUL:      18907  USELESS:    1209726
L2C TOTAL MSHR MERGED:       2030
L2C LOAD MSHR MERGED:        702
L2C RFO MSHR MERGED:          0
L2C PREFETCH MSHR MERGED:       1328
L2C WRITEBACK MSHR MERGED:          0
L2C TOTAL ACCESSES:    5913656 HITS:    3062948 MISSES:    2850708
L2C LOAD ACCESSES:    3164912 HITS:    1583271 MISSES:    1581641
L2C RFO ACCESSES:      78015 HITS:      45162 MISSES:      32853
L2C PREFETCH ACCESSES:    2527198 HITS:    1296567 MISSES:    1230631
L2C WRITEBACK ACCESSES:     143531 HITS:     137948 MISSES:       5583
L2C RQ ACCESS:    3242927
L2C RQ TO_CACHE:    3242842
L2C RQ MERGED:          0
L2C RQ FORWARD:          0
L2C WQ ACCESS:     143531
L2C WQ TO_CACHE:     143531
L2C WQ MERGED:          0
L2C WQ FORWARD:         85
LLC TOTAL     ACCESS:    2892629  HIT:    1891064  MISS:    1001565
LLC LOAD      ACCESS:    1580939  HIT:    1127872  MISS:     453067
LLC RFO       ACCESS:      32843  HIT:      30351  MISS:       2492
LLC PREFETCH  ACCESS:    1229302  HIT:     685968  MISS:     543334
LLC WRITEBACK ACCESS:      49545  HIT:      46873  MISS:       2672
LLC PREFETCH  REQUESTED:          0  ISSUED:          0  USEFUL:       3474  USELESS:     540400
LLC TOTAL MSHR MERGED:          0
LLC LOAD MSHR MERGED:          0
LLC RFO MSHR MERGED:          0
LLC PREFETCH MSHR MERGED:          0
LLC WRITEBACK MSHR MERGED:          0
LLC TOTAL ACCESSES:    2892639 HITS:    1891074 MISSES:    1001565
LLC LOAD ACCESSES:    1580939 HITS:    1127872 MISSES:     453067
LLC RFO ACCESSES:      32853 HITS:      30361 MISSES:       2492
LLC PREFETCH ACCESSES:    1229302 HITS:     685968 MISSES:     543334
LLC WRITEBACK ACCESSES:      49545 HITS:      46873 MISSES:       2672
LLC 0 RQ ACCESS:    1613792
LLC 0 RQ TO_CACHE:    1613782
LLC 0 RQ MERGED:          0
LLC 0 RQ FORWARD:          0
LLC WQ ACCESS:      49545
LLC WQ TO_CACHE:      49545
LLC WQ MERGED:          0
LLC WQ FORWARD:         10
Major fault: 0 Minor fault: 8460
CPU 0 L1D next line prefetcher final stats
CPU 0 L2C PC-based stride prefetcher final stats
All Misses: 1196009
All Hits: 2233215
SD Algo Stats - Switches: 0 SRR-Repls: 525874 BRR-Repls: 0

DRAM Statistics
 CHANNEL 0
 RQ ROW_BUFFER_HIT:     336497  ROW_BUFFER_MISS:     659592
 DBUS_CONGESTED:     327036
 WQ ROW_BUFFER_HIT:        973  ROW_BUFFER_MISS:       2960  FULL:          0

 AVG_CONGESTED_CYCLE: 12
LOADS RETIRED: 153532848
INSTR RETIRED: 500000000
