
*** ChampSim Multicore Out-of-Order Simulator ***

Warmup Instructions: 100000000
Simulation Instructions: 500000000
Number of CPUs: 1
LLC sets: 2048
LLC ways: 16
Clean RRIP Policies: 1213030012130300 Dirty RRIP Policies: 2203130022031300 PSEL Width: 10 Track Set: 4294967295 PSEL Mask: 1 Demote Mask: 3040201030402010DS Algo: 0Window size: 0
Off-chip DRAM Size: 4096 MB Channels: 1 Width: 64-bit Data Rate: 1600 MT/s

CPU 0 runs /mnt/beegfs/iconst01/spec2017/Cam4.trace.gz
NOT SORTED
TRACE STRING: /mnt/beegfs/iconst01/spec2017/Cam4.trace.gz
SORTED
TRACE STRING: /mnt/beegfs/iconst01/spec2017/Cam4.trace.gz
INITIAL
TRACE STRING: /mnt/beegfs/iconst01/spec2017/Cam4.trace.gz

champsim_seed used: 325

CPU 0 L1D next line prefetcher
CPU 0 L2C IP-based stride prefetcher
Initialize DRRIP state
Assign rand_sets[0]: 454  LLC: 2048
rand_sets[0]: 454
Assign rand_sets[1]: 1662  LLC: 2048
rand_sets[1]: 1662
Assign rand_sets[2]: 1921  LLC: 2048
rand_sets[2]: 1921
Assign rand_sets[3]: 1131  LLC: 2048
rand_sets[3]: 1131
Assign rand_sets[4]: 331  LLC: 2048
rand_sets[4]: 331
Assign rand_sets[5]: 1531  LLC: 2048
rand_sets[5]: 1531
Assign rand_sets[6]: 482  LLC: 2048
rand_sets[6]: 482
Assign rand_sets[7]: 1275  LLC: 2048
rand_sets[7]: 1275
Assign rand_sets[8]: 1876  LLC: 2048
rand_sets[8]: 1876
Assign rand_sets[9]: 2038  LLC: 2048
rand_sets[9]: 2038
Assign rand_sets[10]: 701  LLC: 2048
rand_sets[10]: 701
Assign rand_sets[11]: 479  LLC: 2048
rand_sets[11]: 479
Assign rand_sets[12]: 892  LLC: 2048
rand_sets[12]: 892
Assign rand_sets[13]: 1820  LLC: 2048
rand_sets[13]: 1820
Assign rand_sets[14]: 1505  LLC: 2048
rand_sets[14]: 1505
Assign rand_sets[15]: 1159  LLC: 2048
rand_sets[15]: 1159
Assign rand_sets[16]: 513  LLC: 2048
rand_sets[16]: 513
Assign rand_sets[17]: 703  LLC: 2048
rand_sets[17]: 703
Assign rand_sets[18]: 561  LLC: 2048
rand_sets[18]: 561
Assign rand_sets[19]: 990  LLC: 2048
rand_sets[19]: 990
Assign rand_sets[20]: 342  LLC: 2048
rand_sets[20]: 342
Assign rand_sets[21]: 882  LLC: 2048
rand_sets[21]: 882
Assign rand_sets[22]: 15  LLC: 2048
rand_sets[22]: 15
Assign rand_sets[23]: 71  LLC: 2048
rand_sets[23]: 71
Assign rand_sets[24]: 1127  LLC: 2048
rand_sets[24]: 1127
Assign rand_sets[25]: 1382  LLC: 2048
rand_sets[25]: 1382
Assign rand_sets[26]: 647  LLC: 2048
rand_sets[26]: 647
Assign rand_sets[27]: 857  LLC: 2048
rand_sets[27]: 857
Assign rand_sets[28]: 1450  LLC: 2048
rand_sets[28]: 1450
Assign rand_sets[29]: 1160  LLC: 2048
rand_sets[29]: 1160
Assign rand_sets[30]: 1852  LLC: 2048
rand_sets[30]: 1852
Assign rand_sets[31]: 1881  LLC: 2048
rand_sets[31]: 1881
Assign rand_sets[32]: 1770  LLC: 2048
rand_sets[32]: 1770
Assign rand_sets[33]: 1622  LLC: 2048
rand_sets[33]: 1622
Assign rand_sets[34]: 275  LLC: 2048
rand_sets[34]: 275
Assign rand_sets[35]: 635  LLC: 2048
rand_sets[35]: 635
Assign rand_sets[36]: 466  LLC: 2048
rand_sets[36]: 466
Assign rand_sets[37]: 1413  LLC: 2048
rand_sets[37]: 1413
Assign rand_sets[38]: 417  LLC: 2048
rand_sets[38]: 417
Assign rand_sets[39]: 472  LLC: 2048
rand_sets[39]: 472
Assign rand_sets[40]: 1340  LLC: 2048
rand_sets[40]: 1340
Assign rand_sets[41]: 852  LLC: 2048
rand_sets[41]: 852
Assign rand_sets[42]: 1365  LLC: 2048
rand_sets[42]: 1365
Assign rand_sets[43]: 47  LLC: 2048
rand_sets[43]: 47
Assign rand_sets[44]: 823  LLC: 2048
rand_sets[44]: 823
Assign rand_sets[45]: 686  LLC: 2048
rand_sets[45]: 686
Assign rand_sets[46]: 1637  LLC: 2048
rand_sets[46]: 1637
Assign rand_sets[47]: 1115  LLC: 2048
rand_sets[47]: 1115
Assign rand_sets[48]: 986  LLC: 2048
rand_sets[48]: 986
Assign rand_sets[49]: 258  LLC: 2048
rand_sets[49]: 258
Assign rand_sets[50]: 633  LLC: 2048
rand_sets[50]: 633
Assign rand_sets[51]: 920  LLC: 2048
rand_sets[51]: 920
Assign rand_sets[52]: 204  LLC: 2048
rand_sets[52]: 204
Assign rand_sets[53]: 227  LLC: 2048
rand_sets[53]: 227
Assign rand_sets[54]: 1818  LLC: 2048
rand_sets[54]: 1818
Assign rand_sets[55]: 886  LLC: 2048
rand_sets[55]: 886
Assign rand_sets[56]: 1422  LLC: 2048
rand_sets[56]: 1422
Assign rand_sets[57]: 607  LLC: 2048
rand_sets[57]: 607
Assign rand_sets[58]: 217  LLC: 2048
rand_sets[58]: 217
Assign rand_sets[59]: 1945  LLC: 2048
rand_sets[59]: 1945
Assign rand_sets[60]: 143  LLC: 2048
rand_sets[60]: 143
Assign rand_sets[61]: 1311  LLC: 2048
rand_sets[61]: 1311
Assign rand_sets[62]: 319  LLC: 2048
rand_sets[62]: 319
Assign rand_sets[63]: 1846  LLC: 2048
rand_sets[63]: 1846
 CLEAN-RRIP-POLICY-1: 1-2-1-3-0-3-0-0- CLEAN-RRIP-POLICY-2: 1-2-1-3-0-3-0-0-
 DIRTY-RRIP-POLICY-1: 2-2-0-3-1-3-0-0- DIRTY-RRIP-POLICY-2: 2-2-0-3-1-3-0-0-
 PSEL width: 10
Heartbeat CPU 0 instructions: 10000000 cycles: 4859184 heartbeat IPC: 2.05796 cumulative IPC: 2.05796 (Simulation time: 0 hr 0 min 16 sec) 
Heartbeat CPU 0 instructions: 20000000 cycles: 9790786 heartbeat IPC: 2.02774 cumulative IPC: 2.04274 (Simulation time: 0 hr 0 min 33 sec) 
Heartbeat CPU 0 instructions: 30000001 cycles: 14563061 heartbeat IPC: 2.09544 cumulative IPC: 2.06001 (Simulation time: 0 hr 0 min 47 sec) 
Heartbeat CPU 0 instructions: 40000000 cycles: 19400061 heartbeat IPC: 2.0674 cumulative IPC: 2.06185 (Simulation time: 0 hr 1 min 3 sec) 
Heartbeat CPU 0 instructions: 50000000 cycles: 24256608 heartbeat IPC: 2.05908 cumulative IPC: 2.06129 (Simulation time: 0 hr 1 min 20 sec) 
Heartbeat CPU 0 instructions: 60000000 cycles: 29182066 heartbeat IPC: 2.03027 cumulative IPC: 2.05606 (Simulation time: 0 hr 1 min 36 sec) 
Heartbeat CPU 0 instructions: 70000001 cycles: 33956871 heartbeat IPC: 2.09433 cumulative IPC: 2.06144 (Simulation time: 0 hr 1 min 51 sec) 
Heartbeat CPU 0 instructions: 80000000 cycles: 38793135 heartbeat IPC: 2.06771 cumulative IPC: 2.06222 (Simulation time: 0 hr 2 min 8 sec) 
Heartbeat CPU 0 instructions: 90000002 cycles: 43647203 heartbeat IPC: 2.06013 cumulative IPC: 2.06199 (Simulation time: 0 hr 2 min 24 sec) 
Heartbeat CPU 0 instructions: 100000000 cycles: 48566011 heartbeat IPC: 2.03301 cumulative IPC: 2.05905 (Simulation time: 0 hr 2 min 41 sec) 

Warmup complete CPU 0 instructions: 100000001 cycles: 48566012 (Simulation time: 0 hr 2 min 41 sec) 

Heartbeat CPU 0 instructions: 110000000 cycles: 61853628 heartbeat IPC: 0.75258 cumulative IPC: 0.75258 (Simulation time: 0 hr 3 min 3 sec) 
Heartbeat CPU 0 instructions: 120000000 cycles: 75623599 heartbeat IPC: 0.726218 cumulative IPC: 0.739164 (Simulation time: 0 hr 3 min 28 sec) 
Heartbeat CPU 0 instructions: 130000000 cycles: 89381379 heartbeat IPC: 0.726861 cumulative IPC: 0.735017 (Simulation time: 0 hr 3 min 52 sec) 
Heartbeat CPU 0 instructions: 140000000 cycles: 103651118 heartbeat IPC: 0.700784 cumulative IPC: 0.726149 (Simulation time: 0 hr 4 min 17 sec) 
Heartbeat CPU 0 instructions: 150000003 cycles: 117005421 heartbeat IPC: 0.748823 cumulative IPC: 0.730573 (Simulation time: 0 hr 4 min 40 sec) 
Heartbeat CPU 0 instructions: 160000000 cycles: 130774506 heartbeat IPC: 0.726264 cumulative IPC: 0.729852 (Simulation time: 0 hr 5 min 4 sec) 
Heartbeat CPU 0 instructions: 170000001 cycles: 144574832 heartbeat IPC: 0.724621 cumulative IPC: 0.7291 (Simulation time: 0 hr 5 min 29 sec) 
Heartbeat CPU 0 instructions: 180000000 cycles: 158821174 heartbeat IPC: 0.701935 cumulative IPC: 0.72559 (Simulation time: 0 hr 5 min 54 sec) 
Heartbeat CPU 0 instructions: 190000003 cycles: 172122598 heartbeat IPC: 0.751799 cumulative IPC: 0.728411 (Simulation time: 0 hr 6 min 16 sec) 
Heartbeat CPU 0 instructions: 200000000 cycles: 185894505 heartbeat IPC: 0.726116 cumulative IPC: 0.728181 (Simulation time: 0 hr 6 min 41 sec) 
Heartbeat CPU 0 instructions: 210000002 cycles: 199694249 heartbeat IPC: 0.724651 cumulative IPC: 0.727859 (Simulation time: 0 hr 7 min 6 sec) 
Heartbeat CPU 0 instructions: 220000000 cycles: 213941369 heartbeat IPC: 0.701896 cumulative IPC: 0.725622 (Simulation time: 0 hr 7 min 30 sec) 
Heartbeat CPU 0 instructions: 230000001 cycles: 227138688 heartbeat IPC: 0.75773 cumulative IPC: 0.727995 (Simulation time: 0 hr 7 min 53 sec) 
Heartbeat CPU 0 instructions: 240000000 cycles: 240895488 heartbeat IPC: 0.726913 cumulative IPC: 0.727918 (Simulation time: 0 hr 8 min 17 sec) 
Heartbeat CPU 0 instructions: 250000001 cycles: 254638416 heartbeat IPC: 0.727647 cumulative IPC: 0.727899 (Simulation time: 0 hr 8 min 42 sec) 
Heartbeat CPU 0 instructions: 260000000 cycles: 268780230 heartbeat IPC: 0.707123 cumulative IPC: 0.726565 (Simulation time: 0 hr 9 min 6 sec) 
Heartbeat CPU 0 instructions: 270000003 cycles: 282103664 heartbeat IPC: 0.750557 cumulative IPC: 0.727934 (Simulation time: 0 hr 9 min 29 sec) 
Heartbeat CPU 0 instructions: 280000000 cycles: 295879643 heartbeat IPC: 0.725901 cumulative IPC: 0.727821 (Simulation time: 0 hr 9 min 53 sec) 
Heartbeat CPU 0 instructions: 290000001 cycles: 309669365 heartbeat IPC: 0.725178 cumulative IPC: 0.727681 (Simulation time: 0 hr 10 min 18 sec) 
Heartbeat CPU 0 instructions: 300000000 cycles: 323752403 heartbeat IPC: 0.710074 cumulative IPC: 0.72678 (Simulation time: 0 hr 10 min 43 sec) 
Heartbeat CPU 0 instructions: 310000000 cycles: 337089488 heartbeat IPC: 0.749789 cumulative IPC: 0.727844 (Simulation time: 0 hr 11 min 5 sec) 
Heartbeat CPU 0 instructions: 320000000 cycles: 350902573 heartbeat IPC: 0.723951 cumulative IPC: 0.727666 (Simulation time: 0 hr 11 min 30 sec) 
Heartbeat CPU 0 instructions: 330000000 cycles: 364706697 heartbeat IPC: 0.724421 cumulative IPC: 0.727524 (Simulation time: 0 hr 11 min 54 sec) 
Heartbeat CPU 0 instructions: 340000000 cycles: 378768203 heartbeat IPC: 0.711161 cumulative IPC: 0.726827 (Simulation time: 0 hr 12 min 19 sec) 
Heartbeat CPU 0 instructions: 350000000 cycles: 392197552 heartbeat IPC: 0.744638 cumulative IPC: 0.727523 (Simulation time: 0 hr 12 min 40 sec) 
Heartbeat CPU 0 instructions: 360000000 cycles: 406046205 heartbeat IPC: 0.722092 cumulative IPC: 0.727313 (Simulation time: 0 hr 13 min 5 sec) 
Heartbeat CPU 0 instructions: 370000003 cycles: 419853888 heartbeat IPC: 0.724235 cumulative IPC: 0.727199 (Simulation time: 0 hr 13 min 29 sec) 
Heartbeat CPU 0 instructions: 380000000 cycles: 433878663 heartbeat IPC: 0.713024 cumulative IPC: 0.726683 (Simulation time: 0 hr 13 min 53 sec) 
Heartbeat CPU 0 instructions: 390000003 cycles: 447338341 heartbeat IPC: 0.74296 cumulative IPC: 0.727232 (Simulation time: 0 hr 14 min 15 sec) 
Heartbeat CPU 0 instructions: 400000000 cycles: 461181081 heartbeat IPC: 0.7224 cumulative IPC: 0.72707 (Simulation time: 0 hr 14 min 40 sec) 
Heartbeat CPU 0 instructions: 410000000 cycles: 474960028 heartbeat IPC: 0.725745 cumulative IPC: 0.727027 (Simulation time: 0 hr 15 min 4 sec) 
Heartbeat CPU 0 instructions: 420000000 cycles: 488975996 heartbeat IPC: 0.713472 cumulative IPC: 0.726596 (Simulation time: 0 hr 15 min 28 sec) 
Heartbeat CPU 0 instructions: 430000003 cycles: 502448313 heartbeat IPC: 0.742263 cumulative IPC: 0.727061 (Simulation time: 0 hr 15 min 50 sec) 
Heartbeat CPU 0 instructions: 440000000 cycles: 516283040 heartbeat IPC: 0.722819 cumulative IPC: 0.726935 (Simulation time: 0 hr 16 min 14 sec) 
Heartbeat CPU 0 instructions: 450000000 cycles: 530080355 heartbeat IPC: 0.724779 cumulative IPC: 0.726873 (Simulation time: 0 hr 16 min 38 sec) 
Heartbeat CPU 0 instructions: 460000000 cycles: 544075072 heartbeat IPC: 0.714555 cumulative IPC: 0.726526 (Simulation time: 0 hr 17 min 3 sec) 
Heartbeat CPU 0 instructions: 470000001 cycles: 557508415 heartbeat IPC: 0.744416 cumulative IPC: 0.726998 (Simulation time: 0 hr 17 min 25 sec) 
Heartbeat CPU 0 instructions: 480000000 cycles: 571328039 heartbeat IPC: 0.723609 cumulative IPC: 0.726908 (Simulation time: 0 hr 17 min 49 sec) 
Heartbeat CPU 0 instructions: 490000002 cycles: 585099832 heartbeat IPC: 0.726122 cumulative IPC: 0.726888 (Simulation time: 0 hr 18 min 13 sec) 
Heartbeat CPU 0 instructions: 500000000 cycles: 599094052 heartbeat IPC: 0.714581 cumulative IPC: 0.726575 (Simulation time: 0 hr 18 min 37 sec) 
Heartbeat CPU 0 instructions: 510000002 cycles: 612520041 heartbeat IPC: 0.744824 cumulative IPC: 0.72701 (Simulation time: 0 hr 18 min 59 sec) 
Heartbeat CPU 0 instructions: 520000000 cycles: 626323798 heartbeat IPC: 0.72444 cumulative IPC: 0.726948 (Simulation time: 0 hr 19 min 23 sec) 
Heartbeat CPU 0 instructions: 530000003 cycles: 640076937 heartbeat IPC: 0.727107 cumulative IPC: 0.726952 (Simulation time: 0 hr 19 min 47 sec) 
Heartbeat CPU 0 instructions: 540000000 cycles: 654096122 heartbeat IPC: 0.713308 cumulative IPC: 0.726636 (Simulation time: 0 hr 20 min 11 sec) 
Heartbeat CPU 0 instructions: 550000003 cycles: 667531307 heartbeat IPC: 0.744314 cumulative IPC: 0.72702 (Simulation time: 0 hr 20 min 33 sec) 
Heartbeat CPU 0 instructions: 560000000 cycles: 681323161 heartbeat IPC: 0.725065 cumulative IPC: 0.726977 (Simulation time: 0 hr 20 min 57 sec) 
Heartbeat CPU 0 instructions: 570000001 cycles: 695110023 heartbeat IPC: 0.725328 cumulative IPC: 0.726942 (Simulation time: 0 hr 21 min 21 sec) 
Heartbeat CPU 0 instructions: 580000000 cycles: 709155966 heartbeat IPC: 0.711949 cumulative IPC: 0.726623 (Simulation time: 0 hr 21 min 46 sec) 
Heartbeat CPU 0 instructions: 590000000 cycles: 722537678 heartbeat IPC: 0.747289 cumulative IPC: 0.727034 (Simulation time: 0 hr 22 min 8 sec) 
Heartbeat CPU 0 instructions: 600000000 cycles: 736332231 heartbeat IPC: 0.724924 cumulative IPC: 0.726991 (Simulation time: 0 hr 22 min 32 sec) 
Finished CPU 0 instructions: 500000001 cycles: 687766227 cumulative IPC: 0.726991 (Simulation time: 0 hr 22 min 32 sec) 

CPU 0 Branch Prediction Accuracy: 97.5275% MPKI: 2.1997
Number of Branches: 44482865 Number of Mispredictions: 1099852
Number of LOAD Instructions: 144955155
Number of LOAD Instructions (ROI): 144955155
Number of STORE Instructions: 55921098
Number of STORE Instructions (ROI): 55921098
Total Destination Memory Operands: 57111147
Total Destination Memory Operands (ROI): 57111147
Total Source Memory Operands: 144955155
Total Source Memory Operands (ROI): 144955155
Number of DEPENDED LOADS: 13454959
Number of DEPENDED LOADS (ROI): 13454959
Number of SQ_ADDED: 57111126
Number of SQ_ADDED (ROI): 57111126
Number of LQ_ADDED: 174727340
Number of LQ_ADDED (ROI): 174727340
Number of Instructions read from trace: 600000256

ChampSim completed all CPUs

Region of Interest Statistics

CPU 0 cumulative IPC: 0.726991 instructions: 500000001 cycles: 687766227
ITLB TOTAL     ACCESS:  136068024  HIT:  136065471  MISS:       2553
ITLB LOAD      ACCESS:  136068024  HIT:  136065471  MISS:       2553
ITLB RFO       ACCESS:          0  HIT:          0  MISS:          0
ITLB PREFETCH  ACCESS:          0  HIT:          0  MISS:          0
ITLB WRITEBACK ACCESS:          0  HIT:          0  MISS:          0
ITLB PREFETCH  REQUESTED:          0  ISSUED:          0  USEFUL:          0  USELESS:          0
ITLB TOTAL MSHR MERGED:       4412
ITLB LOAD MSHR MERGED:       4412
ITLB RFO MSHR MERGED:          0
ITLB PREFETCH MSHR MERGED:          0
ITLB WRITEBACK MSHR MERGED:          0
ITLB TOTAL ACCESSES:  136072436 HITS:  136065471 MISSES:       6965
ITLB LOAD ACCESSES:  136072436 HITS:  136065471 MISSES:       6965
ITLB RFO ACCESSES:          0 HITS:          0 MISSES:          0
ITLB PREFETCH ACCESSES:          0 HITS:          0 MISSES:          0
ITLB WRITEBACK ACCESSES:          0 HITS:          0 MISSES:          0
ITLB RQ ACCESS:  500000202
ITLB RQ TO_CACHE:  136072436
ITLB RQ MERGED:  363927766
ITLB RQ FORWARD:          0
ITLB WQ ACCESS:          0
ITLB WQ TO_CACHE:          0
ITLB WQ MERGED:          0
ITLB WQ FORWARD:          0
DTLB TOTAL     ACCESS:  111538329  HIT:  111402134  MISS:     136195
DTLB LOAD      ACCESS:   78944821  HIT:   78819195  MISS:     125626
DTLB RFO       ACCESS:   32593508  HIT:   32582939  MISS:      10569
DTLB PREFETCH  ACCESS:          0  HIT:          0  MISS:          0
DTLB WRITEBACK ACCESS:          0  HIT:          0  MISS:          0
DTLB PREFETCH  REQUESTED:          0  ISSUED:          0  USEFUL:          0  USELESS:          0
DTLB TOTAL MSHR MERGED:      63491
DTLB LOAD MSHR MERGED:      51038
DTLB RFO MSHR MERGED:      12453
DTLB PREFETCH MSHR MERGED:          0
DTLB WRITEBACK MSHR MERGED:          0
DTLB TOTAL ACCESSES:  111601820 HITS:  111402134 MISSES:     199686
DTLB LOAD ACCESSES:   78995859 HITS:   78819195 MISSES:     176664
DTLB RFO ACCESSES:   32605961 HITS:   32582939 MISSES:      23022
DTLB PREFETCH ACCESSES:          0 HITS:          0 MISSES:          0
DTLB WRITEBACK ACCESSES:          0 HITS:          0 MISSES:          0
DTLB RQ ACCESS:  157180488
DTLB RQ TO_CACHE:  111601820
DTLB RQ MERGED:   45578668
DTLB RQ FORWARD:          0
DTLB WQ ACCESS:          0
DTLB WQ TO_CACHE:          0
DTLB WQ MERGED:          0
DTLB WQ FORWARD:          0
L1D TOTAL     ACCESS:  198128021  HIT:  188287118  MISS:    9840903
L1D LOAD      ACCESS:   79934882  HIT:   75663843  MISS:    4271039
L1D RFO       ACCESS:   44478996  HIT:   43578351  MISS:     900645
L1D PREFETCH  ACCESS:   73714143  HIT:   69044924  MISS:    4669219
L1D WRITEBACK ACCESS:          0  HIT:          0  MISS:          0
L1D PREFETCH  REQUESTED:   80340674  ISSUED:   79884690  USEFUL:    1810993  USELESS:    2858135
L1D TOTAL MSHR MERGED:    2596847
L1D LOAD MSHR MERGED:     537829
L1D RFO MSHR MERGED:    1473733
L1D PREFETCH MSHR MERGED:     585285
L1D WRITEBACK MSHR MERGED:          0
L1D TOTAL ACCESSES:  200746560 HITS:  188308810 MISSES:   12437750
L1D LOAD ACCESSES:   80353753 HITS:   75676922 MISSES:    4676831
L1D RFO ACCESSES:   45949588 HITS:   43578351 MISSES:    2371237
L1D PREFETCH ACCESSES:   74443219 HITS:   69053537 MISSES:    5389682
L1D WRITEBACK ACCESSES:          0 HITS:          0 MISSES:          0
L1D RQ ACCESS:  109538518
L1D RQ TO_CACHE:   80340674
L1D RQ MERGED:   29184765
L1D RQ FORWARD:          0
L1D WQ ACCESS:   47641970
L1D WQ TO_CACHE:   45949588
L1D WQ MERGED:    1692382
L1D WQ FORWARD:      21692
L1I TOTAL     ACCESS:  161539405  HIT:  161275438  MISS:     263967
L1I LOAD      ACCESS:  161539405  HIT:  161275438  MISS:     263967
L1I RFO       ACCESS:          0  HIT:          0  MISS:          0
L1I PREFETCH  ACCESS:          0  HIT:          0  MISS:          0
L1I WRITEBACK ACCESS:          0  HIT:          0  MISS:          0
L1I PREFETCH  REQUESTED:          0  ISSUED:          0  USEFUL:          0  USELESS:          0
L1I TOTAL MSHR MERGED:     260404
L1I LOAD MSHR MERGED:     260404
L1I RFO MSHR MERGED:          0
L1I PREFETCH MSHR MERGED:          0
L1I WRITEBACK MSHR MERGED:          0
L1I TOTAL ACCESSES:  161799809 HITS:  161275438 MISSES:     524371
L1I LOAD ACCESSES:  161799809 HITS:  161275438 MISSES:     524371
L1I RFO ACCESSES:          0 HITS:          0 MISSES:          0
L1I PREFETCH ACCESSES:          0 HITS:          0 MISSES:          0
L1I WRITEBACK ACCESSES:          0 HITS:          0 MISSES:          0
L1I RQ ACCESS:  500000202
L1I RQ TO_CACHE:  161799809
L1I RQ MERGED:  338200393
L1I RQ FORWARD:          0
L1I WQ ACCESS:          0
L1I WQ TO_CACHE:          0
L1I WQ MERGED:          0
L1I WQ FORWARD:          0
L2C TOTAL     ACCESS:   11771542  HIT:   10382311  MISS:    1389231
L2C LOAD      ACCESS:    4402901  HIT:    3906128  MISS:     496773
L2C RFO       ACCESS:     897430  HIT:     536383  MISS:     361047
L2C PREFETCH  ACCESS:    5283713  HIT:    4755244  MISS:     528469
L2C WRITEBACK ACCESS:    1187498  HIT:    1184556  MISS:       2942
L2C PREFETCH  REQUESTED:     504705  ISSUED:     504705  USEFUL:     115015  USELESS:     413645
L2C TOTAL MSHR MERGED:       2237
L2C LOAD MSHR MERGED:        441
L2C RFO MSHR MERGED:          0
L2C PREFETCH MSHR MERGED:       1796
L2C WRITEBACK MSHR MERGED:          0
L2C TOTAL ACCESSES:   11776421 HITS:   10382539 MISSES:    1393882
L2C LOAD ACCESSES:    4402969 HITS:    3906196 MISSES:     496773
L2C RFO ACCESSES:     897504 HITS:     536457 MISSES:     361047
L2C PREFETCH ACCESSES:    5288450 HITS:    4755330 MISSES:     533120
L2C WRITEBACK ACCESSES:    1187498 HITS:    1184556 MISSES:       2942
L2C RQ ACCESS:    5300473
L2C RQ TO_CACHE:    5300331
L2C RQ MERGED:          0
L2C RQ FORWARD:          0
L2C WQ ACCESS:    1187498
L2C WQ TO_CACHE:    1187498
L2C WQ MERGED:          0
L2C WQ FORWARD:        228
LLC TOTAL     ACCESS:    1849305  HIT:     971574  MISS:     877731
LLC LOAD      ACCESS:     496329  HIT:     276914  MISS:     219415
LLC RFO       ACCESS:     361044  HIT:     149025  MISS:     212019
LLC PREFETCH  ACCESS:     531232  HIT:     285943  MISS:     245289
LLC WRITEBACK ACCESS:     460700  HIT:     259692  MISS:     201008
LLC PREFETCH  REQUESTED:          0  ISSUED:          0  USEFUL:       4498  USELESS:     240967
LLC TOTAL MSHR MERGED:         67
LLC LOAD MSHR MERGED:         23
LLC RFO MSHR MERGED:          0
LLC PREFETCH MSHR MERGED:         44
LLC WRITEBACK MSHR MERGED:          0
LLC TOTAL ACCESSES:    1849392 HITS:     971594 MISSES:     877798
LLC LOAD ACCESSES:     496332 HITS:     276917 MISSES:     219415
LLC RFO ACCESSES:     361047 HITS:     149028 MISSES:     212019
LLC PREFETCH ACCESSES:     531313 HITS:     285957 MISSES:     245356
LLC WRITEBACK ACCESSES:     460700 HITS:     259692 MISSES:     201008
LLC 0 RQ ACCESS:     857379
LLC 0 RQ TO_CACHE:     857373
LLC 0 RQ MERGED:          0
LLC 0 RQ FORWARD:          0
LLC WQ ACCESS:     460700
LLC WQ TO_CACHE:     460700
LLC WQ MERGED:          0
LLC WQ FORWARD:         20
Major fault: 0 Minor fault: 3073
CPU 0 L1D next line prefetcher final stats
CPU 0 L2C PC-based stride prefetcher final stats
All Misses: 1055291
All Hits: 1120706
SD Algo Stats - Switches: 0 SRR-Repls: 258150 BRR-Repls: 0

DRAM Statistics
 CHANNEL 0
 RQ ROW_BUFFER_HIT:     411267  ROW_BUFFER_MISS:     265017
 DBUS_CONGESTED:     541622
 WQ ROW_BUFFER_HIT:      45518  ROW_BUFFER_MISS:     185329  FULL:          2

 AVG_CONGESTED_CYCLE: 13
LOADS RETIRED: 120673965
INSTR RETIRED: 500000000
