
*** ChampSim Multicore Out-of-Order Simulator ***

Warmup Instructions: 100000000
Simulation Instructions: 500000000
Number of CPUs: 1
LLC sets: 2048
LLC ways: 16
Clean RRIP Policies: 2210230222102302 Dirty RRIP Policies: 1200130212001302 PSEL Width: 10 Track Set: 4294967295 PSEL Mask: 1 Demote Mask: 1040100010401000DS Algo: 0Window size: 0
Off-chip DRAM Size: 4096 MB Channels: 1 Width: 64-bit Data Rate: 1600 MT/s

CPU 0 runs /mnt/beegfs/iconst01/spec2017/x264.trace.gz
NOT SORTED
TRACE STRING: /mnt/beegfs/iconst01/spec2017/x264.trace.gz
SORTED
TRACE STRING: /mnt/beegfs/iconst01/spec2017/x264.trace.gz
INITIAL
TRACE STRING: /mnt/beegfs/iconst01/spec2017/x264.trace.gz

champsim_seed used: 276

CPU 0 L1D next line prefetcher
CPU 0 L2C IP-based stride prefetcher
Initialize DRRIP state
Assign rand_sets[0]: 454  LLC: 2048
rand_sets[0]: 454
Assign rand_sets[1]: 1662  LLC: 2048
rand_sets[1]: 1662
Assign rand_sets[2]: 1921  LLC: 2048
rand_sets[2]: 1921
Assign rand_sets[3]: 1131  LLC: 2048
rand_sets[3]: 1131
Assign rand_sets[4]: 331  LLC: 2048
rand_sets[4]: 331
Assign rand_sets[5]: 1531  LLC: 2048
rand_sets[5]: 1531
Assign rand_sets[6]: 482  LLC: 2048
rand_sets[6]: 482
Assign rand_sets[7]: 1275  LLC: 2048
rand_sets[7]: 1275
Assign rand_sets[8]: 1876  LLC: 2048
rand_sets[8]: 1876
Assign rand_sets[9]: 2038  LLC: 2048
rand_sets[9]: 2038
Assign rand_sets[10]: 701  LLC: 2048
rand_sets[10]: 701
Assign rand_sets[11]: 479  LLC: 2048
rand_sets[11]: 479
Assign rand_sets[12]: 892  LLC: 2048
rand_sets[12]: 892
Assign rand_sets[13]: 1820  LLC: 2048
rand_sets[13]: 1820
Assign rand_sets[14]: 1505  LLC: 2048
rand_sets[14]: 1505
Assign rand_sets[15]: 1159  LLC: 2048
rand_sets[15]: 1159
Assign rand_sets[16]: 513  LLC: 2048
rand_sets[16]: 513
Assign rand_sets[17]: 703  LLC: 2048
rand_sets[17]: 703
Assign rand_sets[18]: 561  LLC: 2048
rand_sets[18]: 561
Assign rand_sets[19]: 990  LLC: 2048
rand_sets[19]: 990
Assign rand_sets[20]: 342  LLC: 2048
rand_sets[20]: 342
Assign rand_sets[21]: 882  LLC: 2048
rand_sets[21]: 882
Assign rand_sets[22]: 15  LLC: 2048
rand_sets[22]: 15
Assign rand_sets[23]: 71  LLC: 2048
rand_sets[23]: 71
Assign rand_sets[24]: 1127  LLC: 2048
rand_sets[24]: 1127
Assign rand_sets[25]: 1382  LLC: 2048
rand_sets[25]: 1382
Assign rand_sets[26]: 647  LLC: 2048
rand_sets[26]: 647
Assign rand_sets[27]: 857  LLC: 2048
rand_sets[27]: 857
Assign rand_sets[28]: 1450  LLC: 2048
rand_sets[28]: 1450
Assign rand_sets[29]: 1160  LLC: 2048
rand_sets[29]: 1160
Assign rand_sets[30]: 1852  LLC: 2048
rand_sets[30]: 1852
Assign rand_sets[31]: 1881  LLC: 2048
rand_sets[31]: 1881
Assign rand_sets[32]: 1770  LLC: 2048
rand_sets[32]: 1770
Assign rand_sets[33]: 1622  LLC: 2048
rand_sets[33]: 1622
Assign rand_sets[34]: 275  LLC: 2048
rand_sets[34]: 275
Assign rand_sets[35]: 635  LLC: 2048
rand_sets[35]: 635
Assign rand_sets[36]: 466  LLC: 2048
rand_sets[36]: 466
Assign rand_sets[37]: 1413  LLC: 2048
rand_sets[37]: 1413
Assign rand_sets[38]: 417  LLC: 2048
rand_sets[38]: 417
Assign rand_sets[39]: 472  LLC: 2048
rand_sets[39]: 472
Assign rand_sets[40]: 1340  LLC: 2048
rand_sets[40]: 1340
Assign rand_sets[41]: 852  LLC: 2048
rand_sets[41]: 852
Assign rand_sets[42]: 1365  LLC: 2048
rand_sets[42]: 1365
Assign rand_sets[43]: 47  LLC: 2048
rand_sets[43]: 47
Assign rand_sets[44]: 823  LLC: 2048
rand_sets[44]: 823
Assign rand_sets[45]: 686  LLC: 2048
rand_sets[45]: 686
Assign rand_sets[46]: 1637  LLC: 2048
rand_sets[46]: 1637
Assign rand_sets[47]: 1115  LLC: 2048
rand_sets[47]: 1115
Assign rand_sets[48]: 986  LLC: 2048
rand_sets[48]: 986
Assign rand_sets[49]: 258  LLC: 2048
rand_sets[49]: 258
Assign rand_sets[50]: 633  LLC: 2048
rand_sets[50]: 633
Assign rand_sets[51]: 920  LLC: 2048
rand_sets[51]: 920
Assign rand_sets[52]: 204  LLC: 2048
rand_sets[52]: 204
Assign rand_sets[53]: 227  LLC: 2048
rand_sets[53]: 227
Assign rand_sets[54]: 1818  LLC: 2048
rand_sets[54]: 1818
Assign rand_sets[55]: 886  LLC: 2048
rand_sets[55]: 886
Assign rand_sets[56]: 1422  LLC: 2048
rand_sets[56]: 1422
Assign rand_sets[57]: 607  LLC: 2048
rand_sets[57]: 607
Assign rand_sets[58]: 217  LLC: 2048
rand_sets[58]: 217
Assign rand_sets[59]: 1945  LLC: 2048
rand_sets[59]: 1945
Assign rand_sets[60]: 143  LLC: 2048
rand_sets[60]: 143
Assign rand_sets[61]: 1311  LLC: 2048
rand_sets[61]: 1311
Assign rand_sets[62]: 319  LLC: 2048
rand_sets[62]: 319
Assign rand_sets[63]: 1846  LLC: 2048
rand_sets[63]: 1846
 CLEAN-RRIP-POLICY-1: 2-2-1-0-2-3-0-2- CLEAN-RRIP-POLICY-2: 2-2-1-0-2-3-0-2-
 DIRTY-RRIP-POLICY-1: 1-2-0-0-1-3-0-2- DIRTY-RRIP-POLICY-2: 1-2-0-0-1-3-0-2-
 PSEL width: 10
Heartbeat CPU 0 instructions: 10000000 cycles: 4124769 heartbeat IPC: 2.42438 cumulative IPC: 2.42438 (Simulation time: 0 hr 0 min 13 sec) 
Heartbeat CPU 0 instructions: 20000000 cycles: 8234006 heartbeat IPC: 2.43354 cumulative IPC: 2.42895 (Simulation time: 0 hr 0 min 27 sec) 
Heartbeat CPU 0 instructions: 30000003 cycles: 12464978 heartbeat IPC: 2.36352 cumulative IPC: 2.40674 (Simulation time: 0 hr 0 min 40 sec) 
Heartbeat CPU 0 instructions: 40000000 cycles: 16636977 heartbeat IPC: 2.39693 cumulative IPC: 2.40428 (Simulation time: 0 hr 0 min 53 sec) 
Heartbeat CPU 0 instructions: 50000000 cycles: 20699440 heartbeat IPC: 2.46156 cumulative IPC: 2.41552 (Simulation time: 0 hr 1 min 7 sec) 
Heartbeat CPU 0 instructions: 60000000 cycles: 25022827 heartbeat IPC: 2.313 cumulative IPC: 2.39781 (Simulation time: 0 hr 1 min 20 sec) 
Heartbeat CPU 0 instructions: 70000000 cycles: 29371100 heartbeat IPC: 2.29976 cumulative IPC: 2.3833 (Simulation time: 0 hr 1 min 33 sec) 
Heartbeat CPU 0 instructions: 80000000 cycles: 33721239 heartbeat IPC: 2.29878 cumulative IPC: 2.37239 (Simulation time: 0 hr 1 min 46 sec) 
Heartbeat CPU 0 instructions: 90000002 cycles: 38032235 heartbeat IPC: 2.31965 cumulative IPC: 2.36641 (Simulation time: 0 hr 1 min 59 sec) 
Heartbeat CPU 0 instructions: 100000000 cycles: 42329120 heartbeat IPC: 2.32727 cumulative IPC: 2.36244 (Simulation time: 0 hr 2 min 13 sec) 

Warmup complete CPU 0 instructions: 100000001 cycles: 42329121 (Simulation time: 0 hr 2 min 13 sec) 

Heartbeat CPU 0 instructions: 110000001 cycles: 49362106 heartbeat IPC: 1.42187 cumulative IPC: 1.42187 (Simulation time: 0 hr 2 min 30 sec) 
Heartbeat CPU 0 instructions: 120000000 cycles: 58945047 heartbeat IPC: 1.04352 cumulative IPC: 1.20366 (Simulation time: 0 hr 2 min 49 sec) 
Heartbeat CPU 0 instructions: 130000000 cycles: 63765992 heartbeat IPC: 2.07428 cumulative IPC: 1.39946 (Simulation time: 0 hr 3 min 6 sec) 
Heartbeat CPU 0 instructions: 140000000 cycles: 68630410 heartbeat IPC: 2.05574 cumulative IPC: 1.52084 (Simulation time: 0 hr 3 min 22 sec) 
Heartbeat CPU 0 instructions: 150000002 cycles: 75516240 heartbeat IPC: 1.45226 cumulative IPC: 1.50661 (Simulation time: 0 hr 3 min 40 sec) 
Heartbeat CPU 0 instructions: 160000000 cycles: 83321979 heartbeat IPC: 1.28111 cumulative IPC: 1.46367 (Simulation time: 0 hr 3 min 58 sec) 
Heartbeat CPU 0 instructions: 170000000 cycles: 90665057 heartbeat IPC: 1.36183 cumulative IPC: 1.4482 (Simulation time: 0 hr 4 min 15 sec) 
Heartbeat CPU 0 instructions: 180000000 cycles: 97900601 heartbeat IPC: 1.38207 cumulative IPC: 1.43959 (Simulation time: 0 hr 4 min 33 sec) 
Heartbeat CPU 0 instructions: 190000002 cycles: 105006551 heartbeat IPC: 1.40727 cumulative IPC: 1.43592 (Simulation time: 0 hr 4 min 50 sec) 
Heartbeat CPU 0 instructions: 200000000 cycles: 112168750 heartbeat IPC: 1.39622 cumulative IPC: 1.43185 (Simulation time: 0 hr 5 min 7 sec) 
Heartbeat CPU 0 instructions: 210000000 cycles: 118992524 heartbeat IPC: 1.46546 cumulative IPC: 1.43484 (Simulation time: 0 hr 5 min 23 sec) 
Heartbeat CPU 0 instructions: 220000000 cycles: 125719945 heartbeat IPC: 1.48645 cumulative IPC: 1.43901 (Simulation time: 0 hr 5 min 40 sec) 
Heartbeat CPU 0 instructions: 230000003 cycles: 132409467 heartbeat IPC: 1.49488 cumulative IPC: 1.44316 (Simulation time: 0 hr 5 min 57 sec) 
Heartbeat CPU 0 instructions: 240000000 cycles: 139105119 heartbeat IPC: 1.49351 cumulative IPC: 1.44664 (Simulation time: 0 hr 6 min 13 sec) 
Heartbeat CPU 0 instructions: 250000001 cycles: 145754590 heartbeat IPC: 1.50388 cumulative IPC: 1.45032 (Simulation time: 0 hr 6 min 30 sec) 
Heartbeat CPU 0 instructions: 260000000 cycles: 152403933 heartbeat IPC: 1.50391 cumulative IPC: 1.45356 (Simulation time: 0 hr 6 min 46 sec) 
Heartbeat CPU 0 instructions: 270000001 cycles: 159319958 heartbeat IPC: 1.44592 cumulative IPC: 1.45311 (Simulation time: 0 hr 7 min 3 sec) 
Heartbeat CPU 0 instructions: 280000000 cycles: 166811656 heartbeat IPC: 1.33481 cumulative IPC: 1.44599 (Simulation time: 0 hr 7 min 20 sec) 
Heartbeat CPU 0 instructions: 290000000 cycles: 174708151 heartbeat IPC: 1.26638 cumulative IPC: 1.43527 (Simulation time: 0 hr 7 min 38 sec) 
Heartbeat CPU 0 instructions: 300000000 cycles: 182870389 heartbeat IPC: 1.22515 cumulative IPC: 1.42307 (Simulation time: 0 hr 7 min 56 sec) 
Heartbeat CPU 0 instructions: 310000002 cycles: 191160855 heartbeat IPC: 1.20621 cumulative IPC: 1.41099 (Simulation time: 0 hr 8 min 14 sec) 
Heartbeat CPU 0 instructions: 320000000 cycles: 201157494 heartbeat IPC: 1.00034 cumulative IPC: 1.38514 (Simulation time: 0 hr 8 min 34 sec) 
Heartbeat CPU 0 instructions: 330000002 cycles: 205798557 heartbeat IPC: 2.15468 cumulative IPC: 1.40699 (Simulation time: 0 hr 8 min 51 sec) 
Heartbeat CPU 0 instructions: 340000000 cycles: 210977943 heartbeat IPC: 1.93073 cumulative IPC: 1.42308 (Simulation time: 0 hr 9 min 8 sec) 
Heartbeat CPU 0 instructions: 350000000 cycles: 218251278 heartbeat IPC: 1.37489 cumulative IPC: 1.42108 (Simulation time: 0 hr 9 min 26 sec) 
Heartbeat CPU 0 instructions: 360000000 cycles: 225883792 heartbeat IPC: 1.31018 cumulative IPC: 1.41647 (Simulation time: 0 hr 9 min 44 sec) 
Heartbeat CPU 0 instructions: 370000000 cycles: 233236930 heartbeat IPC: 1.35996 cumulative IPC: 1.4143 (Simulation time: 0 hr 10 min 1 sec) 
Heartbeat CPU 0 instructions: 380000000 cycles: 240442636 heartbeat IPC: 1.38779 cumulative IPC: 1.41333 (Simulation time: 0 hr 10 min 18 sec) 
Heartbeat CPU 0 instructions: 390000000 cycles: 248535471 heartbeat IPC: 1.23566 cumulative IPC: 1.40636 (Simulation time: 0 hr 10 min 36 sec) 
Heartbeat CPU 0 instructions: 400000000 cycles: 256724818 heartbeat IPC: 1.2211 cumulative IPC: 1.39928 (Simulation time: 0 hr 10 min 54 sec) 
Heartbeat CPU 0 instructions: 410000001 cycles: 264506724 heartbeat IPC: 1.28503 cumulative IPC: 1.39528 (Simulation time: 0 hr 11 min 12 sec) 
Heartbeat CPU 0 instructions: 420000000 cycles: 272538770 heartbeat IPC: 1.24501 cumulative IPC: 1.39004 (Simulation time: 0 hr 11 min 30 sec) 
Heartbeat CPU 0 instructions: 430000001 cycles: 280780813 heartbeat IPC: 1.21329 cumulative IPC: 1.38393 (Simulation time: 0 hr 11 min 48 sec) 
Heartbeat CPU 0 instructions: 440000000 cycles: 288805047 heartbeat IPC: 1.24622 cumulative IPC: 1.37945 (Simulation time: 0 hr 12 min 6 sec) 
Heartbeat CPU 0 instructions: 450000001 cycles: 296661970 heartbeat IPC: 1.27276 cumulative IPC: 1.37615 (Simulation time: 0 hr 12 min 24 sec) 
Heartbeat CPU 0 instructions: 460000000 cycles: 306463096 heartbeat IPC: 1.02029 cumulative IPC: 1.36294 (Simulation time: 0 hr 12 min 43 sec) 
Heartbeat CPU 0 instructions: 470000002 cycles: 311098469 heartbeat IPC: 2.15732 cumulative IPC: 1.37665 (Simulation time: 0 hr 12 min 59 sec) 
Heartbeat CPU 0 instructions: 480000000 cycles: 316300408 heartbeat IPC: 1.92236 cumulative IPC: 1.38701 (Simulation time: 0 hr 13 min 16 sec) 
Heartbeat CPU 0 instructions: 490000001 cycles: 323642715 heartbeat IPC: 1.36197 cumulative IPC: 1.38635 (Simulation time: 0 hr 13 min 35 sec) 
Heartbeat CPU 0 instructions: 500000000 cycles: 332376809 heartbeat IPC: 1.14494 cumulative IPC: 1.37908 (Simulation time: 0 hr 13 min 55 sec) 
Heartbeat CPU 0 instructions: 510000002 cycles: 341113952 heartbeat IPC: 1.14454 cumulative IPC: 1.37222 (Simulation time: 0 hr 14 min 14 sec) 
Heartbeat CPU 0 instructions: 520000000 cycles: 349845717 heartbeat IPC: 1.14524 cumulative IPC: 1.36578 (Simulation time: 0 hr 14 min 34 sec) 
Heartbeat CPU 0 instructions: 530000000 cycles: 358558276 heartbeat IPC: 1.14777 cumulative IPC: 1.35977 (Simulation time: 0 hr 14 min 54 sec) 
Heartbeat CPU 0 instructions: 540000000 cycles: 366807122 heartbeat IPC: 1.21229 cumulative IPC: 1.35602 (Simulation time: 0 hr 15 min 13 sec) 
Heartbeat CPU 0 instructions: 550000000 cycles: 373864900 heartbeat IPC: 1.41688 cumulative IPC: 1.35732 (Simulation time: 0 hr 15 min 31 sec) 
Heartbeat CPU 0 instructions: 560000000 cycles: 380465203 heartbeat IPC: 1.51508 cumulative IPC: 1.3604 (Simulation time: 0 hr 15 min 48 sec) 
Heartbeat CPU 0 instructions: 570000002 cycles: 387014604 heartbeat IPC: 1.52686 cumulative IPC: 1.36356 (Simulation time: 0 hr 16 min 5 sec) 
Heartbeat CPU 0 instructions: 580000000 cycles: 393619388 heartbeat IPC: 1.51405 cumulative IPC: 1.36639 (Simulation time: 0 hr 16 min 22 sec) 
Heartbeat CPU 0 instructions: 590000002 cycles: 400255634 heartbeat IPC: 1.50688 cumulative IPC: 1.369 (Simulation time: 0 hr 16 min 39 sec) 
Heartbeat CPU 0 instructions: 600000000 cycles: 407008453 heartbeat IPC: 1.48086 cumulative IPC: 1.37107 (Simulation time: 0 hr 16 min 56 sec) 
Finished CPU 0 instructions: 500000000 cycles: 364679340 cumulative IPC: 1.37107 (Simulation time: 0 hr 16 min 56 sec) 

CPU 0 Branch Prediction Accuracy: 93.4682% MPKI: 2.44079
Number of Branches: 18683822 Number of Mispredictions: 1220394
Number of LOAD Instructions: 142551610
Number of LOAD Instructions (ROI): 142551610
Number of STORE Instructions: 44807454
Number of STORE Instructions (ROI): 44807454
Total Destination Memory Operands: 48357071
Total Destination Memory Operands (ROI): 48357071
Total Source Memory Operands: 142551610
Total Source Memory Operands (ROI): 142551610
Number of DEPENDED LOADS: 7394956
Number of DEPENDED LOADS (ROI): 7394956
Number of SQ_ADDED: 48357051
Number of SQ_ADDED (ROI): 48357051
Number of LQ_ADDED: 157231458
Number of LQ_ADDED (ROI): 157231458
Number of Instructions read from trace: 600000256

ChampSim completed all CPUs

Region of Interest Statistics

CPU 0 cumulative IPC: 1.37107 instructions: 500000000 cycles: 364679340
ITLB TOTAL     ACCESS:   88173767  HIT:   88173698  MISS:         69
ITLB LOAD      ACCESS:   88173767  HIT:   88173698  MISS:         69
ITLB RFO       ACCESS:          0  HIT:          0  MISS:          0
ITLB PREFETCH  ACCESS:          0  HIT:          0  MISS:          0
ITLB WRITEBACK ACCESS:          0  HIT:          0  MISS:          0
ITLB PREFETCH  REQUESTED:          0  ISSUED:          0  USEFUL:          0  USELESS:          0
ITLB TOTAL MSHR MERGED:         85
ITLB LOAD MSHR MERGED:         85
ITLB RFO MSHR MERGED:          0
ITLB PREFETCH MSHR MERGED:          0
ITLB WRITEBACK MSHR MERGED:          0
ITLB TOTAL ACCESSES:   88173852 HITS:   88173698 MISSES:        154
ITLB LOAD ACCESSES:   88173852 HITS:   88173698 MISSES:        154
ITLB RFO ACCESSES:          0 HITS:          0 MISSES:          0
ITLB PREFETCH ACCESSES:          0 HITS:          0 MISSES:          0
ITLB WRITEBACK ACCESSES:          0 HITS:          0 MISSES:          0
ITLB RQ ACCESS:  500000000
ITLB RQ TO_CACHE:   88173852
ITLB RQ MERGED:  411826148
ITLB RQ FORWARD:          0
ITLB WQ ACCESS:          0
ITLB WQ TO_CACHE:          0
ITLB WQ MERGED:          0
ITLB WQ FORWARD:          0
DTLB TOTAL     ACCESS:   88202111  HIT:   88074694  MISS:     127417
DTLB LOAD      ACCESS:   59484088  HIT:   59391619  MISS:      92469
DTLB RFO       ACCESS:   28718023  HIT:   28683075  MISS:      34948
DTLB PREFETCH  ACCESS:          0  HIT:          0  MISS:          0
DTLB WRITEBACK ACCESS:          0  HIT:          0  MISS:          0
DTLB PREFETCH  REQUESTED:          0  ISSUED:          0  USEFUL:          0  USELESS:          0
DTLB TOTAL MSHR MERGED:     141283
DTLB LOAD MSHR MERGED:     107796
DTLB RFO MSHR MERGED:      33487
DTLB PREFETCH MSHR MERGED:          0
DTLB WRITEBACK MSHR MERGED:          0
DTLB TOTAL ACCESSES:   88343394 HITS:   88074694 MISSES:     268700
DTLB LOAD ACCESSES:   59591884 HITS:   59391619 MISSES:     200265
DTLB RFO ACCESSES:   28751510 HITS:   28683075 MISSES:      68435
DTLB PREFETCH ACCESSES:          0 HITS:          0 MISSES:          0
DTLB WRITEBACK ACCESSES:          0 HITS:          0 MISSES:          0
DTLB RQ ACCESS:  154558942
DTLB RQ TO_CACHE:   88343394
DTLB RQ MERGED:   66215548
DTLB RQ FORWARD:          0
DTLB WQ ACCESS:          0
DTLB WQ TO_CACHE:          0
DTLB WQ MERGED:          0
DTLB WQ FORWARD:          0
L1D TOTAL     ACCESS:  128132961  HIT:  124907616  MISS:    3225345
L1D LOAD      ACCESS:   53173792  HIT:   51978761  MISS:    1195031
L1D RFO       ACCESS:   37491796  HIT:   36877433  MISS:     614363
L1D PREFETCH  ACCESS:   37467373  HIT:   36051422  MISS:    1415951
L1D WRITEBACK ACCESS:          0  HIT:          0  MISS:          0
L1D PREFETCH  REQUESTED:   53656433  ISSUED:   52455976  USEFUL:     352347  USELESS:    1063569
L1D TOTAL MSHR MERGED:    2656539
L1D LOAD MSHR MERGED:     521071
L1D RFO MSHR MERGED:    1462688
L1D PREFETCH MSHR MERGED:     672780
L1D WRITEBACK MSHR MERGED:          0
L1D TOTAL ACCESSES:  130824358 HITS:  124942474 MISSES:    5881884
L1D LOAD ACCESSES:   53659297 HITS:   51981625 MISSES:    1677672
L1D RFO ACCESSES:   38952804 HITS:   36877433 MISSES:    2075371
L1D PREFETCH ACCESSES:   38212257 HITS:   36083416 MISSES:    2128841
L1D WRITEBACK ACCESSES:          0 HITS:          0 MISSES:          0
L1D RQ ACCESS:  113714050
L1D RQ TO_CACHE:   53656433
L1D RQ MERGED:   60054753
L1D RQ FORWARD:          0
L1D WQ ACCESS:   40844891
L1D WQ TO_CACHE:   38952804
L1D WQ MERGED:    1892087
L1D WQ FORWARD:      34858
L1I TOTAL     ACCESS:  108364513  HIT:  107805381  MISS:     559132
L1I LOAD      ACCESS:  108364513  HIT:  107805381  MISS:     559132
L1I RFO       ACCESS:          0  HIT:          0  MISS:          0
L1I PREFETCH  ACCESS:          0  HIT:          0  MISS:          0
L1I WRITEBACK ACCESS:          0  HIT:          0  MISS:          0
L1I PREFETCH  REQUESTED:          0  ISSUED:          0  USEFUL:          0  USELESS:          0
L1I TOTAL MSHR MERGED:     526047
L1I LOAD MSHR MERGED:     526047
L1I RFO MSHR MERGED:          0
L1I PREFETCH MSHR MERGED:          0
L1I WRITEBACK MSHR MERGED:          0
L1I TOTAL ACCESSES:  108890560 HITS:  107805381 MISSES:    1085179
L1I LOAD ACCESSES:  108890560 HITS:  107805381 MISSES:    1085179
L1I RFO ACCESSES:          0 HITS:          0 MISSES:          0
L1I PREFETCH ACCESSES:          0 HITS:          0 MISSES:          0
L1I WRITEBACK ACCESSES:          0 HITS:          0 MISSES:          0
L1I RQ ACCESS:  500000002
L1I RQ TO_CACHE:  108890560
L1I RQ MERGED:  391109442
L1I RQ FORWARD:          0
L1I WQ ACCESS:          0
L1I WQ TO_CACHE:          0
L1I WQ MERGED:          0
L1I WQ FORWARD:          0
L2C TOTAL     ACCESS:    4695424  HIT:    3869528  MISS:     825896
L2C LOAD      ACCESS:    1715615  HIT:    1564499  MISS:     151116
L2C RFO       ACCESS:     611248  HIT:     421200  MISS:     190048
L2C PREFETCH  ACCESS:    1665606  HIT:    1183061  MISS:     482545
L2C WRITEBACK ACCESS:     702955  HIT:     700768  MISS:       2187
L2C PREFETCH  REQUESTED:     256313  ISSUED:     256313  USEFUL:     174911  USELESS:     308300
L2C TOTAL MSHR MERGED:      10453
L2C LOAD MSHR MERGED:       2465
L2C RFO MSHR MERGED:          0
L2C PREFETCH MSHR MERGED:       7988
L2C WRITEBACK MSHR MERGED:          0
L2C TOTAL ACCESSES:    4711718 HITS:    3871152 MISSES:     840566
L2C LOAD ACCESSES:    1715733 HITS:    1564617 MISSES:     151116
L2C RFO ACCESSES:     612683 HITS:     422635 MISSES:     190048
L2C PREFETCH ACCESSES:    1680347 HITS:    1183132 MISSES:     497215
L2C WRITEBACK ACCESSES:     702955 HITS:     700768 MISSES:       2187
L2C RQ ACCESS:    2328416
L2C RQ TO_CACHE:    2326863
L2C RQ MERGED:          0
L2C RQ FORWARD:          0
L2C WQ ACCESS:     702955
L2C WQ TO_CACHE:     702955
L2C WQ MERGED:          0
L2C WQ FORWARD:       1624
LLC TOTAL     ACCESS:    1047068  HIT:     341882  MISS:     705186
LLC LOAD      ACCESS:     148646  HIT:      94603  MISS:      54043
LLC RFO       ACCESS:     190039  HIT:      11302  MISS:     178737
LLC PREFETCH  ACCESS:     487504  HIT:     167198  MISS:     320306
LLC WRITEBACK ACCESS:     220879  HIT:      68779  MISS:     152100
LLC PREFETCH  REQUESTED:          0  ISSUED:          0  USEFUL:      18248  USELESS:     300473
LLC TOTAL MSHR MERGED:       1097
LLC LOAD MSHR MERGED:        332
LLC RFO MSHR MERGED:          0
LLC PREFETCH MSHR MERGED:        765
LLC WRITEBACK MSHR MERGED:          0
LLC TOTAL ACCESSES:    1048179 HITS:     341896 MISSES:     706283
LLC LOAD ACCESSES:     148651 HITS:      94608 MISSES:      54043
LLC RFO ACCESSES:     190048 HITS:      11311 MISSES:     178737
LLC PREFETCH ACCESSES:     488601 HITS:     167198 MISSES:     321403
LLC WRITEBACK ACCESSES:     220879 HITS:      68779 MISSES:     152100
LLC 0 RQ ACCESS:     338699
LLC 0 RQ TO_CACHE:     338685
LLC 0 RQ MERGED:          0
LLC 0 RQ FORWARD:          0
LLC WQ ACCESS:     220879
LLC WQ TO_CACHE:     220879
LLC WQ MERGED:          0
LLC WQ FORWARD:         14
Major fault: 0 Minor fault: 6811
CPU 0 L1D next line prefetcher final stats
CPU 0 L2C PC-based stride prefetcher final stats
All Misses: 823492
All Hits: 430559
SD Algo Stats - Switches: 0 SRR-Repls: 60459 BRR-Repls: 0

DRAM Statistics
 CHANNEL 0
 RQ ROW_BUFFER_HIT:     292125  ROW_BUFFER_MISS:     260908
 DBUS_CONGESTED:     415720
 WQ ROW_BUFFER_HIT:      26947  ROW_BUFFER_MISS:     194611  FULL:          0

 AVG_CONGESTED_CYCLE: 13
LOADS RETIRED: 119922929
INSTR RETIRED: 500000000
