
*** ChampSim Multicore Out-of-Order Simulator ***

Warmup Instructions: 100000000
Simulation Instructions: 500000000
Number of CPUs: 1
LLC sets: 2048
LLC ways: 16
Clean RRIP Policies: 1122102311221023 Dirty RRIP Policies: 2112201321122013 PSEL Width: 10 Track Set: 4294967295 PSEL Mask: 1 Demote Mask: 3230143332301433DS Algo: 0Window size: 0
Off-chip DRAM Size: 4096 MB Channels: 1 Width: 64-bit Data Rate: 1600 MT/s

CPU 0 runs /mnt/beegfs/iconst01/spec2017/Gcc.trace.gz
NOT SORTED
TRACE STRING: /mnt/beegfs/iconst01/spec2017/Gcc.trace.gz
SORTED
TRACE STRING: /mnt/beegfs/iconst01/spec2017/Gcc.trace.gz
INITIAL
TRACE STRING: /mnt/beegfs/iconst01/spec2017/Gcc.trace.gz

champsim_seed used: 269

CPU 0 L1D next line prefetcher
CPU 0 L2C IP-based stride prefetcher
Initialize DRRIP state
Assign rand_sets[0]: 454  LLC: 2048
rand_sets[0]: 454
Assign rand_sets[1]: 1662  LLC: 2048
rand_sets[1]: 1662
Assign rand_sets[2]: 1921  LLC: 2048
rand_sets[2]: 1921
Assign rand_sets[3]: 1131  LLC: 2048
rand_sets[3]: 1131
Assign rand_sets[4]: 331  LLC: 2048
rand_sets[4]: 331
Assign rand_sets[5]: 1531  LLC: 2048
rand_sets[5]: 1531
Assign rand_sets[6]: 482  LLC: 2048
rand_sets[6]: 482
Assign rand_sets[7]: 1275  LLC: 2048
rand_sets[7]: 1275
Assign rand_sets[8]: 1876  LLC: 2048
rand_sets[8]: 1876
Assign rand_sets[9]: 2038  LLC: 2048
rand_sets[9]: 2038
Assign rand_sets[10]: 701  LLC: 2048
rand_sets[10]: 701
Assign rand_sets[11]: 479  LLC: 2048
rand_sets[11]: 479
Assign rand_sets[12]: 892  LLC: 2048
rand_sets[12]: 892
Assign rand_sets[13]: 1820  LLC: 2048
rand_sets[13]: 1820
Assign rand_sets[14]: 1505  LLC: 2048
rand_sets[14]: 1505
Assign rand_sets[15]: 1159  LLC: 2048
rand_sets[15]: 1159
Assign rand_sets[16]: 513  LLC: 2048
rand_sets[16]: 513
Assign rand_sets[17]: 703  LLC: 2048
rand_sets[17]: 703
Assign rand_sets[18]: 561  LLC: 2048
rand_sets[18]: 561
Assign rand_sets[19]: 990  LLC: 2048
rand_sets[19]: 990
Assign rand_sets[20]: 342  LLC: 2048
rand_sets[20]: 342
Assign rand_sets[21]: 882  LLC: 2048
rand_sets[21]: 882
Assign rand_sets[22]: 15  LLC: 2048
rand_sets[22]: 15
Assign rand_sets[23]: 71  LLC: 2048
rand_sets[23]: 71
Assign rand_sets[24]: 1127  LLC: 2048
rand_sets[24]: 1127
Assign rand_sets[25]: 1382  LLC: 2048
rand_sets[25]: 1382
Assign rand_sets[26]: 647  LLC: 2048
rand_sets[26]: 647
Assign rand_sets[27]: 857  LLC: 2048
rand_sets[27]: 857
Assign rand_sets[28]: 1450  LLC: 2048
rand_sets[28]: 1450
Assign rand_sets[29]: 1160  LLC: 2048
rand_sets[29]: 1160
Assign rand_sets[30]: 1852  LLC: 2048
rand_sets[30]: 1852
Assign rand_sets[31]: 1881  LLC: 2048
rand_sets[31]: 1881
Assign rand_sets[32]: 1770  LLC: 2048
rand_sets[32]: 1770
Assign rand_sets[33]: 1622  LLC: 2048
rand_sets[33]: 1622
Assign rand_sets[34]: 275  LLC: 2048
rand_sets[34]: 275
Assign rand_sets[35]: 635  LLC: 2048
rand_sets[35]: 635
Assign rand_sets[36]: 466  LLC: 2048
rand_sets[36]: 466
Assign rand_sets[37]: 1413  LLC: 2048
rand_sets[37]: 1413
Assign rand_sets[38]: 417  LLC: 2048
rand_sets[38]: 417
Assign rand_sets[39]: 472  LLC: 2048
rand_sets[39]: 472
Assign rand_sets[40]: 1340  LLC: 2048
rand_sets[40]: 1340
Assign rand_sets[41]: 852  LLC: 2048
rand_sets[41]: 852
Assign rand_sets[42]: 1365  LLC: 2048
rand_sets[42]: 1365
Assign rand_sets[43]: 47  LLC: 2048
rand_sets[43]: 47
Assign rand_sets[44]: 823  LLC: 2048
rand_sets[44]: 823
Assign rand_sets[45]: 686  LLC: 2048
rand_sets[45]: 686
Assign rand_sets[46]: 1637  LLC: 2048
rand_sets[46]: 1637
Assign rand_sets[47]: 1115  LLC: 2048
rand_sets[47]: 1115
Assign rand_sets[48]: 986  LLC: 2048
rand_sets[48]: 986
Assign rand_sets[49]: 258  LLC: 2048
rand_sets[49]: 258
Assign rand_sets[50]: 633  LLC: 2048
rand_sets[50]: 633
Assign rand_sets[51]: 920  LLC: 2048
rand_sets[51]: 920
Assign rand_sets[52]: 204  LLC: 2048
rand_sets[52]: 204
Assign rand_sets[53]: 227  LLC: 2048
rand_sets[53]: 227
Assign rand_sets[54]: 1818  LLC: 2048
rand_sets[54]: 1818
Assign rand_sets[55]: 886  LLC: 2048
rand_sets[55]: 886
Assign rand_sets[56]: 1422  LLC: 2048
rand_sets[56]: 1422
Assign rand_sets[57]: 607  LLC: 2048
rand_sets[57]: 607
Assign rand_sets[58]: 217  LLC: 2048
rand_sets[58]: 217
Assign rand_sets[59]: 1945  LLC: 2048
rand_sets[59]: 1945
Assign rand_sets[60]: 143  LLC: 2048
rand_sets[60]: 143
Assign rand_sets[61]: 1311  LLC: 2048
rand_sets[61]: 1311
Assign rand_sets[62]: 319  LLC: 2048
rand_sets[62]: 319
Assign rand_sets[63]: 1846  LLC: 2048
rand_sets[63]: 1846
 CLEAN-RRIP-POLICY-1: 1-1-2-2-1-0-2-3- CLEAN-RRIP-POLICY-2: 1-1-2-2-1-0-2-3-
 DIRTY-RRIP-POLICY-1: 2-1-1-2-2-0-1-3- DIRTY-RRIP-POLICY-2: 2-1-1-2-2-0-1-3-
 PSEL width: 10
Heartbeat CPU 0 instructions: 10000001 cycles: 7320815 heartbeat IPC: 1.36597 cumulative IPC: 1.36597 (Simulation time: 0 hr 0 min 15 sec) 
Heartbeat CPU 0 instructions: 20000000 cycles: 14325320 heartbeat IPC: 1.42765 cumulative IPC: 1.39613 (Simulation time: 0 hr 0 min 29 sec) 
Heartbeat CPU 0 instructions: 30000001 cycles: 21041700 heartbeat IPC: 1.4889 cumulative IPC: 1.42574 (Simulation time: 0 hr 0 min 45 sec) 
Heartbeat CPU 0 instructions: 40000000 cycles: 27503516 heartbeat IPC: 1.54755 cumulative IPC: 1.45436 (Simulation time: 0 hr 1 min 1 sec) 
Heartbeat CPU 0 instructions: 50000001 cycles: 33606335 heartbeat IPC: 1.63859 cumulative IPC: 1.48781 (Simulation time: 0 hr 1 min 17 sec) 
Heartbeat CPU 0 instructions: 60000000 cycles: 40088533 heartbeat IPC: 1.54269 cumulative IPC: 1.49669 (Simulation time: 0 hr 1 min 33 sec) 
Heartbeat CPU 0 instructions: 70000000 cycles: 47131404 heartbeat IPC: 1.41988 cumulative IPC: 1.48521 (Simulation time: 0 hr 1 min 48 sec) 
Heartbeat CPU 0 instructions: 80000000 cycles: 54226438 heartbeat IPC: 1.40944 cumulative IPC: 1.4753 (Simulation time: 0 hr 2 min 2 sec) 
Heartbeat CPU 0 instructions: 90000003 cycles: 61236338 heartbeat IPC: 1.42655 cumulative IPC: 1.46972 (Simulation time: 0 hr 2 min 17 sec) 
Heartbeat CPU 0 instructions: 100000000 cycles: 68408945 heartbeat IPC: 1.39419 cumulative IPC: 1.4618 (Simulation time: 0 hr 2 min 31 sec) 

Warmup complete CPU 0 instructions: 100000004 cycles: 68408946 (Simulation time: 0 hr 2 min 31 sec) 

Heartbeat CPU 0 instructions: 110000003 cycles: 96847451 heartbeat IPC: 0.351636 cumulative IPC: 0.351636 (Simulation time: 0 hr 3 min 0 sec) 
Heartbeat CPU 0 instructions: 120000000 cycles: 124562025 heartbeat IPC: 0.360821 cumulative IPC: 0.356169 (Simulation time: 0 hr 3 min 29 sec) 
Heartbeat CPU 0 instructions: 130000000 cycles: 149852126 heartbeat IPC: 0.395412 cumulative IPC: 0.368355 (Simulation time: 0 hr 3 min 57 sec) 
Heartbeat CPU 0 instructions: 140000000 cycles: 180868822 heartbeat IPC: 0.322407 cumulative IPC: 0.355682 (Simulation time: 0 hr 4 min 25 sec) 
Heartbeat CPU 0 instructions: 150000000 cycles: 211701367 heartbeat IPC: 0.324333 cumulative IPC: 0.348937 (Simulation time: 0 hr 4 min 54 sec) 
Heartbeat CPU 0 instructions: 160000000 cycles: 239450153 heartbeat IPC: 0.360376 cumulative IPC: 0.350793 (Simulation time: 0 hr 5 min 21 sec) 
Heartbeat CPU 0 instructions: 170000001 cycles: 267898755 heartbeat IPC: 0.351511 cumulative IPC: 0.350895 (Simulation time: 0 hr 5 min 51 sec) 
Heartbeat CPU 0 instructions: 180000000 cycles: 296796971 heartbeat IPC: 0.346042 cumulative IPC: 0.350281 (Simulation time: 0 hr 6 min 20 sec) 
Heartbeat CPU 0 instructions: 190000002 cycles: 325403561 heartbeat IPC: 0.34957 cumulative IPC: 0.350202 (Simulation time: 0 hr 6 min 49 sec) 
Heartbeat CPU 0 instructions: 200000000 cycles: 354269360 heartbeat IPC: 0.346431 cumulative IPC: 0.349821 (Simulation time: 0 hr 7 min 18 sec) 
Heartbeat CPU 0 instructions: 210000002 cycles: 382685668 heartbeat IPC: 0.351911 cumulative IPC: 0.35001 (Simulation time: 0 hr 7 min 46 sec) 
Heartbeat CPU 0 instructions: 220000000 cycles: 413188774 heartbeat IPC: 0.327835 cumulative IPC: 0.348048 (Simulation time: 0 hr 8 min 14 sec) 
Heartbeat CPU 0 instructions: 230000000 cycles: 441387502 heartbeat IPC: 0.354626 cumulative IPC: 0.348545 (Simulation time: 0 hr 8 min 42 sec) 
Heartbeat CPU 0 instructions: 240000000 cycles: 467908516 heartbeat IPC: 0.377059 cumulative IPC: 0.350438 (Simulation time: 0 hr 9 min 9 sec) 
Heartbeat CPU 0 instructions: 250000000 cycles: 498287283 heartbeat IPC: 0.329177 cumulative IPC: 0.348936 (Simulation time: 0 hr 9 min 38 sec) 
Heartbeat CPU 0 instructions: 260000000 cycles: 525675181 heartbeat IPC: 0.365125 cumulative IPC: 0.349906 (Simulation time: 0 hr 10 min 6 sec) 
Heartbeat CPU 0 instructions: 270000003 cycles: 554481608 heartbeat IPC: 0.347145 cumulative IPC: 0.349742 (Simulation time: 0 hr 10 min 36 sec) 
Heartbeat CPU 0 instructions: 280000000 cycles: 583055287 heartbeat IPC: 0.349972 cumulative IPC: 0.349755 (Simulation time: 0 hr 11 min 5 sec) 
Heartbeat CPU 0 instructions: 290000000 cycles: 612339427 heartbeat IPC: 0.341482 cumulative IPC: 0.349309 (Simulation time: 0 hr 11 min 35 sec) 
Heartbeat CPU 0 instructions: 300000000 cycles: 643306503 heartbeat IPC: 0.322924 cumulative IPC: 0.347888 (Simulation time: 0 hr 12 min 3 sec) 
Heartbeat CPU 0 instructions: 310000001 cycles: 673444105 heartbeat IPC: 0.331811 cumulative IPC: 0.347087 (Simulation time: 0 hr 12 min 31 sec) 
Heartbeat CPU 0 instructions: 320000000 cycles: 702579208 heartbeat IPC: 0.343229 cumulative IPC: 0.34691 (Simulation time: 0 hr 12 min 59 sec) 
Heartbeat CPU 0 instructions: 330000000 cycles: 731869476 heartbeat IPC: 0.34141 cumulative IPC: 0.346667 (Simulation time: 0 hr 13 min 28 sec) 
Heartbeat CPU 0 instructions: 340000000 cycles: 761897314 heartbeat IPC: 0.333024 cumulative IPC: 0.346076 (Simulation time: 0 hr 13 min 56 sec) 
Heartbeat CPU 0 instructions: 350000003 cycles: 789424557 heartbeat IPC: 0.363277 cumulative IPC: 0.346733 (Simulation time: 0 hr 14 min 24 sec) 
Heartbeat CPU 0 instructions: 360000000 cycles: 819994926 heartbeat IPC: 0.327114 cumulative IPC: 0.345935 (Simulation time: 0 hr 14 min 52 sec) 
Heartbeat CPU 0 instructions: 370000000 cycles: 850694375 heartbeat IPC: 0.325739 cumulative IPC: 0.345143 (Simulation time: 0 hr 15 min 20 sec) 
Heartbeat CPU 0 instructions: 380000000 cycles: 881780434 heartbeat IPC: 0.321688 cumulative IPC: 0.344246 (Simulation time: 0 hr 15 min 48 sec) 
Heartbeat CPU 0 instructions: 390000001 cycles: 912002577 heartbeat IPC: 0.330883 cumulative IPC: 0.343767 (Simulation time: 0 hr 16 min 16 sec) 
Heartbeat CPU 0 instructions: 400000000 cycles: 943115436 heartbeat IPC: 0.32141 cumulative IPC: 0.342972 (Simulation time: 0 hr 16 min 44 sec) 
Heartbeat CPU 0 instructions: 410000001 cycles: 973083610 heartbeat IPC: 0.333687 cumulative IPC: 0.342665 (Simulation time: 0 hr 17 min 11 sec) 
Heartbeat CPU 0 instructions: 420000000 cycles: 1003048960 heartbeat IPC: 0.333719 cumulative IPC: 0.342378 (Simulation time: 0 hr 17 min 39 sec) 
Heartbeat CPU 0 instructions: 430000002 cycles: 1033417470 heartbeat IPC: 0.329289 cumulative IPC: 0.341966 (Simulation time: 0 hr 18 min 7 sec) 
Heartbeat CPU 0 instructions: 440000000 cycles: 1064965125 heartbeat IPC: 0.316981 cumulative IPC: 0.341175 (Simulation time: 0 hr 18 min 35 sec) 
Heartbeat CPU 0 instructions: 450000002 cycles: 1096373995 heartbeat IPC: 0.318381 cumulative IPC: 0.340479 (Simulation time: 0 hr 19 min 3 sec) 
Heartbeat CPU 0 instructions: 460000000 cycles: 1126660461 heartbeat IPC: 0.33018 cumulative IPC: 0.340184 (Simulation time: 0 hr 19 min 31 sec) 
Heartbeat CPU 0 instructions: 470000000 cycles: 1156600549 heartbeat IPC: 0.334 cumulative IPC: 0.340014 (Simulation time: 0 hr 19 min 59 sec) 
Heartbeat CPU 0 instructions: 480000000 cycles: 1186788556 heartbeat IPC: 0.331257 cumulative IPC: 0.339777 (Simulation time: 0 hr 20 min 26 sec) 
Heartbeat CPU 0 instructions: 490000000 cycles: 1216704471 heartbeat IPC: 0.33427 cumulative IPC: 0.339634 (Simulation time: 0 hr 20 min 54 sec) 
Heartbeat CPU 0 instructions: 500000000 cycles: 1246994957 heartbeat IPC: 0.330137 cumulative IPC: 0.33939 (Simulation time: 0 hr 21 min 22 sec) 
Heartbeat CPU 0 instructions: 510000000 cycles: 1282376679 heartbeat IPC: 0.282632 cumulative IPC: 0.337736 (Simulation time: 0 hr 21 min 52 sec) 
Heartbeat CPU 0 instructions: 520000000 cycles: 1310598989 heartbeat IPC: 0.35433 cumulative IPC: 0.338113 (Simulation time: 0 hr 22 min 20 sec) 
Heartbeat CPU 0 instructions: 530000001 cycles: 1341124753 heartbeat IPC: 0.327592 cumulative IPC: 0.33786 (Simulation time: 0 hr 22 min 49 sec) 
Heartbeat CPU 0 instructions: 540000000 cycles: 1370146441 heartbeat IPC: 0.34457 cumulative IPC: 0.33801 (Simulation time: 0 hr 23 min 17 sec) 
Heartbeat CPU 0 instructions: 550000001 cycles: 1399699973 heartbeat IPC: 0.338369 cumulative IPC: 0.338018 (Simulation time: 0 hr 23 min 46 sec) 
Heartbeat CPU 0 instructions: 560000000 cycles: 1425554234 heartbeat IPC: 0.386783 cumulative IPC: 0.338947 (Simulation time: 0 hr 24 min 14 sec) 
Heartbeat CPU 0 instructions: 570000000 cycles: 1455932636 heartbeat IPC: 0.329181 cumulative IPC: 0.338733 (Simulation time: 0 hr 24 min 43 sec) 
Heartbeat CPU 0 instructions: 580000000 cycles: 1484741428 heartbeat IPC: 0.347116 cumulative IPC: 0.338903 (Simulation time: 0 hr 25 min 11 sec) 
Heartbeat CPU 0 instructions: 590000001 cycles: 1510251982 heartbeat IPC: 0.391995 cumulative IPC: 0.339843 (Simulation time: 0 hr 25 min 38 sec) 
Heartbeat CPU 0 instructions: 600000000 cycles: 1537823707 heartbeat IPC: 0.36269 cumulative IPC: 0.340272 (Simulation time: 0 hr 26 min 5 sec) 
Finished CPU 0 instructions: 500000000 cycles: 1469414783 cumulative IPC: 0.340272 (Simulation time: 0 hr 26 min 5 sec) 

CPU 0 Branch Prediction Accuracy: 86.4311% MPKI: 26.2662
Number of Branches: 96788573 Number of Mispredictions: 13133102
Number of LOAD Instructions: 164682285
Number of LOAD Instructions (ROI): 164682285
Number of STORE Instructions: 78194750
Number of STORE Instructions (ROI): 78194750
Total Destination Memory Operands: 83268534
Total Destination Memory Operands (ROI): 83268534
Total Source Memory Operands: 164712438
Total Source Memory Operands (ROI): 164712438
Number of DEPENDED LOADS: 7067673
Number of DEPENDED LOADS (ROI): 7067673
Number of SQ_ADDED: 83268522
Number of SQ_ADDED (ROI): 83268522
Number of LQ_ADDED: 236366908
Number of LQ_ADDED (ROI): 236366908
Number of Instructions read from trace: 600000066

ChampSim completed all CPUs

Region of Interest Statistics

CPU 0 cumulative IPC: 0.340272 instructions: 500000000 cycles: 1469414783
ITLB TOTAL     ACCESS:  100504517  HIT:  100300071  MISS:     204446
ITLB LOAD      ACCESS:  100504517  HIT:  100300071  MISS:     204446
ITLB RFO       ACCESS:          0  HIT:          0  MISS:          0
ITLB PREFETCH  ACCESS:          0  HIT:          0  MISS:          0
ITLB WRITEBACK ACCESS:          0  HIT:          0  MISS:          0
ITLB PREFETCH  REQUESTED:          0  ISSUED:          0  USEFUL:          0  USELESS:          0
ITLB TOTAL MSHR MERGED:     172422
ITLB LOAD MSHR MERGED:     172422
ITLB RFO MSHR MERGED:          0
ITLB PREFETCH MSHR MERGED:          0
ITLB WRITEBACK MSHR MERGED:          0
ITLB TOTAL ACCESSES:  100676939 HITS:  100300071 MISSES:     376868
ITLB LOAD ACCESSES:  100676939 HITS:  100300071 MISSES:     376868
ITLB RFO ACCESSES:          0 HITS:          0 MISSES:          0
ITLB PREFETCH ACCESSES:          0 HITS:          0 MISSES:          0
ITLB WRITEBACK ACCESSES:          0 HITS:          0 MISSES:          0
ITLB RQ ACCESS:  500000057
ITLB RQ TO_CACHE:  100676939
ITLB RQ MERGED:  399323118
ITLB RQ FORWARD:          0
ITLB WQ ACCESS:          0
ITLB WQ TO_CACHE:          0
ITLB WQ MERGED:          0
ITLB WQ FORWARD:          0
DTLB TOTAL     ACCESS:  165341448  HIT:  164707096  MISS:     634352
DTLB LOAD      ACCESS:  106293988  HIT:  105723945  MISS:     570043
DTLB RFO       ACCESS:   59047460  HIT:   58983151  MISS:      64309
DTLB PREFETCH  ACCESS:          0  HIT:          0  MISS:          0
DTLB WRITEBACK ACCESS:          0  HIT:          0  MISS:          0
DTLB PREFETCH  REQUESTED:          0  ISSUED:          0  USEFUL:          0  USELESS:          0
DTLB TOTAL MSHR MERGED:      99571
DTLB LOAD MSHR MERGED:      59294
DTLB RFO MSHR MERGED:      40277
DTLB PREFETCH MSHR MERGED:          0
DTLB WRITEBACK MSHR MERGED:          0
DTLB TOTAL ACCESSES:  165441019 HITS:  164707096 MISSES:     733923
DTLB LOAD ACCESSES:  106353282 HITS:  105723945 MISSES:     629337
DTLB RFO ACCESSES:   59087737 HITS:   58983151 MISSES:     104586
DTLB PREFETCH ACCESSES:          0 HITS:          0 MISSES:          0
DTLB WRITEBACK ACCESSES:          0 HITS:          0 MISSES:          0
DTLB RQ ACCESS:  200303241
DTLB RQ TO_CACHE:  165441019
DTLB RQ MERGED:   34862222
DTLB RQ FORWARD:          0
DTLB WQ ACCESS:          0
DTLB WQ TO_CACHE:          0
DTLB WQ MERGED:          0
DTLB WQ FORWARD:          0
L1D TOTAL     ACCESS:  281840209  HIT:  273930750  MISS:    7909459
L1D LOAD      ACCESS:  110430142  HIT:  107155343  MISS:    3274799
L1D RFO       ACCESS:   67091551  HIT:   66199685  MISS:     891866
L1D PREFETCH  ACCESS:  104318516  HIT:  100575722  MISS:    3742794
L1D WRITEBACK ACCESS:          0  HIT:          0  MISS:          0
L1D PREFETCH  REQUESTED:  110820690  ISSUED:  109121211  USEFUL:    1663566  USELESS:    2079192
L1D TOTAL MSHR MERGED:    2876649
L1D LOAD MSHR MERGED:     485188
L1D RFO MSHR MERGED:    1895130
L1D PREFETCH MSHR MERGED:     496331
L1D WRITEBACK MSHR MERGED:          0
L1D TOTAL ACCESSES:  284744472 HITS:  273958364 MISSES:   10786108
L1D LOAD ACCESSES:  110822341 HITS:  107156994 MISSES:    3665347
L1D RFO ACCESSES:   68973517 HITS:   66199685 MISSES:    2773832
L1D PREFETCH ACCESSES:  104948614 HITS:  100601685 MISSES:    4346929
L1D WRITEBACK ACCESSES:          0 HITS:          0 MISSES:          0
L1D RQ ACCESS:  130750638
L1D RQ TO_CACHE:  110820693
L1D RQ MERGED:   19928294
L1D RQ FORWARD:          0
L1D WQ ACCESS:   69552603
L1D WQ TO_CACHE:   68973518
L1D WQ MERGED:     579085
L1D WQ FORWARD:      27614
L1I TOTAL     ACCESS:  126548495  HIT:  122309951  MISS:    4238544
L1I LOAD      ACCESS:  126548495  HIT:  122309951  MISS:    4238544
L1I RFO       ACCESS:          0  HIT:          0  MISS:          0
L1I PREFETCH  ACCESS:          0  HIT:          0  MISS:          0
L1I WRITEBACK ACCESS:          0  HIT:          0  MISS:          0
L1I PREFETCH  REQUESTED:          0  ISSUED:          0  USEFUL:          0  USELESS:          0
L1I TOTAL MSHR MERGED:    1838449
L1I LOAD MSHR MERGED:    1838449
L1I RFO MSHR MERGED:          0
L1I PREFETCH MSHR MERGED:          0
L1I WRITEBACK MSHR MERGED:          0
L1I TOTAL ACCESSES:  128386947 HITS:  122309951 MISSES:    6076996
L1I LOAD ACCESSES:  128386947 HITS:  122309951 MISSES:    6076996
L1I RFO ACCESSES:          0 HITS:          0 MISSES:          0
L1I PREFETCH ACCESSES:          0 HITS:          0 MISSES:          0
L1I WRITEBACK ACCESSES:          0 HITS:          0 MISSES:          0
L1I RQ ACCESS:  500000057
L1I RQ TO_CACHE:  128386947
L1I RQ MERGED:  371613110
L1I RQ FORWARD:          0
L1I WQ ACCESS:          0
L1I WQ TO_CACHE:          0
L1I WQ MERGED:          0
L1I WQ FORWARD:          0
L2C TOTAL     ACCESS:   14904020  HIT:   11157507  MISS:    3746513
L2C LOAD      ACCESS:    7418500  HIT:    5098298  MISS:    2320202
L2C RFO       ACCESS:     878605  HIT:     409932  MISS:     468673
L2C PREFETCH  ACCESS:    4567656  HIT:    3627279  MISS:     940377
L2C WRITEBACK ACCESS:    2039259  HIT:    2021998  MISS:      17261
L2C PREFETCH  REQUESTED:     842578  ISSUED:     842578  USEFUL:     203052  USELESS:     737031
L2C TOTAL MSHR MERGED:       8204
L2C LOAD MSHR MERGED:       1174
L2C RFO MSHR MERGED:          0
L2C PREFETCH MSHR MERGED:       7030
L2C WRITEBACK MSHR MERGED:          0
L2C TOTAL ACCESSES:   14913171 HITS:   11157949 MISSES:    3755222
L2C LOAD ACCESSES:    7418703 HITS:    5098501 MISSES:    2320202
L2C RFO ACCESSES:     878702 HITS:     410029 MISSES:     468673
L2C PREFETCH ACCESSES:    4576507 HITS:    3627421 MISSES:     949086
L2C WRITEBACK ACCESSES:    2039259 HITS:    2021998 MISSES:      17261
L2C RQ ACCESS:    8297408
L2C RQ TO_CACHE:    8297108
L2C RQ MERGED:          0
L2C RQ FORWARD:          0
L2C WQ ACCESS:    2039259
L2C WQ TO_CACHE:    2039259
L2C WQ MERGED:          0
L2C WQ FORWARD:        442
LLC TOTAL     ACCESS:    4609921  HIT:    3297658  MISS:    1312263
LLC LOAD      ACCESS:    2319018  HIT:    1487237  MISS:     831781
LLC RFO       ACCESS:     468664  HIT:     343018  MISS:     125646
LLC PREFETCH  ACCESS:     941923  HIT:     688492  MISS:     253431
LLC WRITEBACK ACCESS:     880316  HIT:     778911  MISS:     101405
LLC PREFETCH  REQUESTED:          0  ISSUED:          0  USEFUL:      30656  USELESS:     220758
LLC TOTAL MSHR MERGED:        112
LLC LOAD MSHR MERGED:         30
LLC RFO MSHR MERGED:          0
LLC PREFETCH MSHR MERGED:         82
LLC WRITEBACK MSHR MERGED:          0
LLC TOTAL ACCESSES:    4610065 HITS:    3297690 MISSES:    1312375
LLC LOAD ACCESSES:    2319028 HITS:    1487247 MISSES:     831781
LLC RFO ACCESSES:     468673 HITS:     343027 MISSES:     125646
LLC PREFETCH ACCESSES:     942048 HITS:     688505 MISSES:     253543
LLC WRITEBACK ACCESSES:     880316 HITS:     778911 MISSES:     101405
LLC 0 RQ ACCESS:    2787701
LLC 0 RQ TO_CACHE:    2787682
LLC 0 RQ MERGED:          0
LLC 0 RQ FORWARD:          0
LLC WQ ACCESS:     880316
LLC WQ TO_CACHE:     880316
LLC WQ MERGED:          0
LLC WQ FORWARD:         32
Major fault: 0 Minor fault: 12862
CPU 0 L1D next line prefetcher final stats
CPU 0 L2C PC-based stride prefetcher final stats
All Misses: 1514871
All Hits: 3912052
SD Algo Stats - Switches: 0 SRR-Repls: 958346 BRR-Repls: 0

DRAM Statistics
 CHANNEL 0
 RQ ROW_BUFFER_HIT:     368621  ROW_BUFFER_MISS:     839287
 DBUS_CONGESTED:     588443
 WQ ROW_BUFFER_HIT:      28528  ROW_BUFFER_MISS:     296080  FULL:          0

 AVG_CONGESTED_CYCLE: 13
LOADS RETIRED: 136549171
INSTR RETIRED: 500000000
