
*** ChampSim Multicore Out-of-Order Simulator ***

Warmup Instructions: 100000000
Simulation Instructions: 500000000
Number of CPUs: 1
LLC sets: 2048
LLC ways: 16
Clean RRIP Policies: 1102220211022202 Dirty RRIP Policies: 1112221211122212 PSEL Width: 10 Track Set: 4294967295 PSEL Mask: 1 Demote Mask: 23244400232444DS Algo: 0Window size: 0
Off-chip DRAM Size: 4096 MB Channels: 1 Width: 64-bit Data Rate: 1600 MT/s

CPU 0 runs /mnt/beegfs/iconst01/spec2017/Gcc.trace.gz
NOT SORTED
TRACE STRING: /mnt/beegfs/iconst01/spec2017/Gcc.trace.gz
SORTED
TRACE STRING: /mnt/beegfs/iconst01/spec2017/Gcc.trace.gz
INITIAL
TRACE STRING: /mnt/beegfs/iconst01/spec2017/Gcc.trace.gz

champsim_seed used: 269

CPU 0 L1D next line prefetcher
CPU 0 L2C IP-based stride prefetcher
Initialize DRRIP state
Assign rand_sets[0]: 454  LLC: 2048
rand_sets[0]: 454
Assign rand_sets[1]: 1662  LLC: 2048
rand_sets[1]: 1662
Assign rand_sets[2]: 1921  LLC: 2048
rand_sets[2]: 1921
Assign rand_sets[3]: 1131  LLC: 2048
rand_sets[3]: 1131
Assign rand_sets[4]: 331  LLC: 2048
rand_sets[4]: 331
Assign rand_sets[5]: 1531  LLC: 2048
rand_sets[5]: 1531
Assign rand_sets[6]: 482  LLC: 2048
rand_sets[6]: 482
Assign rand_sets[7]: 1275  LLC: 2048
rand_sets[7]: 1275
Assign rand_sets[8]: 1876  LLC: 2048
rand_sets[8]: 1876
Assign rand_sets[9]: 2038  LLC: 2048
rand_sets[9]: 2038
Assign rand_sets[10]: 701  LLC: 2048
rand_sets[10]: 701
Assign rand_sets[11]: 479  LLC: 2048
rand_sets[11]: 479
Assign rand_sets[12]: 892  LLC: 2048
rand_sets[12]: 892
Assign rand_sets[13]: 1820  LLC: 2048
rand_sets[13]: 1820
Assign rand_sets[14]: 1505  LLC: 2048
rand_sets[14]: 1505
Assign rand_sets[15]: 1159  LLC: 2048
rand_sets[15]: 1159
Assign rand_sets[16]: 513  LLC: 2048
rand_sets[16]: 513
Assign rand_sets[17]: 703  LLC: 2048
rand_sets[17]: 703
Assign rand_sets[18]: 561  LLC: 2048
rand_sets[18]: 561
Assign rand_sets[19]: 990  LLC: 2048
rand_sets[19]: 990
Assign rand_sets[20]: 342  LLC: 2048
rand_sets[20]: 342
Assign rand_sets[21]: 882  LLC: 2048
rand_sets[21]: 882
Assign rand_sets[22]: 15  LLC: 2048
rand_sets[22]: 15
Assign rand_sets[23]: 71  LLC: 2048
rand_sets[23]: 71
Assign rand_sets[24]: 1127  LLC: 2048
rand_sets[24]: 1127
Assign rand_sets[25]: 1382  LLC: 2048
rand_sets[25]: 1382
Assign rand_sets[26]: 647  LLC: 2048
rand_sets[26]: 647
Assign rand_sets[27]: 857  LLC: 2048
rand_sets[27]: 857
Assign rand_sets[28]: 1450  LLC: 2048
rand_sets[28]: 1450
Assign rand_sets[29]: 1160  LLC: 2048
rand_sets[29]: 1160
Assign rand_sets[30]: 1852  LLC: 2048
rand_sets[30]: 1852
Assign rand_sets[31]: 1881  LLC: 2048
rand_sets[31]: 1881
Assign rand_sets[32]: 1770  LLC: 2048
rand_sets[32]: 1770
Assign rand_sets[33]: 1622  LLC: 2048
rand_sets[33]: 1622
Assign rand_sets[34]: 275  LLC: 2048
rand_sets[34]: 275
Assign rand_sets[35]: 635  LLC: 2048
rand_sets[35]: 635
Assign rand_sets[36]: 466  LLC: 2048
rand_sets[36]: 466
Assign rand_sets[37]: 1413  LLC: 2048
rand_sets[37]: 1413
Assign rand_sets[38]: 417  LLC: 2048
rand_sets[38]: 417
Assign rand_sets[39]: 472  LLC: 2048
rand_sets[39]: 472
Assign rand_sets[40]: 1340  LLC: 2048
rand_sets[40]: 1340
Assign rand_sets[41]: 852  LLC: 2048
rand_sets[41]: 852
Assign rand_sets[42]: 1365  LLC: 2048
rand_sets[42]: 1365
Assign rand_sets[43]: 47  LLC: 2048
rand_sets[43]: 47
Assign rand_sets[44]: 823  LLC: 2048
rand_sets[44]: 823
Assign rand_sets[45]: 686  LLC: 2048
rand_sets[45]: 686
Assign rand_sets[46]: 1637  LLC: 2048
rand_sets[46]: 1637
Assign rand_sets[47]: 1115  LLC: 2048
rand_sets[47]: 1115
Assign rand_sets[48]: 986  LLC: 2048
rand_sets[48]: 986
Assign rand_sets[49]: 258  LLC: 2048
rand_sets[49]: 258
Assign rand_sets[50]: 633  LLC: 2048
rand_sets[50]: 633
Assign rand_sets[51]: 920  LLC: 2048
rand_sets[51]: 920
Assign rand_sets[52]: 204  LLC: 2048
rand_sets[52]: 204
Assign rand_sets[53]: 227  LLC: 2048
rand_sets[53]: 227
Assign rand_sets[54]: 1818  LLC: 2048
rand_sets[54]: 1818
Assign rand_sets[55]: 886  LLC: 2048
rand_sets[55]: 886
Assign rand_sets[56]: 1422  LLC: 2048
rand_sets[56]: 1422
Assign rand_sets[57]: 607  LLC: 2048
rand_sets[57]: 607
Assign rand_sets[58]: 217  LLC: 2048
rand_sets[58]: 217
Assign rand_sets[59]: 1945  LLC: 2048
rand_sets[59]: 1945
Assign rand_sets[60]: 143  LLC: 2048
rand_sets[60]: 143
Assign rand_sets[61]: 1311  LLC: 2048
rand_sets[61]: 1311
Assign rand_sets[62]: 319  LLC: 2048
rand_sets[62]: 319
Assign rand_sets[63]: 1846  LLC: 2048
rand_sets[63]: 1846
 CLEAN-RRIP-POLICY-1: 1-1-0-2-2-2-0-2- CLEAN-RRIP-POLICY-2: 1-1-0-2-2-2-0-2-
 DIRTY-RRIP-POLICY-1: 1-1-1-2-2-2-1-2- DIRTY-RRIP-POLICY-2: 1-1-1-2-2-2-1-2-
 PSEL width: 10
Heartbeat CPU 0 instructions: 10000001 cycles: 7315916 heartbeat IPC: 1.36688 cumulative IPC: 1.36688 (Simulation time: 0 hr 0 min 15 sec) 
Heartbeat CPU 0 instructions: 20000000 cycles: 14307948 heartbeat IPC: 1.4302 cumulative IPC: 1.39782 (Simulation time: 0 hr 0 min 30 sec) 
Heartbeat CPU 0 instructions: 30000001 cycles: 21021172 heartbeat IPC: 1.4896 cumulative IPC: 1.42713 (Simulation time: 0 hr 0 min 46 sec) 
Heartbeat CPU 0 instructions: 40000000 cycles: 27482112 heartbeat IPC: 1.54776 cumulative IPC: 1.45549 (Simulation time: 0 hr 1 min 3 sec) 
Heartbeat CPU 0 instructions: 50000001 cycles: 33583621 heartbeat IPC: 1.63894 cumulative IPC: 1.48882 (Simulation time: 0 hr 1 min 19 sec) 
Heartbeat CPU 0 instructions: 60000000 cycles: 40064672 heartbeat IPC: 1.54296 cumulative IPC: 1.49758 (Simulation time: 0 hr 1 min 35 sec) 
Heartbeat CPU 0 instructions: 70000000 cycles: 47102442 heartbeat IPC: 1.4209 cumulative IPC: 1.48612 (Simulation time: 0 hr 1 min 50 sec) 
Heartbeat CPU 0 instructions: 80000000 cycles: 54192510 heartbeat IPC: 1.41042 cumulative IPC: 1.47622 (Simulation time: 0 hr 2 min 5 sec) 
Heartbeat CPU 0 instructions: 90000003 cycles: 61197282 heartbeat IPC: 1.4276 cumulative IPC: 1.47065 (Simulation time: 0 hr 2 min 20 sec) 
Heartbeat CPU 0 instructions: 100000000 cycles: 68364853 heartbeat IPC: 1.39517 cumulative IPC: 1.46274 (Simulation time: 0 hr 2 min 35 sec) 

Warmup complete CPU 0 instructions: 100000004 cycles: 68364854 (Simulation time: 0 hr 2 min 35 sec) 

Heartbeat CPU 0 instructions: 110000003 cycles: 96156790 heartbeat IPC: 0.359817 cumulative IPC: 0.359817 (Simulation time: 0 hr 3 min 5 sec) 
Heartbeat CPU 0 instructions: 120000000 cycles: 123620402 heartbeat IPC: 0.364118 cumulative IPC: 0.361955 (Simulation time: 0 hr 3 min 35 sec) 
Heartbeat CPU 0 instructions: 130000000 cycles: 148593424 heartbeat IPC: 0.400432 cumulative IPC: 0.373932 (Simulation time: 0 hr 4 min 5 sec) 
Heartbeat CPU 0 instructions: 140000000 cycles: 178181324 heartbeat IPC: 0.337976 cumulative IPC: 0.364244 (Simulation time: 0 hr 4 min 35 sec) 
Heartbeat CPU 0 instructions: 150000000 cycles: 208212596 heartbeat IPC: 0.332986 cumulative IPC: 0.357532 (Simulation time: 0 hr 5 min 5 sec) 
Heartbeat CPU 0 instructions: 160000000 cycles: 235647889 heartbeat IPC: 0.364494 cumulative IPC: 0.358674 (Simulation time: 0 hr 5 min 34 sec) 
Heartbeat CPU 0 instructions: 170000001 cycles: 263706783 heartbeat IPC: 0.356393 cumulative IPC: 0.358346 (Simulation time: 0 hr 6 min 5 sec) 
Heartbeat CPU 0 instructions: 180000000 cycles: 292194399 heartbeat IPC: 0.35103 cumulative IPC: 0.357415 (Simulation time: 0 hr 6 min 35 sec) 
Heartbeat CPU 0 instructions: 190000002 cycles: 320227587 heartbeat IPC: 0.35672 cumulative IPC: 0.357338 (Simulation time: 0 hr 7 min 5 sec) 
Heartbeat CPU 0 instructions: 200000000 cycles: 348676144 heartbeat IPC: 0.351512 cumulative IPC: 0.356746 (Simulation time: 0 hr 7 min 36 sec) 
Heartbeat CPU 0 instructions: 210000002 cycles: 376535648 heartbeat IPC: 0.358944 cumulative IPC: 0.356945 (Simulation time: 0 hr 8 min 6 sec) 
Heartbeat CPU 0 instructions: 220000000 cycles: 405777032 heartbeat IPC: 0.341981 cumulative IPC: 0.355648 (Simulation time: 0 hr 8 min 35 sec) 
Heartbeat CPU 0 instructions: 230000000 cycles: 433475328 heartbeat IPC: 0.361033 cumulative IPC: 0.356057 (Simulation time: 0 hr 9 min 4 sec) 
Heartbeat CPU 0 instructions: 240000000 cycles: 459693366 heartbeat IPC: 0.381417 cumulative IPC: 0.357756 (Simulation time: 0 hr 9 min 32 sec) 
Heartbeat CPU 0 instructions: 250000000 cycles: 489871338 heartbeat IPC: 0.331368 cumulative IPC: 0.355866 (Simulation time: 0 hr 10 min 4 sec) 
Heartbeat CPU 0 instructions: 260000000 cycles: 516965710 heartbeat IPC: 0.36908 cumulative IPC: 0.356664 (Simulation time: 0 hr 10 min 33 sec) 
Heartbeat CPU 0 instructions: 270000003 cycles: 545353591 heartbeat IPC: 0.352263 cumulative IPC: 0.356403 (Simulation time: 0 hr 11 min 4 sec) 
Heartbeat CPU 0 instructions: 280000000 cycles: 573597199 heartbeat IPC: 0.354062 cumulative IPC: 0.356272 (Simulation time: 0 hr 11 min 35 sec) 
Heartbeat CPU 0 instructions: 290000000 cycles: 602414690 heartbeat IPC: 0.347011 cumulative IPC: 0.355772 (Simulation time: 0 hr 12 min 6 sec) 
Heartbeat CPU 0 instructions: 300000000 cycles: 632401879 heartbeat IPC: 0.333476 cumulative IPC: 0.354587 (Simulation time: 0 hr 12 min 36 sec) 
Heartbeat CPU 0 instructions: 310000001 cycles: 661906420 heartbeat IPC: 0.338931 cumulative IPC: 0.353808 (Simulation time: 0 hr 13 min 5 sec) 
Heartbeat CPU 0 instructions: 320000000 cycles: 690215101 heartbeat IPC: 0.353249 cumulative IPC: 0.353783 (Simulation time: 0 hr 13 min 35 sec) 
Heartbeat CPU 0 instructions: 330000000 cycles: 718877215 heartbeat IPC: 0.348893 cumulative IPC: 0.353567 (Simulation time: 0 hr 14 min 4 sec) 
Heartbeat CPU 0 instructions: 340000000 cycles: 748307276 heartbeat IPC: 0.339789 cumulative IPC: 0.352971 (Simulation time: 0 hr 14 min 34 sec) 
Heartbeat CPU 0 instructions: 350000003 cycles: 775357049 heartbeat IPC: 0.369689 cumulative IPC: 0.353611 (Simulation time: 0 hr 15 min 3 sec) 
Heartbeat CPU 0 instructions: 360000000 cycles: 803737023 heartbeat IPC: 0.352361 cumulative IPC: 0.353562 (Simulation time: 0 hr 15 min 32 sec) 
Heartbeat CPU 0 instructions: 370000000 cycles: 832146460 heartbeat IPC: 0.351996 cumulative IPC: 0.353504 (Simulation time: 0 hr 16 min 1 sec) 
Heartbeat CPU 0 instructions: 380000000 cycles: 860836327 heartbeat IPC: 0.348555 cumulative IPC: 0.353325 (Simulation time: 0 hr 16 min 29 sec) 
Heartbeat CPU 0 instructions: 390000001 cycles: 888563215 heartbeat IPC: 0.360661 cumulative IPC: 0.353573 (Simulation time: 0 hr 16 min 58 sec) 
Heartbeat CPU 0 instructions: 400000000 cycles: 917315807 heartbeat IPC: 0.347795 cumulative IPC: 0.353377 (Simulation time: 0 hr 17 min 26 sec) 
Heartbeat CPU 0 instructions: 410000001 cycles: 944690872 heartbeat IPC: 0.365296 cumulative IPC: 0.35375 (Simulation time: 0 hr 17 min 55 sec) 
Heartbeat CPU 0 instructions: 420000000 cycles: 972042812 heartbeat IPC: 0.365605 cumulative IPC: 0.354108 (Simulation time: 0 hr 18 min 23 sec) 
Heartbeat CPU 0 instructions: 430000002 cycles: 999784320 heartbeat IPC: 0.360471 cumulative IPC: 0.354298 (Simulation time: 0 hr 18 min 51 sec) 
Heartbeat CPU 0 instructions: 440000000 cycles: 1029415930 heartbeat IPC: 0.337477 cumulative IPC: 0.353779 (Simulation time: 0 hr 19 min 20 sec) 
Heartbeat CPU 0 instructions: 450000002 cycles: 1058791593 heartbeat IPC: 0.340418 cumulative IPC: 0.353383 (Simulation time: 0 hr 19 min 49 sec) 
Heartbeat CPU 0 instructions: 460000000 cycles: 1086534069 heartbeat IPC: 0.360458 cumulative IPC: 0.353576 (Simulation time: 0 hr 20 min 17 sec) 
Heartbeat CPU 0 instructions: 470000000 cycles: 1114208097 heartbeat IPC: 0.36135 cumulative IPC: 0.353781 (Simulation time: 0 hr 20 min 46 sec) 
Heartbeat CPU 0 instructions: 480000000 cycles: 1142122972 heartbeat IPC: 0.358232 cumulative IPC: 0.353897 (Simulation time: 0 hr 21 min 14 sec) 
Heartbeat CPU 0 instructions: 490000000 cycles: 1169739993 heartbeat IPC: 0.362096 cumulative IPC: 0.354103 (Simulation time: 0 hr 21 min 43 sec) 
Heartbeat CPU 0 instructions: 500000000 cycles: 1198053428 heartbeat IPC: 0.353189 cumulative IPC: 0.35408 (Simulation time: 0 hr 22 min 11 sec) 
Heartbeat CPU 0 instructions: 510000000 cycles: 1233489389 heartbeat IPC: 0.282199 cumulative IPC: 0.351894 (Simulation time: 0 hr 22 min 44 sec) 
Heartbeat CPU 0 instructions: 520000000 cycles: 1261170003 heartbeat IPC: 0.361264 cumulative IPC: 0.352111 (Simulation time: 0 hr 23 min 13 sec) 
Heartbeat CPU 0 instructions: 530000001 cycles: 1290665650 heartbeat IPC: 0.339033 cumulative IPC: 0.351796 (Simulation time: 0 hr 23 min 43 sec) 
Heartbeat CPU 0 instructions: 540000000 cycles: 1319079045 heartbeat IPC: 0.351947 cumulative IPC: 0.351799 (Simulation time: 0 hr 24 min 13 sec) 
Heartbeat CPU 0 instructions: 550000001 cycles: 1348417557 heartbeat IPC: 0.340849 cumulative IPC: 0.351548 (Simulation time: 0 hr 24 min 44 sec) 
Heartbeat CPU 0 instructions: 560000000 cycles: 1373848450 heartbeat IPC: 0.393222 cumulative IPC: 0.35236 (Simulation time: 0 hr 25 min 13 sec) 
Heartbeat CPU 0 instructions: 570000000 cycles: 1403545698 heartbeat IPC: 0.336732 cumulative IPC: 0.352012 (Simulation time: 0 hr 25 min 43 sec) 
Heartbeat CPU 0 instructions: 580000000 cycles: 1431722227 heartbeat IPC: 0.354905 cumulative IPC: 0.352072 (Simulation time: 0 hr 26 min 13 sec) 
Heartbeat CPU 0 instructions: 590000001 cycles: 1456806505 heartbeat IPC: 0.398656 cumulative IPC: 0.352914 (Simulation time: 0 hr 26 min 41 sec) 
Heartbeat CPU 0 instructions: 600000000 cycles: 1483538272 heartbeat IPC: 0.374087 cumulative IPC: 0.353314 (Simulation time: 0 hr 27 min 10 sec) 
Finished CPU 0 instructions: 500000000 cycles: 1415173440 cumulative IPC: 0.353314 (Simulation time: 0 hr 27 min 10 sec) 

CPU 0 Branch Prediction Accuracy: 86.4311% MPKI: 26.2662
Number of Branches: 96788573 Number of Mispredictions: 13133102
Number of LOAD Instructions: 164682285
Number of LOAD Instructions (ROI): 164682285
Number of STORE Instructions: 78194750
Number of STORE Instructions (ROI): 78194750
Total Destination Memory Operands: 83268534
Total Destination Memory Operands (ROI): 83268534
Total Source Memory Operands: 164712438
Total Source Memory Operands (ROI): 164712438
Number of DEPENDED LOADS: 7067411
Number of DEPENDED LOADS (ROI): 7067411
Number of SQ_ADDED: 83268522
Number of SQ_ADDED (ROI): 83268522
Number of LQ_ADDED: 236662286
Number of LQ_ADDED (ROI): 236662286
Number of Instructions read from trace: 600000066

ChampSim completed all CPUs

Region of Interest Statistics

CPU 0 cumulative IPC: 0.353314 instructions: 500000000 cycles: 1415173440
ITLB TOTAL     ACCESS:  100503470  HIT:  100299024  MISS:     204446
ITLB LOAD      ACCESS:  100503470  HIT:  100299024  MISS:     204446
ITLB RFO       ACCESS:          0  HIT:          0  MISS:          0
ITLB PREFETCH  ACCESS:          0  HIT:          0  MISS:          0
ITLB WRITEBACK ACCESS:          0  HIT:          0  MISS:          0
ITLB PREFETCH  REQUESTED:          0  ISSUED:          0  USEFUL:          0  USELESS:          0
ITLB TOTAL MSHR MERGED:     172424
ITLB LOAD MSHR MERGED:     172424
ITLB RFO MSHR MERGED:          0
ITLB PREFETCH MSHR MERGED:          0
ITLB WRITEBACK MSHR MERGED:          0
ITLB TOTAL ACCESSES:  100675894 HITS:  100299024 MISSES:     376870
ITLB LOAD ACCESSES:  100675894 HITS:  100299024 MISSES:     376870
ITLB RFO ACCESSES:          0 HITS:          0 MISSES:          0
ITLB PREFETCH ACCESSES:          0 HITS:          0 MISSES:          0
ITLB WRITEBACK ACCESSES:          0 HITS:          0 MISSES:          0
ITLB RQ ACCESS:  500000057
ITLB RQ TO_CACHE:  100675894
ITLB RQ MERGED:  399324163
ITLB RQ FORWARD:          0
ITLB WQ ACCESS:          0
ITLB WQ TO_CACHE:          0
ITLB WQ MERGED:          0
ITLB WQ FORWARD:          0
DTLB TOTAL     ACCESS:  165329582  HIT:  164695239  MISS:     634343
DTLB LOAD      ACCESS:  106286791  HIT:  105716771  MISS:     570020
DTLB RFO       ACCESS:   59042791  HIT:   58978468  MISS:      64323
DTLB PREFETCH  ACCESS:          0  HIT:          0  MISS:          0
DTLB WRITEBACK ACCESS:          0  HIT:          0  MISS:          0
DTLB PREFETCH  REQUESTED:          0  ISSUED:          0  USEFUL:          0  USELESS:          0
DTLB TOTAL MSHR MERGED:      99875
DTLB LOAD MSHR MERGED:      59419
DTLB RFO MSHR MERGED:      40456
DTLB PREFETCH MSHR MERGED:          0
DTLB WRITEBACK MSHR MERGED:          0
DTLB TOTAL ACCESSES:  165429457 HITS:  164695239 MISSES:     734218
DTLB LOAD ACCESSES:  106346210 HITS:  105716771 MISSES:     629439
DTLB RFO ACCESSES:   59083247 HITS:   58978468 MISSES:     104779
DTLB PREFETCH ACCESSES:          0 HITS:          0 MISSES:          0
DTLB WRITEBACK ACCESSES:          0 HITS:          0 MISSES:          0
DTLB RQ ACCESS:  200303546
DTLB RQ TO_CACHE:  165429457
DTLB RQ MERGED:   34874089
DTLB RQ FORWARD:          0
DTLB WQ ACCESS:          0
DTLB WQ TO_CACHE:          0
DTLB WQ MERGED:          0
DTLB WQ FORWARD:          0
L1D TOTAL     ACCESS:  281809033  HIT:  273899724  MISS:    7909309
L1D LOAD      ACCESS:  110419561  HIT:  107144356  MISS:    3275205
L1D RFO       ACCESS:   67087537  HIT:   66195582  MISS:     891955
L1D PREFETCH  ACCESS:  104301935  HIT:  100559786  MISS:    3742149
L1D WRITEBACK ACCESS:          0  HIT:          0  MISS:          0
L1D PREFETCH  REQUESTED:  110809738  ISSUED:  109110502  USEFUL:    1663001  USELESS:    2079112
L1D TOTAL MSHR MERGED:    2880713
L1D LOAD MSHR MERGED:     484884
L1D RFO MSHR MERGED:    1899268
L1D PREFETCH MSHR MERGED:     496561
L1D WRITEBACK MSHR MERGED:          0
L1D TOTAL ACCESSES:  284717501 HITS:  273927479 MISSES:   10790022
L1D LOAD ACCESSES:  110811474 HITS:  107146092 MISSES:    3665382
L1D RFO ACCESSES:   68973665 HITS:   66195582 MISSES:    2778083
L1D PREFETCH ACCESSES:  104932362 HITS:  100585805 MISSES:    4346557
L1D WRITEBACK ACCESSES:          0 HITS:          0 MISSES:          0
L1D RQ ACCESS:  130750943
L1D RQ TO_CACHE:  110809741
L1D RQ MERGED:   19939466
L1D RQ FORWARD:          0
L1D WQ ACCESS:   69552603
L1D WQ TO_CACHE:   68973666
L1D WQ MERGED:     578937
L1D WQ FORWARD:      27755
L1I TOTAL     ACCESS:  126551210  HIT:  122312658  MISS:    4238552
L1I LOAD      ACCESS:  126551210  HIT:  122312658  MISS:    4238552
L1I RFO       ACCESS:          0  HIT:          0  MISS:          0
L1I PREFETCH  ACCESS:          0  HIT:          0  MISS:          0
L1I WRITEBACK ACCESS:          0  HIT:          0  MISS:          0
L1I PREFETCH  REQUESTED:          0  ISSUED:          0  USEFUL:          0  USELESS:          0
L1I TOTAL MSHR MERGED:    1834408
L1I LOAD MSHR MERGED:    1834408
L1I RFO MSHR MERGED:          0
L1I PREFETCH MSHR MERGED:          0
L1I WRITEBACK MSHR MERGED:          0
L1I TOTAL ACCESSES:  128385621 HITS:  122312658 MISSES:    6072963
L1I LOAD ACCESSES:  128385621 HITS:  122312658 MISSES:    6072963
L1I RFO ACCESSES:          0 HITS:          0 MISSES:          0
L1I PREFETCH ACCESSES:          0 HITS:          0 MISSES:          0
L1I WRITEBACK ACCESSES:          0 HITS:          0 MISSES:          0
L1I RQ ACCESS:  500000057
L1I RQ TO_CACHE:  128385621
L1I RQ MERGED:  371614436
L1I RQ FORWARD:          0
L1I WQ ACCESS:          0
L1I WQ TO_CACHE:          0
L1I WQ MERGED:          0
L1I WQ FORWARD:          0
L2C TOTAL     ACCESS:   14904025  HIT:   11157499  MISS:    3746526
L2C LOAD      ACCESS:    7418844  HIT:    5098420  MISS:    2320424
L2C RFO       ACCESS:     878717  HIT:     409914  MISS:     468803
L2C PREFETCH  ACCESS:    4567238  HIT:    3627198  MISS:     940040
L2C WRITEBACK ACCESS:    2039226  HIT:    2021967  MISS:      17259
L2C PREFETCH  REQUESTED:     842601  ISSUED:     842601  USEFUL:     202990  USELESS:     736756
L2C TOTAL MSHR MERGED:       8003
L2C LOAD MSHR MERGED:       1111
L2C RFO MSHR MERGED:          0
L2C PREFETCH MSHR MERGED:       6892
L2C WRITEBACK MSHR MERGED:          0
L2C TOTAL ACCESSES:   14913039 HITS:   11157946 MISSES:    3755093
L2C LOAD ACCESSES:    7419050 HITS:    5098626 MISSES:    2320424
L2C RFO ACCESSES:     878815 HITS:     410012 MISSES:     468803
L2C PREFETCH ACCESSES:    4575948 HITS:    3627341 MISSES:     948607
L2C WRITEBACK ACCESSES:    2039226 HITS:    2021967 MISSES:      17259
L2C RQ ACCESS:    8297868
L2C RQ TO_CACHE:    8297564
L2C RQ MERGED:          0
L2C RQ FORWARD:          0
L2C WQ ACCESS:    2039226
L2C WQ TO_CACHE:    2039226
L2C WQ MERGED:          0
L2C WQ FORWARD:        447
LLC TOTAL     ACCESS:    4609970  HIT:    3824103  MISS:     785867
LLC LOAD      ACCESS:    2319300  HIT:    2047247  MISS:     272053
LLC RFO       ACCESS:     468794  HIT:     350335  MISS:     118459
LLC PREFETCH  ACCESS:     941556  HIT:     683466  MISS:     258090
LLC WRITEBACK ACCESS:     880320  HIT:     743055  MISS:     137265
LLC PREFETCH  REQUESTED:          0  ISSUED:          0  USEFUL:      29253  USELESS:     228976
LLC TOTAL MSHR MERGED:        136
LLC LOAD MSHR MERGED:         44
LLC RFO MSHR MERGED:          0
LLC PREFETCH MSHR MERGED:         92
LLC WRITEBACK MSHR MERGED:          0
LLC TOTAL ACCESSES:    4610139 HITS:    3824136 MISSES:     786003
LLC LOAD ACCESSES:    2319313 HITS:    2047260 MISSES:     272053
LLC RFO ACCESSES:     468803 HITS:     350344 MISSES:     118459
LLC PREFETCH ACCESSES:     941703 HITS:     683477 MISSES:     258226
LLC WRITEBACK ACCESSES:     880320 HITS:     743055 MISSES:     137265
LLC 0 RQ ACCESS:    2788116
LLC 0 RQ TO_CACHE:    2788094
LLC 0 RQ MERGED:          0
LLC 0 RQ FORWARD:          0
LLC WQ ACCESS:     880320
LLC WQ TO_CACHE:     880320
LLC WQ MERGED:          0
LLC WQ FORWARD:         33
Major fault: 0 Minor fault: 12862
CPU 0 L1D next line prefetcher final stats
CPU 0 L2C PC-based stride prefetcher final stats
All Misses: 906635
All Hits: 4520341
SD Algo Stats - Switches: 0 SRR-Repls: 315442 BRR-Repls: 0

DRAM Statistics
 CHANNEL 0
 RQ ROW_BUFFER_HIT:     129271  ROW_BUFFER_MISS:     516871
 DBUS_CONGESTED:     505533
 WQ ROW_BUFFER_HIT:      37517  ROW_BUFFER_MISS:     296500  FULL:          0

 AVG_CONGESTED_CYCLE: 14
LOADS RETIRED: 136549171
INSTR RETIRED: 500000000
