
*** ChampSim Multicore Out-of-Order Simulator ***

Warmup Instructions: 100000000
Simulation Instructions: 500000000
Number of CPUs: 1
LLC sets: 2048
LLC ways: 16
Clean RRIP Policies: 1213230212132302 Dirty RRIP Policies: 1203130212031302 PSEL Width: 10 Track Set: 4294967295 PSEL Mask: 1 Demote Mask: 1040100010401000DS Algo: 0Window size: 0
Off-chip DRAM Size: 4096 MB Channels: 1 Width: 64-bit Data Rate: 1600 MT/s

CPU 0 runs /mnt/beegfs/iconst01/spec2017/Mcf.trace.gz
NOT SORTED
TRACE STRING: /mnt/beegfs/iconst01/spec2017/Mcf.trace.gz
SORTED
TRACE STRING: /mnt/beegfs/iconst01/spec2017/Mcf.trace.gz
INITIAL
TRACE STRING: /mnt/beegfs/iconst01/spec2017/Mcf.trace.gz

champsim_seed used: 278

CPU 0 L1D next line prefetcher
CPU 0 L2C IP-based stride prefetcher
Initialize DRRIP state
Assign rand_sets[0]: 454  LLC: 2048
rand_sets[0]: 454
Assign rand_sets[1]: 1662  LLC: 2048
rand_sets[1]: 1662
Assign rand_sets[2]: 1921  LLC: 2048
rand_sets[2]: 1921
Assign rand_sets[3]: 1131  LLC: 2048
rand_sets[3]: 1131
Assign rand_sets[4]: 331  LLC: 2048
rand_sets[4]: 331
Assign rand_sets[5]: 1531  LLC: 2048
rand_sets[5]: 1531
Assign rand_sets[6]: 482  LLC: 2048
rand_sets[6]: 482
Assign rand_sets[7]: 1275  LLC: 2048
rand_sets[7]: 1275
Assign rand_sets[8]: 1876  LLC: 2048
rand_sets[8]: 1876
Assign rand_sets[9]: 2038  LLC: 2048
rand_sets[9]: 2038
Assign rand_sets[10]: 701  LLC: 2048
rand_sets[10]: 701
Assign rand_sets[11]: 479  LLC: 2048
rand_sets[11]: 479
Assign rand_sets[12]: 892  LLC: 2048
rand_sets[12]: 892
Assign rand_sets[13]: 1820  LLC: 2048
rand_sets[13]: 1820
Assign rand_sets[14]: 1505  LLC: 2048
rand_sets[14]: 1505
Assign rand_sets[15]: 1159  LLC: 2048
rand_sets[15]: 1159
Assign rand_sets[16]: 513  LLC: 2048
rand_sets[16]: 513
Assign rand_sets[17]: 703  LLC: 2048
rand_sets[17]: 703
Assign rand_sets[18]: 561  LLC: 2048
rand_sets[18]: 561
Assign rand_sets[19]: 990  LLC: 2048
rand_sets[19]: 990
Assign rand_sets[20]: 342  LLC: 2048
rand_sets[20]: 342
Assign rand_sets[21]: 882  LLC: 2048
rand_sets[21]: 882
Assign rand_sets[22]: 15  LLC: 2048
rand_sets[22]: 15
Assign rand_sets[23]: 71  LLC: 2048
rand_sets[23]: 71
Assign rand_sets[24]: 1127  LLC: 2048
rand_sets[24]: 1127
Assign rand_sets[25]: 1382  LLC: 2048
rand_sets[25]: 1382
Assign rand_sets[26]: 647  LLC: 2048
rand_sets[26]: 647
Assign rand_sets[27]: 857  LLC: 2048
rand_sets[27]: 857
Assign rand_sets[28]: 1450  LLC: 2048
rand_sets[28]: 1450
Assign rand_sets[29]: 1160  LLC: 2048
rand_sets[29]: 1160
Assign rand_sets[30]: 1852  LLC: 2048
rand_sets[30]: 1852
Assign rand_sets[31]: 1881  LLC: 2048
rand_sets[31]: 1881
Assign rand_sets[32]: 1770  LLC: 2048
rand_sets[32]: 1770
Assign rand_sets[33]: 1622  LLC: 2048
rand_sets[33]: 1622
Assign rand_sets[34]: 275  LLC: 2048
rand_sets[34]: 275
Assign rand_sets[35]: 635  LLC: 2048
rand_sets[35]: 635
Assign rand_sets[36]: 466  LLC: 2048
rand_sets[36]: 466
Assign rand_sets[37]: 1413  LLC: 2048
rand_sets[37]: 1413
Assign rand_sets[38]: 417  LLC: 2048
rand_sets[38]: 417
Assign rand_sets[39]: 472  LLC: 2048
rand_sets[39]: 472
Assign rand_sets[40]: 1340  LLC: 2048
rand_sets[40]: 1340
Assign rand_sets[41]: 852  LLC: 2048
rand_sets[41]: 852
Assign rand_sets[42]: 1365  LLC: 2048
rand_sets[42]: 1365
Assign rand_sets[43]: 47  LLC: 2048
rand_sets[43]: 47
Assign rand_sets[44]: 823  LLC: 2048
rand_sets[44]: 823
Assign rand_sets[45]: 686  LLC: 2048
rand_sets[45]: 686
Assign rand_sets[46]: 1637  LLC: 2048
rand_sets[46]: 1637
Assign rand_sets[47]: 1115  LLC: 2048
rand_sets[47]: 1115
Assign rand_sets[48]: 986  LLC: 2048
rand_sets[48]: 986
Assign rand_sets[49]: 258  LLC: 2048
rand_sets[49]: 258
Assign rand_sets[50]: 633  LLC: 2048
rand_sets[50]: 633
Assign rand_sets[51]: 920  LLC: 2048
rand_sets[51]: 920
Assign rand_sets[52]: 204  LLC: 2048
rand_sets[52]: 204
Assign rand_sets[53]: 227  LLC: 2048
rand_sets[53]: 227
Assign rand_sets[54]: 1818  LLC: 2048
rand_sets[54]: 1818
Assign rand_sets[55]: 886  LLC: 2048
rand_sets[55]: 886
Assign rand_sets[56]: 1422  LLC: 2048
rand_sets[56]: 1422
Assign rand_sets[57]: 607  LLC: 2048
rand_sets[57]: 607
Assign rand_sets[58]: 217  LLC: 2048
rand_sets[58]: 217
Assign rand_sets[59]: 1945  LLC: 2048
rand_sets[59]: 1945
Assign rand_sets[60]: 143  LLC: 2048
rand_sets[60]: 143
Assign rand_sets[61]: 1311  LLC: 2048
rand_sets[61]: 1311
Assign rand_sets[62]: 319  LLC: 2048
rand_sets[62]: 319
Assign rand_sets[63]: 1846  LLC: 2048
rand_sets[63]: 1846
 CLEAN-RRIP-POLICY-1: 1-2-1-3-2-3-0-2- CLEAN-RRIP-POLICY-2: 1-2-1-3-2-3-0-2-
 DIRTY-RRIP-POLICY-1: 1-2-0-3-1-3-0-2- DIRTY-RRIP-POLICY-2: 1-2-0-3-1-3-0-2-
 PSEL width: 10
Heartbeat CPU 0 instructions: 10000002 cycles: 6248291 heartbeat IPC: 1.60044 cumulative IPC: 1.60044 (Simulation time: 0 hr 0 min 12 sec) 
Heartbeat CPU 0 instructions: 20000000 cycles: 12468611 heartbeat IPC: 1.60763 cumulative IPC: 1.60403 (Simulation time: 0 hr 0 min 24 sec) 
Heartbeat CPU 0 instructions: 30000000 cycles: 18678498 heartbeat IPC: 1.61034 cumulative IPC: 1.60612 (Simulation time: 0 hr 0 min 37 sec) 
Heartbeat CPU 0 instructions: 40000000 cycles: 24888811 heartbeat IPC: 1.61022 cumulative IPC: 1.60715 (Simulation time: 0 hr 0 min 49 sec) 
Heartbeat CPU 0 instructions: 50000003 cycles: 31100934 heartbeat IPC: 1.60976 cumulative IPC: 1.60767 (Simulation time: 0 hr 1 min 1 sec) 
Heartbeat CPU 0 instructions: 60000000 cycles: 37296857 heartbeat IPC: 1.61396 cumulative IPC: 1.60871 (Simulation time: 0 hr 1 min 13 sec) 
Heartbeat CPU 0 instructions: 70000003 cycles: 43514990 heartbeat IPC: 1.6082 cumulative IPC: 1.60864 (Simulation time: 0 hr 1 min 26 sec) 
Heartbeat CPU 0 instructions: 80000000 cycles: 49745179 heartbeat IPC: 1.60509 cumulative IPC: 1.6082 (Simulation time: 0 hr 1 min 38 sec) 
Heartbeat CPU 0 instructions: 90000000 cycles: 55973864 heartbeat IPC: 1.60548 cumulative IPC: 1.60789 (Simulation time: 0 hr 1 min 50 sec) 
Heartbeat CPU 0 instructions: 100000000 cycles: 62192592 heartbeat IPC: 1.60805 cumulative IPC: 1.60791 (Simulation time: 0 hr 2 min 3 sec) 

Warmup complete CPU 0 instructions: 100000001 cycles: 62192593 (Simulation time: 0 hr 2 min 3 sec) 

Heartbeat CPU 0 instructions: 110000000 cycles: 86645515 heartbeat IPC: 0.408949 cumulative IPC: 0.408949 (Simulation time: 0 hr 2 min 26 sec) 
Heartbeat CPU 0 instructions: 120000000 cycles: 111235761 heartbeat IPC: 0.406665 cumulative IPC: 0.407804 (Simulation time: 0 hr 2 min 49 sec) 
Heartbeat CPU 0 instructions: 130000000 cycles: 135894147 heartbeat IPC: 0.405542 cumulative IPC: 0.407047 (Simulation time: 0 hr 3 min 12 sec) 
Heartbeat CPU 0 instructions: 140000000 cycles: 160520428 heartbeat IPC: 0.40607 cumulative IPC: 0.406802 (Simulation time: 0 hr 3 min 35 sec) 
Heartbeat CPU 0 instructions: 150000003 cycles: 185037674 heartbeat IPC: 0.407876 cumulative IPC: 0.407017 (Simulation time: 0 hr 3 min 58 sec) 
Heartbeat CPU 0 instructions: 160000000 cycles: 209812467 heartbeat IPC: 0.403636 cumulative IPC: 0.406449 (Simulation time: 0 hr 4 min 21 sec) 
Heartbeat CPU 0 instructions: 170000001 cycles: 234447391 heartbeat IPC: 0.405928 cumulative IPC: 0.406375 (Simulation time: 0 hr 4 min 44 sec) 
Heartbeat CPU 0 instructions: 180000000 cycles: 259091536 heartbeat IPC: 0.405776 cumulative IPC: 0.4063 (Simulation time: 0 hr 5 min 7 sec) 
Heartbeat CPU 0 instructions: 190000003 cycles: 283706425 heartbeat IPC: 0.406258 cumulative IPC: 0.406295 (Simulation time: 0 hr 5 min 30 sec) 
Heartbeat CPU 0 instructions: 200000000 cycles: 308359328 heartbeat IPC: 0.405632 cumulative IPC: 0.406229 (Simulation time: 0 hr 5 min 53 sec) 
Heartbeat CPU 0 instructions: 210000003 cycles: 333072050 heartbeat IPC: 0.40465 cumulative IPC: 0.406085 (Simulation time: 0 hr 6 min 16 sec) 
Heartbeat CPU 0 instructions: 220000000 cycles: 357964578 heartbeat IPC: 0.401727 cumulative IPC: 0.405718 (Simulation time: 0 hr 6 min 40 sec) 
Heartbeat CPU 0 instructions: 230000002 cycles: 382522201 heartbeat IPC: 0.407206 cumulative IPC: 0.405832 (Simulation time: 0 hr 7 min 3 sec) 
Heartbeat CPU 0 instructions: 240000000 cycles: 407375056 heartbeat IPC: 0.402368 cumulative IPC: 0.405583 (Simulation time: 0 hr 7 min 26 sec) 
Heartbeat CPU 0 instructions: 250000000 cycles: 432038576 heartbeat IPC: 0.405457 cumulative IPC: 0.405574 (Simulation time: 0 hr 7 min 49 sec) 
Heartbeat CPU 0 instructions: 260000000 cycles: 456660889 heartbeat IPC: 0.406136 cumulative IPC: 0.405609 (Simulation time: 0 hr 8 min 12 sec) 
Heartbeat CPU 0 instructions: 270000001 cycles: 481379638 heartbeat IPC: 0.404551 cumulative IPC: 0.405547 (Simulation time: 0 hr 8 min 36 sec) 
Heartbeat CPU 0 instructions: 280000000 cycles: 506033240 heartbeat IPC: 0.40562 cumulative IPC: 0.405551 (Simulation time: 0 hr 8 min 59 sec) 
Heartbeat CPU 0 instructions: 290000001 cycles: 530766360 heartbeat IPC: 0.404316 cumulative IPC: 0.405486 (Simulation time: 0 hr 9 min 22 sec) 
Heartbeat CPU 0 instructions: 300000000 cycles: 555661923 heartbeat IPC: 0.401678 cumulative IPC: 0.405294 (Simulation time: 0 hr 9 min 46 sec) 
Heartbeat CPU 0 instructions: 310000003 cycles: 580210545 heartbeat IPC: 0.407355 cumulative IPC: 0.405391 (Simulation time: 0 hr 10 min 9 sec) 
Heartbeat CPU 0 instructions: 320000000 cycles: 605108218 heartbeat IPC: 0.401644 cumulative IPC: 0.405219 (Simulation time: 0 hr 10 min 32 sec) 
Heartbeat CPU 0 instructions: 330000003 cycles: 629763745 heartbeat IPC: 0.405589 cumulative IPC: 0.405236 (Simulation time: 0 hr 10 min 55 sec) 
Heartbeat CPU 0 instructions: 340000000 cycles: 654702665 heartbeat IPC: 0.40098 cumulative IPC: 0.405056 (Simulation time: 0 hr 11 min 18 sec) 
Heartbeat CPU 0 instructions: 350000002 cycles: 679612188 heartbeat IPC: 0.401453 cumulative IPC: 0.404911 (Simulation time: 0 hr 11 min 42 sec) 
Heartbeat CPU 0 instructions: 360000000 cycles: 704651298 heartbeat IPC: 0.399375 cumulative IPC: 0.404695 (Simulation time: 0 hr 12 min 5 sec) 
Heartbeat CPU 0 instructions: 370000000 cycles: 729472862 heartbeat IPC: 0.402876 cumulative IPC: 0.404628 (Simulation time: 0 hr 12 min 28 sec) 
Heartbeat CPU 0 instructions: 380000000 cycles: 754114811 heartbeat IPC: 0.405812 cumulative IPC: 0.40467 (Simulation time: 0 hr 12 min 51 sec) 
Heartbeat CPU 0 instructions: 390000002 cycles: 778773094 heartbeat IPC: 0.405543 cumulative IPC: 0.4047 (Simulation time: 0 hr 13 min 14 sec) 
Heartbeat CPU 0 instructions: 400000000 cycles: 803600571 heartbeat IPC: 0.402779 cumulative IPC: 0.404636 (Simulation time: 0 hr 13 min 38 sec) 
Heartbeat CPU 0 instructions: 410000002 cycles: 828338129 heartbeat IPC: 0.404244 cumulative IPC: 0.404623 (Simulation time: 0 hr 14 min 1 sec) 
Heartbeat CPU 0 instructions: 420000000 cycles: 852866319 heartbeat IPC: 0.407694 cumulative IPC: 0.404718 (Simulation time: 0 hr 14 min 24 sec) 
Heartbeat CPU 0 instructions: 430000000 cycles: 877599957 heartbeat IPC: 0.404308 cumulative IPC: 0.404706 (Simulation time: 0 hr 14 min 47 sec) 
Heartbeat CPU 0 instructions: 440000000 cycles: 902052274 heartbeat IPC: 0.408959 cumulative IPC: 0.40483 (Simulation time: 0 hr 15 min 11 sec) 
Heartbeat CPU 0 instructions: 450000000 cycles: 926897205 heartbeat IPC: 0.402497 cumulative IPC: 0.404763 (Simulation time: 0 hr 15 min 35 sec) 
Heartbeat CPU 0 instructions: 460000000 cycles: 951634986 heartbeat IPC: 0.40424 cumulative IPC: 0.404748 (Simulation time: 0 hr 15 min 59 sec) 
Heartbeat CPU 0 instructions: 470000001 cycles: 976191537 heartbeat IPC: 0.407223 cumulative IPC: 0.404814 (Simulation time: 0 hr 16 min 24 sec) 
Heartbeat CPU 0 instructions: 480000000 cycles: 1000901061 heartbeat IPC: 0.404702 cumulative IPC: 0.404812 (Simulation time: 0 hr 16 min 48 sec) 
Heartbeat CPU 0 instructions: 490000000 cycles: 1025716196 heartbeat IPC: 0.40298 cumulative IPC: 0.404764 (Simulation time: 0 hr 17 min 12 sec) 
Heartbeat CPU 0 instructions: 500000000 cycles: 1050840910 heartbeat IPC: 0.398014 cumulative IPC: 0.404593 (Simulation time: 0 hr 17 min 36 sec) 
Heartbeat CPU 0 instructions: 510000003 cycles: 1075850884 heartbeat IPC: 0.399841 cumulative IPC: 0.404476 (Simulation time: 0 hr 18 min 1 sec) 
Heartbeat CPU 0 instructions: 520000000 cycles: 1101013650 heartbeat IPC: 0.397412 cumulative IPC: 0.404304 (Simulation time: 0 hr 18 min 25 sec) 
Heartbeat CPU 0 instructions: 530000003 cycles: 1126187934 heartbeat IPC: 0.397231 cumulative IPC: 0.404137 (Simulation time: 0 hr 18 min 49 sec) 
Heartbeat CPU 0 instructions: 540000000 cycles: 1151288363 heartbeat IPC: 0.398399 cumulative IPC: 0.404005 (Simulation time: 0 hr 19 min 13 sec) 
Heartbeat CPU 0 instructions: 550000000 cycles: 1176387785 heartbeat IPC: 0.398416 cumulative IPC: 0.403879 (Simulation time: 0 hr 19 min 38 sec) 
Heartbeat CPU 0 instructions: 560000000 cycles: 1201779716 heartbeat IPC: 0.393826 cumulative IPC: 0.403655 (Simulation time: 0 hr 20 min 2 sec) 
Heartbeat CPU 0 instructions: 570000001 cycles: 1227115632 heartbeat IPC: 0.394697 cumulative IPC: 0.40346 (Simulation time: 0 hr 20 min 26 sec) 
Heartbeat CPU 0 instructions: 580000000 cycles: 1252456179 heartbeat IPC: 0.394624 cumulative IPC: 0.403272 (Simulation time: 0 hr 20 min 51 sec) 
Heartbeat CPU 0 instructions: 590000000 cycles: 1277931908 heartbeat IPC: 0.39253 cumulative IPC: 0.403047 (Simulation time: 0 hr 21 min 15 sec) 
Heartbeat CPU 0 instructions: 600000000 cycles: 1303482295 heartbeat IPC: 0.391383 cumulative IPC: 0.402807 (Simulation time: 0 hr 21 min 40 sec) 
Finished CPU 0 instructions: 500000003 cycles: 1241289715 cumulative IPC: 0.402807 (Simulation time: 0 hr 21 min 40 sec) 

CPU 0 Branch Prediction Accuracy: 91.1342% MPKI: 18.7968
Number of Branches: 106006945 Number of Mispredictions: 9398408
Number of LOAD Instructions: 207894007
Number of LOAD Instructions (ROI): 207894007
Number of STORE Instructions: 54285997
Number of STORE Instructions (ROI): 54285997
Total Destination Memory Operands: 57463404
Total Destination Memory Operands (ROI): 57463404
Total Source Memory Operands: 207894007
Total Source Memory Operands (ROI): 207894007
Number of DEPENDED LOADS: 18101625
Number of DEPENDED LOADS (ROI): 18101625
Number of SQ_ADDED: 57463404
Number of SQ_ADDED (ROI): 57463404
Number of LQ_ADDED: 209235396
Number of LQ_ADDED (ROI): 209235396
Number of Instructions read from trace: 600000039

ChampSim completed all CPUs

Region of Interest Statistics

CPU 0 cumulative IPC: 0.402807 instructions: 500000003 cycles: 1241289715
ITLB TOTAL     ACCESS:   96423548  HIT:   96423548  MISS:          0
ITLB LOAD      ACCESS:   96423548  HIT:   96423548  MISS:          0
ITLB RFO       ACCESS:          0  HIT:          0  MISS:          0
ITLB PREFETCH  ACCESS:          0  HIT:          0  MISS:          0
ITLB WRITEBACK ACCESS:          0  HIT:          0  MISS:          0
ITLB PREFETCH  REQUESTED:          0  ISSUED:          0  USEFUL:          0  USELESS:          0
ITLB TOTAL MSHR MERGED:          0
ITLB LOAD MSHR MERGED:          0
ITLB RFO MSHR MERGED:          0
ITLB PREFETCH MSHR MERGED:          0
ITLB WRITEBACK MSHR MERGED:          0
ITLB TOTAL ACCESSES:   96423548 HITS:   96423548 MISSES:          0
ITLB LOAD ACCESSES:   96423548 HITS:   96423548 MISSES:          0
ITLB RFO ACCESSES:          0 HITS:          0 MISSES:          0
ITLB PREFETCH ACCESSES:          0 HITS:          0 MISSES:          0
ITLB WRITEBACK ACCESSES:          0 HITS:          0 MISSES:          0
ITLB RQ ACCESS:  499999980
ITLB RQ TO_CACHE:   96423548
ITLB RQ MERGED:  403576432
ITLB RQ FORWARD:          0
ITLB WQ ACCESS:          0
ITLB WQ TO_CACHE:          0
ITLB WQ MERGED:          0
ITLB WQ FORWARD:          0
DTLB TOTAL     ACCESS:  155176622  HIT:  150264479  MISS:    4912143
DTLB LOAD      ACCESS:  117726019  HIT:  113335570  MISS:    4390449
DTLB RFO       ACCESS:   37450603  HIT:   36928909  MISS:     521694
DTLB PREFETCH  ACCESS:          0  HIT:          0  MISS:          0
DTLB WRITEBACK ACCESS:          0  HIT:          0  MISS:          0
DTLB PREFETCH  REQUESTED:          0  ISSUED:          0  USEFUL:          0  USELESS:          0
DTLB TOTAL MSHR MERGED:     453657
DTLB LOAD MSHR MERGED:     162223
DTLB RFO MSHR MERGED:     291434
DTLB PREFETCH MSHR MERGED:          0
DTLB WRITEBACK MSHR MERGED:          0
DTLB TOTAL ACCESSES:  155630279 HITS:  150264479 MISSES:    5365800
DTLB LOAD ACCESSES:  117888242 HITS:  113335570 MISSES:    4552672
DTLB RFO ACCESSES:   37742037 HITS:   36928909 MISSES:     813128
DTLB PREFETCH ACCESSES:          0 HITS:          0 MISSES:          0
DTLB WRITEBACK ACCESSES:          0 HITS:          0 MISSES:          0
DTLB RQ ACCESS:  205981146
DTLB RQ TO_CACHE:  155630279
DTLB RQ MERGED:   50350867
DTLB RQ FORWARD:          0
DTLB WQ ACCESS:          0
DTLB WQ TO_CACHE:          0
DTLB WQ MERGED:          0
DTLB WQ FORWARD:          0
L1D TOTAL     ACCESS:  277176098  HIT:  242353588  MISS:   34822510
L1D LOAD      ACCESS:  125414469  HIT:  107777604  MISS:   17636865
L1D RFO       ACCESS:   41137720  HIT:   38825883  MISS:    2311837
L1D PREFETCH  ACCESS:  110623909  HIT:   95750101  MISS:   14873808
L1D WRITEBACK ACCESS:          0  HIT:          0  MISS:          0
L1D PREFETCH  REQUESTED:  126276853  ISSUED:  124757615  USEFUL:    2707785  USELESS:   12166049
L1D TOTAL MSHR MERGED:    8508380
L1D LOAD MSHR MERGED:    1559188
L1D RFO MSHR MERGED:    3767565
L1D PREFETCH MSHR MERGED:    3181627
L1D WRITEBACK MSHR MERGED:          0
L1D TOTAL ACCESSES:  285771769 HITS:  242440877 MISSES:   43330892
L1D LOAD ACCESSES:  126276875 HITS:  107777626 MISSES:   18499249
L1D RFO ACCESSES:   44904788 HITS:   38825883 MISSES:    6078905
L1D PREFETCH ACCESSES:  114590106 HITS:   95837368 MISSES:   18752738
L1D WRITEBACK ACCESSES:          0 HITS:          0 MISSES:          0
L1D RQ ACCESS:  158434265
L1D RQ TO_CACHE:  126276853
L1D RQ MERGED:   32157390
L1D RQ FORWARD:          0
L1D WQ ACCESS:   47546882
L1D WQ TO_CACHE:   44904788
L1D WQ MERGED:    2642094
L1D WQ FORWARD:      87289
L1I TOTAL     ACCESS:  132833519  HIT:  132833519  MISS:          0
L1I LOAD      ACCESS:  132833519  HIT:  132833519  MISS:          0
L1I RFO       ACCESS:          0  HIT:          0  MISS:          0
L1I PREFETCH  ACCESS:          0  HIT:          0  MISS:          0
L1I WRITEBACK ACCESS:          0  HIT:          0  MISS:          0
L1I PREFETCH  REQUESTED:          0  ISSUED:          0  USEFUL:          0  USELESS:          0
L1I TOTAL MSHR MERGED:          0
L1I LOAD MSHR MERGED:          0
L1I RFO MSHR MERGED:          0
L1I PREFETCH MSHR MERGED:          0
L1I WRITEBACK MSHR MERGED:          0
L1I TOTAL ACCESSES:  132833519 HITS:  132833519 MISSES:          0
L1I LOAD ACCESSES:  132833519 HITS:  132833519 MISSES:          0
L1I RFO ACCESSES:          0 HITS:          0 MISSES:          0
L1I PREFETCH ACCESSES:          0 HITS:          0 MISSES:          0
L1I WRITEBACK ACCESSES:          0 HITS:          0 MISSES:          0
L1I RQ ACCESS:  499999980
L1I RQ TO_CACHE:  132833519
L1I RQ MERGED:  367166461
L1I RQ FORWARD:          0
L1I WQ ACCESS:          0
L1I WQ TO_CACHE:          0
L1I WQ MERGED:          0
L1I WQ FORWARD:          0
L2C TOTAL     ACCESS:   39594453  HIT:   20625006  MISS:   18969447
L2C LOAD      ACCESS:   16940001  HIT:    8567771  MISS:    8372230
L2C RFO       ACCESS:    2311291  HIT:     630828  MISS:    1680463
L2C PREFETCH  ACCESS:   17120714  HIT:    8207710  MISS:    8913004
L2C WRITEBACK ACCESS:    3222447  HIT:    3218697  MISS:       3750
L2C PREFETCH  REQUESTED:    2859506  ISSUED:    2859506  USEFUL:    1307134  USELESS:    7605611
L2C TOTAL MSHR MERGED:     524241
L2C LOAD MSHR MERGED:      84134
L2C RFO MSHR MERGED:          0
L2C PREFETCH MSHR MERGED:     440107
L2C WRITEBACK MSHR MERGED:          0
L2C TOTAL ACCESSES:   40218415 HITS:   20625166 MISSES:   19593249
L2C LOAD ACCESSES:   16940061 HITS:    8567831 MISSES:    8372230
L2C RFO ACCESSES:    2311340 HITS:     630877 MISSES:    1680463
L2C PREFETCH ACCESSES:   17744567 HITS:    8207761 MISSES:    9536806
L2C WRITEBACK ACCESSES:    3222447 HITS:    3218697 MISSES:       3750
L2C RQ ACCESS:   19251401
L2C RQ TO_CACHE:   19251292
L2C RQ MERGED:          0
L2C RQ FORWARD:          0
L2C WQ ACCESS:    3222447
L2C WQ TO_CACHE:    3222447
L2C WQ MERGED:          0
L2C WQ FORWARD:        160
LLC TOTAL     ACCESS:   21191568  HIT:   14483751  MISS:    6707817
LLC LOAD      ACCESS:    8288071  HIT:    5806996  MISS:    2481075
LLC RFO       ACCESS:    1680380  HIT:    1678522  MISS:       1858
LLC PREFETCH  ACCESS:    9047455  HIT:    4823972  MISS:    4223483
LLC WRITEBACK ACCESS:    2175662  HIT:    2174261  MISS:       1401
LLC PREFETCH  REQUESTED:          0  ISSUED:          0  USEFUL:     209094  USELESS:    4017186
LLC TOTAL MSHR MERGED:      41421
LLC LOAD MSHR MERGED:      12672
LLC RFO MSHR MERGED:          0
LLC PREFETCH MSHR MERGED:      28749
LLC WRITEBACK MSHR MERGED:          0
LLC TOTAL ACCESSES:   21233128 HITS:   14483888 MISSES:    6749240
LLC LOAD ACCESSES:    8288096 HITS:    5807021 MISSES:    2481075
LLC RFO ACCESSES:    1680463 HITS:    1678605 MISSES:       1858
LLC PREFETCH ACCESSES:    9088907 HITS:    4824001 MISSES:    4264906
LLC WRITEBACK ACCESSES:    2175662 HITS:    2174261 MISSES:       1401
LLC 0 RQ ACCESS:    9968559
LLC 0 RQ TO_CACHE:    9968451
LLC 0 RQ MERGED:          0
LLC 0 RQ FORWARD:          0
LLC WQ ACCESS:    2175663
LLC WQ TO_CACHE:    2175663
LLC WQ MERGED:          0
LLC WQ FORWARD:        137
Major fault: 0 Minor fault: 56391
CPU 0 L1D next line prefetcher final stats
CPU 0 L2C PC-based stride prefetcher final stats
All Misses: 7914810
All Hits: 16653602
SD Algo Stats - Switches: 0 SRR-Repls: 2600490 BRR-Repls: 0

DRAM Statistics
 CHANNEL 0
 RQ ROW_BUFFER_HIT:    4570453  ROW_BUFFER_MISS:    2133749
 DBUS_CONGESTED:    3152447
 WQ ROW_BUFFER_HIT:        294  ROW_BUFFER_MISS:      10300  FULL:          0

 AVG_CONGESTED_CYCLE: 12
LOADS RETIRED: 173631671
INSTR RETIRED: 500000000
