
*** ChampSim Multicore Out-of-Order Simulator ***

Warmup Instructions: 100000000
Simulation Instructions: 500000000
Number of CPUs: 1
LLC sets: 2048
LLC ways: 16
Clean RRIP Policies: 2101030121010301 Dirty RRIP Policies: 1101130111011301 PSEL Width: 10 Track Set: 4294967295 PSEL Mask: 1 Demote Mask: 2143211021432110DS Algo: 0Window size: 0
Off-chip DRAM Size: 4096 MB Channels: 1 Width: 64-bit Data Rate: 1600 MT/s

CPU 0 runs /mnt/beegfs/iconst01/spec2017/Bwaves.trace.gz
NOT SORTED
TRACE STRING: /mnt/beegfs/iconst01/spec2017/Bwaves.trace.gz
SORTED
TRACE STRING: /mnt/beegfs/iconst01/spec2017/Bwaves.trace.gz
INITIAL
TRACE STRING: /mnt/beegfs/iconst01/spec2017/Bwaves.trace.gz

champsim_seed used: 616

CPU 0 L1D next line prefetcher
CPU 0 L2C IP-based stride prefetcher
Initialize DRRIP state
Assign rand_sets[0]: 454  LLC: 2048
rand_sets[0]: 454
Assign rand_sets[1]: 1662  LLC: 2048
rand_sets[1]: 1662
Assign rand_sets[2]: 1921  LLC: 2048
rand_sets[2]: 1921
Assign rand_sets[3]: 1131  LLC: 2048
rand_sets[3]: 1131
Assign rand_sets[4]: 331  LLC: 2048
rand_sets[4]: 331
Assign rand_sets[5]: 1531  LLC: 2048
rand_sets[5]: 1531
Assign rand_sets[6]: 482  LLC: 2048
rand_sets[6]: 482
Assign rand_sets[7]: 1275  LLC: 2048
rand_sets[7]: 1275
Assign rand_sets[8]: 1876  LLC: 2048
rand_sets[8]: 1876
Assign rand_sets[9]: 2038  LLC: 2048
rand_sets[9]: 2038
Assign rand_sets[10]: 701  LLC: 2048
rand_sets[10]: 701
Assign rand_sets[11]: 479  LLC: 2048
rand_sets[11]: 479
Assign rand_sets[12]: 892  LLC: 2048
rand_sets[12]: 892
Assign rand_sets[13]: 1820  LLC: 2048
rand_sets[13]: 1820
Assign rand_sets[14]: 1505  LLC: 2048
rand_sets[14]: 1505
Assign rand_sets[15]: 1159  LLC: 2048
rand_sets[15]: 1159
Assign rand_sets[16]: 513  LLC: 2048
rand_sets[16]: 513
Assign rand_sets[17]: 703  LLC: 2048
rand_sets[17]: 703
Assign rand_sets[18]: 561  LLC: 2048
rand_sets[18]: 561
Assign rand_sets[19]: 990  LLC: 2048
rand_sets[19]: 990
Assign rand_sets[20]: 342  LLC: 2048
rand_sets[20]: 342
Assign rand_sets[21]: 882  LLC: 2048
rand_sets[21]: 882
Assign rand_sets[22]: 15  LLC: 2048
rand_sets[22]: 15
Assign rand_sets[23]: 71  LLC: 2048
rand_sets[23]: 71
Assign rand_sets[24]: 1127  LLC: 2048
rand_sets[24]: 1127
Assign rand_sets[25]: 1382  LLC: 2048
rand_sets[25]: 1382
Assign rand_sets[26]: 647  LLC: 2048
rand_sets[26]: 647
Assign rand_sets[27]: 857  LLC: 2048
rand_sets[27]: 857
Assign rand_sets[28]: 1450  LLC: 2048
rand_sets[28]: 1450
Assign rand_sets[29]: 1160  LLC: 2048
rand_sets[29]: 1160
Assign rand_sets[30]: 1852  LLC: 2048
rand_sets[30]: 1852
Assign rand_sets[31]: 1881  LLC: 2048
rand_sets[31]: 1881
Assign rand_sets[32]: 1770  LLC: 2048
rand_sets[32]: 1770
Assign rand_sets[33]: 1622  LLC: 2048
rand_sets[33]: 1622
Assign rand_sets[34]: 275  LLC: 2048
rand_sets[34]: 275
Assign rand_sets[35]: 635  LLC: 2048
rand_sets[35]: 635
Assign rand_sets[36]: 466  LLC: 2048
rand_sets[36]: 466
Assign rand_sets[37]: 1413  LLC: 2048
rand_sets[37]: 1413
Assign rand_sets[38]: 417  LLC: 2048
rand_sets[38]: 417
Assign rand_sets[39]: 472  LLC: 2048
rand_sets[39]: 472
Assign rand_sets[40]: 1340  LLC: 2048
rand_sets[40]: 1340
Assign rand_sets[41]: 852  LLC: 2048
rand_sets[41]: 852
Assign rand_sets[42]: 1365  LLC: 2048
rand_sets[42]: 1365
Assign rand_sets[43]: 47  LLC: 2048
rand_sets[43]: 47
Assign rand_sets[44]: 823  LLC: 2048
rand_sets[44]: 823
Assign rand_sets[45]: 686  LLC: 2048
rand_sets[45]: 686
Assign rand_sets[46]: 1637  LLC: 2048
rand_sets[46]: 1637
Assign rand_sets[47]: 1115  LLC: 2048
rand_sets[47]: 1115
Assign rand_sets[48]: 986  LLC: 2048
rand_sets[48]: 986
Assign rand_sets[49]: 258  LLC: 2048
rand_sets[49]: 258
Assign rand_sets[50]: 633  LLC: 2048
rand_sets[50]: 633
Assign rand_sets[51]: 920  LLC: 2048
rand_sets[51]: 920
Assign rand_sets[52]: 204  LLC: 2048
rand_sets[52]: 204
Assign rand_sets[53]: 227  LLC: 2048
rand_sets[53]: 227
Assign rand_sets[54]: 1818  LLC: 2048
rand_sets[54]: 1818
Assign rand_sets[55]: 886  LLC: 2048
rand_sets[55]: 886
Assign rand_sets[56]: 1422  LLC: 2048
rand_sets[56]: 1422
Assign rand_sets[57]: 607  LLC: 2048
rand_sets[57]: 607
Assign rand_sets[58]: 217  LLC: 2048
rand_sets[58]: 217
Assign rand_sets[59]: 1945  LLC: 2048
rand_sets[59]: 1945
Assign rand_sets[60]: 143  LLC: 2048
rand_sets[60]: 143
Assign rand_sets[61]: 1311  LLC: 2048
rand_sets[61]: 1311
Assign rand_sets[62]: 319  LLC: 2048
rand_sets[62]: 319
Assign rand_sets[63]: 1846  LLC: 2048
rand_sets[63]: 1846
 CLEAN-RRIP-POLICY-1: 2-1-0-1-0-3-0-1- CLEAN-RRIP-POLICY-2: 2-1-0-1-0-3-0-1-
 DIRTY-RRIP-POLICY-1: 1-1-0-1-1-3-0-1- DIRTY-RRIP-POLICY-2: 1-1-0-1-1-3-0-1-
 PSEL width: 10
Heartbeat CPU 0 instructions: 10000000 cycles: 4301292 heartbeat IPC: 2.32488 cumulative IPC: 2.32488 (Simulation time: 0 hr 0 min 12 sec) 
Heartbeat CPU 0 instructions: 20000000 cycles: 8590211 heartbeat IPC: 2.33159 cumulative IPC: 2.32823 (Simulation time: 0 hr 0 min 23 sec) 
Heartbeat CPU 0 instructions: 30000000 cycles: 12882266 heartbeat IPC: 2.32989 cumulative IPC: 2.32878 (Simulation time: 0 hr 0 min 34 sec) 
Heartbeat CPU 0 instructions: 40000000 cycles: 17228858 heartbeat IPC: 2.30065 cumulative IPC: 2.32169 (Simulation time: 0 hr 0 min 46 sec) 
Heartbeat CPU 0 instructions: 50000002 cycles: 21518548 heartbeat IPC: 2.33117 cumulative IPC: 2.32358 (Simulation time: 0 hr 0 min 58 sec) 
Heartbeat CPU 0 instructions: 60000000 cycles: 25808245 heartbeat IPC: 2.33117 cumulative IPC: 2.32484 (Simulation time: 0 hr 1 min 9 sec) 
Heartbeat CPU 0 instructions: 70000002 cycles: 30100363 heartbeat IPC: 2.32985 cumulative IPC: 2.32555 (Simulation time: 0 hr 1 min 20 sec) 
Heartbeat CPU 0 instructions: 80000000 cycles: 34398959 heartbeat IPC: 2.32634 cumulative IPC: 2.32565 (Simulation time: 0 hr 1 min 32 sec) 
Heartbeat CPU 0 instructions: 90000000 cycles: 38685637 heartbeat IPC: 2.33281 cumulative IPC: 2.32644 (Simulation time: 0 hr 1 min 44 sec) 
Heartbeat CPU 0 instructions: 100000000 cycles: 42960712 heartbeat IPC: 2.33914 cumulative IPC: 2.32771 (Simulation time: 0 hr 1 min 55 sec) 

Warmup complete CPU 0 instructions: 100000002 cycles: 42960713 (Simulation time: 0 hr 1 min 55 sec) 

Heartbeat CPU 0 instructions: 110000003 cycles: 52804010 heartbeat IPC: 1.01592 cumulative IPC: 1.01592 (Simulation time: 0 hr 2 min 12 sec) 
Heartbeat CPU 0 instructions: 120000000 cycles: 62573190 heartbeat IPC: 1.02363 cumulative IPC: 1.01976 (Simulation time: 0 hr 2 min 28 sec) 
Heartbeat CPU 0 instructions: 130000002 cycles: 72369880 heartbeat IPC: 1.02075 cumulative IPC: 1.02009 (Simulation time: 0 hr 2 min 45 sec) 
Heartbeat CPU 0 instructions: 140000000 cycles: 82297290 heartbeat IPC: 1.00731 cumulative IPC: 1.01687 (Simulation time: 0 hr 3 min 1 sec) 
Heartbeat CPU 0 instructions: 150000003 cycles: 92239239 heartbeat IPC: 1.00584 cumulative IPC: 1.01464 (Simulation time: 0 hr 3 min 18 sec) 
Heartbeat CPU 0 instructions: 160000000 cycles: 102158116 heartbeat IPC: 1.00818 cumulative IPC: 1.01356 (Simulation time: 0 hr 3 min 35 sec) 
Heartbeat CPU 0 instructions: 170000003 cycles: 112112704 heartbeat IPC: 1.00456 cumulative IPC: 1.01226 (Simulation time: 0 hr 3 min 51 sec) 
Heartbeat CPU 0 instructions: 180000000 cycles: 122057465 heartbeat IPC: 1.00555 cumulative IPC: 1.01142 (Simulation time: 0 hr 4 min 8 sec) 
Heartbeat CPU 0 instructions: 190000001 cycles: 131948831 heartbeat IPC: 1.01098 cumulative IPC: 1.01137 (Simulation time: 0 hr 4 min 25 sec) 
Heartbeat CPU 0 instructions: 200000000 cycles: 141726376 heartbeat IPC: 1.02275 cumulative IPC: 1.0125 (Simulation time: 0 hr 4 min 41 sec) 
Heartbeat CPU 0 instructions: 210000000 cycles: 151619254 heartbeat IPC: 1.01083 cumulative IPC: 1.01235 (Simulation time: 0 hr 4 min 58 sec) 
Heartbeat CPU 0 instructions: 220000000 cycles: 161352510 heartbeat IPC: 1.02741 cumulative IPC: 1.01358 (Simulation time: 0 hr 5 min 14 sec) 
Heartbeat CPU 0 instructions: 230000000 cycles: 171093928 heartbeat IPC: 1.02654 cumulative IPC: 1.01457 (Simulation time: 0 hr 5 min 30 sec) 
Heartbeat CPU 0 instructions: 240000000 cycles: 181269794 heartbeat IPC: 0.982717 cumulative IPC: 1.01223 (Simulation time: 0 hr 5 min 48 sec) 
Heartbeat CPU 0 instructions: 250000002 cycles: 191108389 heartbeat IPC: 1.01641 cumulative IPC: 1.0125 (Simulation time: 0 hr 6 min 4 sec) 
Heartbeat CPU 0 instructions: 260000000 cycles: 200831801 heartbeat IPC: 1.02845 cumulative IPC: 1.01349 (Simulation time: 0 hr 6 min 20 sec) 
Heartbeat CPU 0 instructions: 270000000 cycles: 210527231 heartbeat IPC: 1.03141 cumulative IPC: 1.01452 (Simulation time: 0 hr 6 min 37 sec) 
Heartbeat CPU 0 instructions: 280000000 cycles: 220249461 heartbeat IPC: 1.02857 cumulative IPC: 1.01529 (Simulation time: 0 hr 6 min 53 sec) 
Heartbeat CPU 0 instructions: 290000000 cycles: 229956247 heartbeat IPC: 1.03021 cumulative IPC: 1.01607 (Simulation time: 0 hr 7 min 10 sec) 
Heartbeat CPU 0 instructions: 300000000 cycles: 239671885 heartbeat IPC: 1.02927 cumulative IPC: 1.01672 (Simulation time: 0 hr 7 min 26 sec) 
Heartbeat CPU 0 instructions: 310000001 cycles: 249360437 heartbeat IPC: 1.03215 cumulative IPC: 1.01744 (Simulation time: 0 hr 7 min 43 sec) 
Heartbeat CPU 0 instructions: 320000000 cycles: 259075949 heartbeat IPC: 1.02928 cumulative IPC: 1.01798 (Simulation time: 0 hr 7 min 59 sec) 
Heartbeat CPU 0 instructions: 330000002 cycles: 269103470 heartbeat IPC: 0.997256 cumulative IPC: 1.01706 (Simulation time: 0 hr 8 min 16 sec) 
Heartbeat CPU 0 instructions: 340000000 cycles: 279189211 heartbeat IPC: 0.991499 cumulative IPC: 1.01597 (Simulation time: 0 hr 8 min 33 sec) 
Heartbeat CPU 0 instructions: 350000003 cycles: 289033757 heartbeat IPC: 1.01579 cumulative IPC: 1.01596 (Simulation time: 0 hr 8 min 49 sec) 
Heartbeat CPU 0 instructions: 360000000 cycles: 298844675 heartbeat IPC: 1.01927 cumulative IPC: 1.01609 (Simulation time: 0 hr 9 min 6 sec) 
Heartbeat CPU 0 instructions: 370000001 cycles: 308652222 heartbeat IPC: 1.01962 cumulative IPC: 1.01622 (Simulation time: 0 hr 9 min 22 sec) 
Heartbeat CPU 0 instructions: 380000000 cycles: 318417874 heartbeat IPC: 1.024 cumulative IPC: 1.01649 (Simulation time: 0 hr 9 min 39 sec) 
Heartbeat CPU 0 instructions: 390000001 cycles: 328331145 heartbeat IPC: 1.00875 cumulative IPC: 1.01622 (Simulation time: 0 hr 9 min 56 sec) 
Heartbeat CPU 0 instructions: 400000000 cycles: 338280695 heartbeat IPC: 1.00507 cumulative IPC: 1.01585 (Simulation time: 0 hr 10 min 12 sec) 
Heartbeat CPU 0 instructions: 410000002 cycles: 348228887 heartbeat IPC: 1.00521 cumulative IPC: 1.0155 (Simulation time: 0 hr 10 min 29 sec) 
Heartbeat CPU 0 instructions: 420000000 cycles: 358150273 heartbeat IPC: 1.00792 cumulative IPC: 1.01526 (Simulation time: 0 hr 10 min 46 sec) 
Heartbeat CPU 0 instructions: 430000001 cycles: 368090942 heartbeat IPC: 1.00597 cumulative IPC: 1.01498 (Simulation time: 0 hr 11 min 2 sec) 
Heartbeat CPU 0 instructions: 440000000 cycles: 378013059 heartbeat IPC: 1.00785 cumulative IPC: 1.01477 (Simulation time: 0 hr 11 min 19 sec) 
Heartbeat CPU 0 instructions: 450000003 cycles: 387709910 heartbeat IPC: 1.03126 cumulative IPC: 1.01523 (Simulation time: 0 hr 11 min 35 sec) 
Heartbeat CPU 0 instructions: 460000000 cycles: 397647221 heartbeat IPC: 1.00631 cumulative IPC: 1.01498 (Simulation time: 0 hr 11 min 52 sec) 
Heartbeat CPU 0 instructions: 470000001 cycles: 407379299 heartbeat IPC: 1.02753 cumulative IPC: 1.01532 (Simulation time: 0 hr 12 min 9 sec) 
Heartbeat CPU 0 instructions: 480000000 cycles: 417117882 heartbeat IPC: 1.02684 cumulative IPC: 1.01562 (Simulation time: 0 hr 12 min 25 sec) 
Heartbeat CPU 0 instructions: 490000002 cycles: 427134710 heartbeat IPC: 0.99832 cumulative IPC: 1.01516 (Simulation time: 0 hr 12 min 42 sec) 
Heartbeat CPU 0 instructions: 500000000 cycles: 437144527 heartbeat IPC: 0.999019 cumulative IPC: 1.01476 (Simulation time: 0 hr 12 min 59 sec) 
Heartbeat CPU 0 instructions: 510000002 cycles: 446850932 heartbeat IPC: 1.03025 cumulative IPC: 1.01513 (Simulation time: 0 hr 13 min 15 sec) 
Heartbeat CPU 0 instructions: 520000000 cycles: 456562395 heartbeat IPC: 1.02971 cumulative IPC: 1.01547 (Simulation time: 0 hr 13 min 31 sec) 
Heartbeat CPU 0 instructions: 530000002 cycles: 466264264 heartbeat IPC: 1.03073 cumulative IPC: 1.01582 (Simulation time: 0 hr 13 min 48 sec) 
Heartbeat CPU 0 instructions: 540000000 cycles: 475990608 heartbeat IPC: 1.02814 cumulative IPC: 1.0161 (Simulation time: 0 hr 14 min 5 sec) 
Heartbeat CPU 0 instructions: 550000001 cycles: 485689283 heartbeat IPC: 1.03107 cumulative IPC: 1.01642 (Simulation time: 0 hr 14 min 21 sec) 
Heartbeat CPU 0 instructions: 560000000 cycles: 495402123 heartbeat IPC: 1.02956 cumulative IPC: 1.01671 (Simulation time: 0 hr 14 min 37 sec) 
Heartbeat CPU 0 instructions: 570000002 cycles: 505098658 heartbeat IPC: 1.0313 cumulative IPC: 1.01701 (Simulation time: 0 hr 14 min 54 sec) 
Heartbeat CPU 0 instructions: 580000000 cycles: 515113746 heartbeat IPC: 0.998493 cumulative IPC: 1.01662 (Simulation time: 0 hr 15 min 10 sec) 
Heartbeat CPU 0 instructions: 590000000 cycles: 525142831 heartbeat IPC: 0.9971 cumulative IPC: 1.01621 (Simulation time: 0 hr 15 min 27 sec) 
Heartbeat CPU 0 instructions: 600000000 cycles: 535050076 heartbeat IPC: 1.00936 cumulative IPC: 1.01608 (Simulation time: 0 hr 15 min 44 sec) 
Finished CPU 0 instructions: 500000000 cycles: 492089372 cumulative IPC: 1.01608 (Simulation time: 0 hr 15 min 44 sec) 

CPU 0 Branch Prediction Accuracy: 92.9125% MPKI: 10.756
Number of Branches: 75879920 Number of Mispredictions: 5377988
Number of LOAD Instructions: 153642898
Number of LOAD Instructions (ROI): 153642898
Number of STORE Instructions: 31440677
Number of STORE Instructions (ROI): 31440677
Total Destination Memory Operands: 31725032
Total Destination Memory Operands (ROI): 31725032
Total Source Memory Operands: 153642898
Total Source Memory Operands (ROI): 153642898
Number of DEPENDED LOADS: 1892574
Number of DEPENDED LOADS (ROI): 1892574
Number of SQ_ADDED: 31725032
Number of SQ_ADDED (ROI): 31725032
Number of LQ_ADDED: 153654787
Number of LQ_ADDED (ROI): 153654787
Number of Instructions read from trace: 600000003

ChampSim completed all CPUs

Region of Interest Statistics

CPU 0 cumulative IPC: 1.01608 instructions: 500000000 cycles: 492089372
ITLB TOTAL     ACCESS:   82135838  HIT:   82135838  MISS:          0
ITLB LOAD      ACCESS:   82135838  HIT:   82135838  MISS:          0
ITLB RFO       ACCESS:          0  HIT:          0  MISS:          0
ITLB PREFETCH  ACCESS:          0  HIT:          0  MISS:          0
ITLB WRITEBACK ACCESS:          0  HIT:          0  MISS:          0
ITLB PREFETCH  REQUESTED:          0  ISSUED:          0  USEFUL:          0  USELESS:          0
ITLB TOTAL MSHR MERGED:          0
ITLB LOAD MSHR MERGED:          0
ITLB RFO MSHR MERGED:          0
ITLB PREFETCH MSHR MERGED:          0
ITLB WRITEBACK MSHR MERGED:          0
ITLB TOTAL ACCESSES:   82135838 HITS:   82135838 MISSES:          0
ITLB LOAD ACCESSES:   82135838 HITS:   82135838 MISSES:          0
ITLB RFO ACCESSES:          0 HITS:          0 MISSES:          0
ITLB PREFETCH ACCESSES:          0 HITS:          0 MISSES:          0
ITLB WRITEBACK ACCESSES:          0 HITS:          0 MISSES:          0
ITLB RQ ACCESS:  499999926
ITLB RQ TO_CACHE:   82135838
ITLB RQ MERGED:  417864088
ITLB RQ FORWARD:          0
ITLB WQ ACCESS:          0
ITLB WQ TO_CACHE:          0
ITLB WQ MERGED:          0
ITLB WQ FORWARD:          0
DTLB TOTAL     ACCESS:   87138378  HIT:   87137501  MISS:        877
DTLB LOAD      ACCESS:   68494805  HIT:   68494704  MISS:        101
DTLB RFO       ACCESS:   18643573  HIT:   18642797  MISS:        776
DTLB PREFETCH  ACCESS:          0  HIT:          0  MISS:          0
DTLB WRITEBACK ACCESS:          0  HIT:          0  MISS:          0
DTLB PREFETCH  REQUESTED:          0  ISSUED:          0  USEFUL:          0  USELESS:          0
DTLB TOTAL MSHR MERGED:       1089
DTLB LOAD MSHR MERGED:         26
DTLB RFO MSHR MERGED:       1063
DTLB PREFETCH MSHR MERGED:          0
DTLB WRITEBACK MSHR MERGED:          0
DTLB TOTAL ACCESSES:   87139467 HITS:   87137501 MISSES:       1966
DTLB LOAD ACCESSES:   68494831 HITS:   68494704 MISSES:        127
DTLB RFO ACCESSES:   18644636 HITS:   18642797 MISSES:       1839
DTLB PREFETCH ACCESSES:          0 HITS:          0 MISSES:          0
DTLB WRITEBACK ACCESSES:          0 HITS:          0 MISSES:          0
DTLB RQ ACCESS:  152860125
DTLB RQ TO_CACHE:   87139467
DTLB RQ MERGED:   65720658
DTLB RQ FORWARD:          0
DTLB WQ ACCESS:          0
DTLB WQ TO_CACHE:          0
DTLB WQ MERGED:          0
DTLB WQ FORWARD:          0
L1D TOTAL     ACCESS:  151315772  HIT:  151255917  MISS:      59855
L1D LOAD      ACCESS:   73265298  HIT:   73263516  MISS:       1782
L1D RFO       ACCESS:   25967003  HIT:   25915695  MISS:      51308
L1D PREFETCH  ACCESS:   52083471  HIT:   52076706  MISS:       6765
L1D WRITEBACK ACCESS:          0  HIT:          0  MISS:          0
L1D PREFETCH  REQUESTED:   73265555  ISSUED:   72835351  USEFUL:       5379  USELESS:       1384
L1D TOTAL MSHR MERGED:     296524
L1D LOAD MSHR MERGED:        296
L1D RFO MSHR MERGED:     292638
L1D PREFETCH MSHR MERGED:       3590
L1D WRITEBACK MSHR MERGED:          0
L1D TOTAL ACCESSES:  151616485 HITS:  151260106 MISSES:     356379
L1D LOAD ACCESSES:   73265908 HITS:   73263869 MISSES:       2039
L1D RFO ACCESSES:   26259639 HITS:   25915695 MISSES:     343944
L1D PREFETCH ACCESSES:   52090938 HITS:   52080542 MISSES:      10396
L1D WRITEBACK ACCESSES:          0 HITS:          0 MISSES:          0
L1D RQ ACCESS:  126388231
L1D RQ TO_CACHE:   73265555
L1D RQ MERGED:   53122323
L1D RQ FORWARD:          0
L1D WQ ACCESS:   26471896
L1D WQ TO_CACHE:   26259640
L1D WQ MERGED:     212256
L1D WQ FORWARD:       4189
L1I TOTAL     ACCESS:   94261417  HIT:   94261411  MISS:          6
L1I LOAD      ACCESS:   94261417  HIT:   94261411  MISS:          6
L1I RFO       ACCESS:          0  HIT:          0  MISS:          0
L1I PREFETCH  ACCESS:          0  HIT:          0  MISS:          0
L1I WRITEBACK ACCESS:          0  HIT:          0  MISS:          0
L1I PREFETCH  REQUESTED:          0  ISSUED:          0  USEFUL:          0  USELESS:          0
L1I TOTAL MSHR MERGED:          4
L1I LOAD MSHR MERGED:          4
L1I RFO MSHR MERGED:          0
L1I PREFETCH MSHR MERGED:          0
L1I WRITEBACK MSHR MERGED:          0
L1I TOTAL ACCESSES:   94261421 HITS:   94261411 MISSES:         10
L1I LOAD ACCESSES:   94261421 HITS:   94261411 MISSES:         10
L1I RFO ACCESSES:          0 HITS:          0 MISSES:          0
L1I PREFETCH ACCESSES:          0 HITS:          0 MISSES:          0
L1I WRITEBACK ACCESSES:          0 HITS:          0 MISSES:          0
L1I RQ ACCESS:  499999932
L1I RQ TO_CACHE:   94261421
L1I RQ MERGED:  405738511
L1I RQ FORWARD:          0
L1I WQ ACCESS:          0
L1I WQ TO_CACHE:          0
L1I WQ MERGED:          0
L1I WQ FORWARD:          0
L2C TOTAL     ACCESS:     111541  HIT:      56077  MISS:      55464
L2C LOAD      ACCESS:       1749  HIT:       1443  MISS:        306
L2C RFO       ACCESS:      51306  HIT:       1524  MISS:      49782
L2C PREFETCH  ACCESS:       6806  HIT:       1655  MISS:       5151
L2C WRITEBACK ACCESS:      51680  HIT:      51455  MISS:        225
L2C PREFETCH  REQUESTED:          0  ISSUED:          0  USEFUL:        121  USELESS:       5055
L2C TOTAL MSHR MERGED:          0
L2C LOAD MSHR MERGED:          0
L2C RFO MSHR MERGED:          0
L2C PREFETCH MSHR MERGED:          0
L2C WRITEBACK MSHR MERGED:          0
L2C TOTAL ACCESSES:     111541 HITS:      56077 MISSES:      55464
L2C LOAD ACCESSES:       1749 HITS:       1443 MISSES:        306
L2C RFO ACCESSES:      51306 HITS:       1524 MISSES:      49782
L2C PREFETCH ACCESSES:       6806 HITS:       1655 MISSES:       5151
L2C WRITEBACK ACCESSES:      51680 HITS:      51455 MISSES:        225
L2C RQ ACCESS:      53055
L2C RQ TO_CACHE:      53055
L2C RQ MERGED:          0
L2C RQ FORWARD:          0
L2C WQ ACCESS:      51680
L2C WQ TO_CACHE:      51680
L2C WQ MERGED:          0
L2C WQ FORWARD:          0
LLC TOTAL     ACCESS:     105239  HIT:        767  MISS:     104472
LLC LOAD      ACCESS:        306  HIT:        161  MISS:        145
LLC RFO       ACCESS:      49782  HIT:         96  MISS:      49686
LLC PREFETCH  ACCESS:       5151  HIT:        194  MISS:       4957
LLC WRITEBACK ACCESS:      50000  HIT:        316  MISS:      49684
LLC PREFETCH  REQUESTED:          0  ISSUED:          0  USEFUL:          2  USELESS:       3528
LLC TOTAL MSHR MERGED:          0
LLC LOAD MSHR MERGED:          0
LLC RFO MSHR MERGED:          0
LLC PREFETCH MSHR MERGED:          0
LLC WRITEBACK MSHR MERGED:          0
LLC TOTAL ACCESSES:     105239 HITS:        767 MISSES:     104472
LLC LOAD ACCESSES:        306 HITS:        161 MISSES:        145
LLC RFO ACCESSES:      49782 HITS:         96 MISSES:      49686
LLC PREFETCH ACCESSES:       5151 HITS:        194 MISSES:       4957
LLC WRITEBACK ACCESSES:      50000 HITS:        316 MISSES:      49684
LLC 0 RQ ACCESS:      50088
LLC 0 RQ TO_CACHE:      50088
LLC 0 RQ MERGED:          0
LLC 0 RQ FORWARD:          0
LLC WQ ACCESS:      50000
LLC WQ TO_CACHE:      50000
LLC WQ MERGED:          0
LLC WQ FORWARD:          0
Major fault: 0 Minor fault: 1116
CPU 0 L1D next line prefetcher final stats
CPU 0 L2C PC-based stride prefetcher final stats
All Misses: 128953
All Hits: 984
SD Algo Stats - Switches: 0 SRR-Repls: 487 BRR-Repls: 0

DRAM Statistics
 CHANNEL 0
 RQ ROW_BUFFER_HIT:      40413  ROW_BUFFER_MISS:      14375
 DBUS_CONGESTED:      49555
 WQ ROW_BUFFER_HIT:      10797  ROW_BUFFER_MISS:      19868  FULL:          0

 AVG_CONGESTED_CYCLE: 13
LOADS RETIRED: 127961192
INSTR RETIRED: 500000000
