
*** ChampSim Multicore Out-of-Order Simulator ***

Warmup Instructions: 100000000
Simulation Instructions: 500000000
Number of CPUs: 1
LLC sets: 2048
LLC ways: 16
Clean RRIP Policies: 2101030121010301 Dirty RRIP Policies: 1101130111011301 PSEL Width: 10 Track Set: 4294967295 PSEL Mask: 1 Demote Mask: 2143211021432110DS Algo: 0Window size: 0
Off-chip DRAM Size: 4096 MB Channels: 1 Width: 64-bit Data Rate: 1600 MT/s

CPU 0 runs /mnt/beegfs/iconst01/spec2017/Wrf.trace.gz
NOT SORTED
TRACE STRING: /mnt/beegfs/iconst01/spec2017/Wrf.trace.gz
SORTED
TRACE STRING: /mnt/beegfs/iconst01/spec2017/Wrf.trace.gz
INITIAL
TRACE STRING: /mnt/beegfs/iconst01/spec2017/Wrf.trace.gz

champsim_seed used: 303

CPU 0 L1D next line prefetcher
CPU 0 L2C IP-based stride prefetcher
Initialize DRRIP state
Assign rand_sets[0]: 454  LLC: 2048
rand_sets[0]: 454
Assign rand_sets[1]: 1662  LLC: 2048
rand_sets[1]: 1662
Assign rand_sets[2]: 1921  LLC: 2048
rand_sets[2]: 1921
Assign rand_sets[3]: 1131  LLC: 2048
rand_sets[3]: 1131
Assign rand_sets[4]: 331  LLC: 2048
rand_sets[4]: 331
Assign rand_sets[5]: 1531  LLC: 2048
rand_sets[5]: 1531
Assign rand_sets[6]: 482  LLC: 2048
rand_sets[6]: 482
Assign rand_sets[7]: 1275  LLC: 2048
rand_sets[7]: 1275
Assign rand_sets[8]: 1876  LLC: 2048
rand_sets[8]: 1876
Assign rand_sets[9]: 2038  LLC: 2048
rand_sets[9]: 2038
Assign rand_sets[10]: 701  LLC: 2048
rand_sets[10]: 701
Assign rand_sets[11]: 479  LLC: 2048
rand_sets[11]: 479
Assign rand_sets[12]: 892  LLC: 2048
rand_sets[12]: 892
Assign rand_sets[13]: 1820  LLC: 2048
rand_sets[13]: 1820
Assign rand_sets[14]: 1505  LLC: 2048
rand_sets[14]: 1505
Assign rand_sets[15]: 1159  LLC: 2048
rand_sets[15]: 1159
Assign rand_sets[16]: 513  LLC: 2048
rand_sets[16]: 513
Assign rand_sets[17]: 703  LLC: 2048
rand_sets[17]: 703
Assign rand_sets[18]: 561  LLC: 2048
rand_sets[18]: 561
Assign rand_sets[19]: 990  LLC: 2048
rand_sets[19]: 990
Assign rand_sets[20]: 342  LLC: 2048
rand_sets[20]: 342
Assign rand_sets[21]: 882  LLC: 2048
rand_sets[21]: 882
Assign rand_sets[22]: 15  LLC: 2048
rand_sets[22]: 15
Assign rand_sets[23]: 71  LLC: 2048
rand_sets[23]: 71
Assign rand_sets[24]: 1127  LLC: 2048
rand_sets[24]: 1127
Assign rand_sets[25]: 1382  LLC: 2048
rand_sets[25]: 1382
Assign rand_sets[26]: 647  LLC: 2048
rand_sets[26]: 647
Assign rand_sets[27]: 857  LLC: 2048
rand_sets[27]: 857
Assign rand_sets[28]: 1450  LLC: 2048
rand_sets[28]: 1450
Assign rand_sets[29]: 1160  LLC: 2048
rand_sets[29]: 1160
Assign rand_sets[30]: 1852  LLC: 2048
rand_sets[30]: 1852
Assign rand_sets[31]: 1881  LLC: 2048
rand_sets[31]: 1881
Assign rand_sets[32]: 1770  LLC: 2048
rand_sets[32]: 1770
Assign rand_sets[33]: 1622  LLC: 2048
rand_sets[33]: 1622
Assign rand_sets[34]: 275  LLC: 2048
rand_sets[34]: 275
Assign rand_sets[35]: 635  LLC: 2048
rand_sets[35]: 635
Assign rand_sets[36]: 466  LLC: 2048
rand_sets[36]: 466
Assign rand_sets[37]: 1413  LLC: 2048
rand_sets[37]: 1413
Assign rand_sets[38]: 417  LLC: 2048
rand_sets[38]: 417
Assign rand_sets[39]: 472  LLC: 2048
rand_sets[39]: 472
Assign rand_sets[40]: 1340  LLC: 2048
rand_sets[40]: 1340
Assign rand_sets[41]: 852  LLC: 2048
rand_sets[41]: 852
Assign rand_sets[42]: 1365  LLC: 2048
rand_sets[42]: 1365
Assign rand_sets[43]: 47  LLC: 2048
rand_sets[43]: 47
Assign rand_sets[44]: 823  LLC: 2048
rand_sets[44]: 823
Assign rand_sets[45]: 686  LLC: 2048
rand_sets[45]: 686
Assign rand_sets[46]: 1637  LLC: 2048
rand_sets[46]: 1637
Assign rand_sets[47]: 1115  LLC: 2048
rand_sets[47]: 1115
Assign rand_sets[48]: 986  LLC: 2048
rand_sets[48]: 986
Assign rand_sets[49]: 258  LLC: 2048
rand_sets[49]: 258
Assign rand_sets[50]: 633  LLC: 2048
rand_sets[50]: 633
Assign rand_sets[51]: 920  LLC: 2048
rand_sets[51]: 920
Assign rand_sets[52]: 204  LLC: 2048
rand_sets[52]: 204
Assign rand_sets[53]: 227  LLC: 2048
rand_sets[53]: 227
Assign rand_sets[54]: 1818  LLC: 2048
rand_sets[54]: 1818
Assign rand_sets[55]: 886  LLC: 2048
rand_sets[55]: 886
Assign rand_sets[56]: 1422  LLC: 2048
rand_sets[56]: 1422
Assign rand_sets[57]: 607  LLC: 2048
rand_sets[57]: 607
Assign rand_sets[58]: 217  LLC: 2048
rand_sets[58]: 217
Assign rand_sets[59]: 1945  LLC: 2048
rand_sets[59]: 1945
Assign rand_sets[60]: 143  LLC: 2048
rand_sets[60]: 143
Assign rand_sets[61]: 1311  LLC: 2048
rand_sets[61]: 1311
Assign rand_sets[62]: 319  LLC: 2048
rand_sets[62]: 319
Assign rand_sets[63]: 1846  LLC: 2048
rand_sets[63]: 1846
 CLEAN-RRIP-POLICY-1: 2-1-0-1-0-3-0-1- CLEAN-RRIP-POLICY-2: 2-1-0-1-0-3-0-1-
 DIRTY-RRIP-POLICY-1: 1-1-0-1-1-3-0-1- DIRTY-RRIP-POLICY-2: 1-1-0-1-1-3-0-1-
 PSEL width: 10
Heartbeat CPU 0 instructions: 10000002 cycles: 6559548 heartbeat IPC: 1.5245 cumulative IPC: 1.5245 (Simulation time: 0 hr 0 min 26 sec) 
Heartbeat CPU 0 instructions: 20000000 cycles: 12222195 heartbeat IPC: 1.76596 cumulative IPC: 1.63637 (Simulation time: 0 hr 0 min 50 sec) 
Heartbeat CPU 0 instructions: 30000003 cycles: 18204013 heartbeat IPC: 1.67173 cumulative IPC: 1.64799 (Simulation time: 0 hr 1 min 15 sec) 
Heartbeat CPU 0 instructions: 40000000 cycles: 24059339 heartbeat IPC: 1.70785 cumulative IPC: 1.66256 (Simulation time: 0 hr 1 min 40 sec) 
Heartbeat CPU 0 instructions: 50000000 cycles: 29527719 heartbeat IPC: 1.8287 cumulative IPC: 1.69332 (Simulation time: 0 hr 2 min 5 sec) 
Heartbeat CPU 0 instructions: 60000000 cycles: 35640499 heartbeat IPC: 1.63592 cumulative IPC: 1.68348 (Simulation time: 0 hr 2 min 31 sec) 
Heartbeat CPU 0 instructions: 70000000 cycles: 41360446 heartbeat IPC: 1.74827 cumulative IPC: 1.69244 (Simulation time: 0 hr 2 min 55 sec) 
Heartbeat CPU 0 instructions: 80000000 cycles: 47231449 heartbeat IPC: 1.70329 cumulative IPC: 1.69379 (Simulation time: 0 hr 3 min 21 sec) 
Heartbeat CPU 0 instructions: 90000000 cycles: 52985020 heartbeat IPC: 1.73805 cumulative IPC: 1.69859 (Simulation time: 0 hr 3 min 54 sec) 
Heartbeat CPU 0 instructions: 100000000 cycles: 58537774 heartbeat IPC: 1.80091 cumulative IPC: 1.7083 (Simulation time: 0 hr 4 min 19 sec) 

Warmup complete CPU 0 instructions: 100000004 cycles: 58537776 (Simulation time: 0 hr 4 min 19 sec) 

Heartbeat CPU 0 instructions: 110000001 cycles: 73159905 heartbeat IPC: 0.683895 cumulative IPC: 0.683895 (Simulation time: 0 hr 4 min 47 sec) 
Heartbeat CPU 0 instructions: 120000000 cycles: 84146623 heartbeat IPC: 0.91019 cumulative IPC: 0.78098 (Simulation time: 0 hr 5 min 16 sec) 
Heartbeat CPU 0 instructions: 130000000 cycles: 94871232 heartbeat IPC: 0.932435 cumulative IPC: 0.825685 (Simulation time: 0 hr 5 min 45 sec) 
Heartbeat CPU 0 instructions: 140000000 cycles: 106172802 heartbeat IPC: 0.884833 cumulative IPC: 0.839718 (Simulation time: 0 hr 6 min 10 sec) 
Heartbeat CPU 0 instructions: 150000002 cycles: 117393782 heartbeat IPC: 0.891188 cumulative IPC: 0.849531 (Simulation time: 0 hr 6 min 38 sec) 
Heartbeat CPU 0 instructions: 160000000 cycles: 127050930 heartbeat IPC: 1.0355 cumulative IPC: 0.875744 (Simulation time: 0 hr 7 min 1 sec) 
Heartbeat CPU 0 instructions: 170000003 cycles: 138139273 heartbeat IPC: 0.901848 cumulative IPC: 0.87938 (Simulation time: 0 hr 7 min 26 sec) 
Heartbeat CPU 0 instructions: 180000000 cycles: 150723392 heartbeat IPC: 0.794652 cumulative IPC: 0.867814 (Simulation time: 0 hr 7 min 54 sec) 
Heartbeat CPU 0 instructions: 190000000 cycles: 165865307 heartbeat IPC: 0.660418 cumulative IPC: 0.838555 (Simulation time: 0 hr 8 min 24 sec) 
Heartbeat CPU 0 instructions: 200000000 cycles: 181091461 heartbeat IPC: 0.656765 cumulative IPC: 0.815969 (Simulation time: 0 hr 8 min 53 sec) 
Heartbeat CPU 0 instructions: 210000000 cycles: 196250285 heartbeat IPC: 0.659682 cumulative IPC: 0.798765 (Simulation time: 0 hr 9 min 22 sec) 
Heartbeat CPU 0 instructions: 220000000 cycles: 211726059 heartbeat IPC: 0.646171 cumulative IPC: 0.78335 (Simulation time: 0 hr 9 min 55 sec) 
Heartbeat CPU 0 instructions: 230000003 cycles: 230626529 heartbeat IPC: 0.529088 cumulative IPC: 0.755424 (Simulation time: 0 hr 10 min 28 sec) 
Heartbeat CPU 0 instructions: 240000000 cycles: 241397694 heartbeat IPC: 0.928404 cumulative IPC: 0.765613 (Simulation time: 0 hr 10 min 56 sec) 
Heartbeat CPU 0 instructions: 250000000 cycles: 250992568 heartbeat IPC: 1.04222 cumulative IPC: 0.779404 (Simulation time: 0 hr 11 min 18 sec) 
Heartbeat CPU 0 instructions: 260000000 cycles: 260998717 heartbeat IPC: 0.999385 cumulative IPC: 0.790276 (Simulation time: 0 hr 11 min 45 sec) 
Heartbeat CPU 0 instructions: 270000000 cycles: 271092010 heartbeat IPC: 0.990757 cumulative IPC: 0.799796 (Simulation time: 0 hr 12 min 16 sec) 
Heartbeat CPU 0 instructions: 280000000 cycles: 280771924 heartbeat IPC: 1.03307 cumulative IPC: 0.809956 (Simulation time: 0 hr 12 min 44 sec) 
Heartbeat CPU 0 instructions: 290000000 cycles: 290958309 heartbeat IPC: 0.981703 cumulative IPC: 0.817484 (Simulation time: 0 hr 13 min 17 sec) 
Heartbeat CPU 0 instructions: 300000000 cycles: 299899926 heartbeat IPC: 1.11837 cumulative IPC: 0.82863 (Simulation time: 0 hr 13 min 43 sec) 
Heartbeat CPU 0 instructions: 310000002 cycles: 314719095 heartbeat IPC: 0.674802 cumulative IPC: 0.819732 (Simulation time: 0 hr 14 min 14 sec) 
Heartbeat CPU 0 instructions: 320000000 cycles: 331050465 heartbeat IPC: 0.612318 cumulative IPC: 0.807302 (Simulation time: 0 hr 14 min 51 sec) 
Heartbeat CPU 0 instructions: 330000002 cycles: 341931590 heartbeat IPC: 0.919023 cumulative IPC: 0.811591 (Simulation time: 0 hr 15 min 19 sec) 
Heartbeat CPU 0 instructions: 340000000 cycles: 352818708 heartbeat IPC: 0.918517 cumulative IPC: 0.815547 (Simulation time: 0 hr 15 min 48 sec) 
Heartbeat CPU 0 instructions: 350000002 cycles: 366125615 heartbeat IPC: 0.75149 cumulative IPC: 0.812776 (Simulation time: 0 hr 16 min 26 sec) 
Heartbeat CPU 0 instructions: 360000000 cycles: 377815047 heartbeat IPC: 0.855473 cumulative IPC: 0.814339 (Simulation time: 0 hr 16 min 55 sec) 
Heartbeat CPU 0 instructions: 370000002 cycles: 388752466 heartbeat IPC: 0.914293 cumulative IPC: 0.81765 (Simulation time: 0 hr 17 min 23 sec) 
Heartbeat CPU 0 instructions: 380000000 cycles: 399705276 heartbeat IPC: 0.913008 cumulative IPC: 0.820711 (Simulation time: 0 hr 17 min 47 sec) 
Heartbeat CPU 0 instructions: 390000003 cycles: 417457477 heartbeat IPC: 0.563311 cumulative IPC: 0.80798 (Simulation time: 0 hr 18 min 15 sec) 
Heartbeat CPU 0 instructions: 400000000 cycles: 429066426 heartbeat IPC: 0.861404 cumulative IPC: 0.809654 (Simulation time: 0 hr 18 min 38 sec) 
Heartbeat CPU 0 instructions: 410000002 cycles: 439866741 heartbeat IPC: 0.925899 cumulative IPC: 0.812946 (Simulation time: 0 hr 19 min 0 sec) 
Heartbeat CPU 0 instructions: 420000000 cycles: 450469748 heartbeat IPC: 0.943128 cumulative IPC: 0.816468 (Simulation time: 0 hr 19 min 22 sec) 
Heartbeat CPU 0 instructions: 430000003 cycles: 461093591 heartbeat IPC: 0.941279 cumulative IPC: 0.819762 (Simulation time: 0 hr 19 min 43 sec) 
Heartbeat CPU 0 instructions: 440000000 cycles: 472994264 heartbeat IPC: 0.840288 cumulative IPC: 0.820351 (Simulation time: 0 hr 20 min 6 sec) 
Heartbeat CPU 0 instructions: 450000002 cycles: 488125229 heartbeat IPC: 0.660897 cumulative IPC: 0.814735 (Simulation time: 0 hr 20 min 29 sec) 
Heartbeat CPU 0 instructions: 460000000 cycles: 503329257 heartbeat IPC: 0.65772 cumulative IPC: 0.809368 (Simulation time: 0 hr 20 min 53 sec) 
Heartbeat CPU 0 instructions: 470000003 cycles: 518492140 heartbeat IPC: 0.659505 cumulative IPC: 0.804428 (Simulation time: 0 hr 21 min 16 sec) 
Heartbeat CPU 0 instructions: 480000000 cycles: 533983840 heartbeat IPC: 0.645507 cumulative IPC: 0.799249 (Simulation time: 0 hr 21 min 41 sec) 
Heartbeat CPU 0 instructions: 490000002 cycles: 552925280 heartbeat IPC: 0.527943 cumulative IPC: 0.788855 (Simulation time: 0 hr 22 min 9 sec) 
Heartbeat CPU 0 instructions: 500000000 cycles: 563677170 heartbeat IPC: 0.930069 cumulative IPC: 0.791861 (Simulation time: 0 hr 22 min 31 sec) 
Heartbeat CPU 0 instructions: 510000002 cycles: 573294957 heartbeat IPC: 1.03974 cumulative IPC: 0.796492 (Simulation time: 0 hr 22 min 52 sec) 
Heartbeat CPU 0 instructions: 520000000 cycles: 583279079 heartbeat IPC: 1.00159 cumulative IPC: 0.800394 (Simulation time: 0 hr 23 min 14 sec) 
Heartbeat CPU 0 instructions: 530000002 cycles: 593400302 heartbeat IPC: 0.988023 cumulative IPC: 0.803945 (Simulation time: 0 hr 23 min 36 sec) 
Heartbeat CPU 0 instructions: 540000000 cycles: 603024463 heartbeat IPC: 1.03905 cumulative IPC: 0.808101 (Simulation time: 0 hr 23 min 59 sec) 
Heartbeat CPU 0 instructions: 550000002 cycles: 613231244 heartbeat IPC: 0.979741 cumulative IPC: 0.811259 (Simulation time: 0 hr 24 min 23 sec) 
Heartbeat CPU 0 instructions: 560000000 cycles: 622169993 heartbeat IPC: 1.11872 cumulative IPC: 0.816135 (Simulation time: 0 hr 24 min 44 sec) 
Heartbeat CPU 0 instructions: 570000003 cycles: 636842811 heartbeat IPC: 0.681533 cumulative IPC: 0.81272 (Simulation time: 0 hr 25 min 10 sec) 
Heartbeat CPU 0 instructions: 580000000 cycles: 653274705 heartbeat IPC: 0.608572 cumulative IPC: 0.807079 (Simulation time: 0 hr 25 min 38 sec) 
Heartbeat CPU 0 instructions: 590000002 cycles: 663796099 heartbeat IPC: 0.950445 cumulative IPC: 0.809572 (Simulation time: 0 hr 26 min 1 sec) 
Heartbeat CPU 0 instructions: 600000000 cycles: 675090828 heartbeat IPC: 0.885369 cumulative IPC: 0.81096 (Simulation time: 0 hr 26 min 25 sec) 
Finished CPU 0 instructions: 500000000 cycles: 616553071 cumulative IPC: 0.81096 (Simulation time: 0 hr 26 min 25 sec) 

CPU 0 Branch Prediction Accuracy: 99.5219% MPKI: 0.251582
Number of Branches: 26312578 Number of Mispredictions: 125791
Number of LOAD Instructions: 235643083
Number of LOAD Instructions (ROI): 235643083
Number of STORE Instructions: 37593550
Number of STORE Instructions (ROI): 37593550
Total Destination Memory Operands: 40480968
Total Destination Memory Operands (ROI): 40480968
Total Source Memory Operands: 235643083
Total Source Memory Operands (ROI): 235643083
Number of DEPENDED LOADS: 6700312
Number of DEPENDED LOADS (ROI): 6700312
Number of SQ_ADDED: 40480950
Number of SQ_ADDED (ROI): 40480950
Number of LQ_ADDED: 397650191
Number of LQ_ADDED (ROI): 397650191
Number of Instructions read from trace: 600000259

ChampSim completed all CPUs

Region of Interest Statistics

CPU 0 cumulative IPC: 0.81096 instructions: 500000000 cycles: 616553071
ITLB TOTAL     ACCESS:  109364444  HIT:  109363931  MISS:        513
ITLB LOAD      ACCESS:  109364444  HIT:  109363931  MISS:        513
ITLB RFO       ACCESS:          0  HIT:          0  MISS:          0
ITLB PREFETCH  ACCESS:          0  HIT:          0  MISS:          0
ITLB WRITEBACK ACCESS:          0  HIT:          0  MISS:          0
ITLB PREFETCH  REQUESTED:          0  ISSUED:          0  USEFUL:          0  USELESS:          0
ITLB TOTAL MSHR MERGED:        975
ITLB LOAD MSHR MERGED:        975
ITLB RFO MSHR MERGED:          0
ITLB PREFETCH MSHR MERGED:          0
ITLB WRITEBACK MSHR MERGED:          0
ITLB TOTAL ACCESSES:  109365419 HITS:  109363931 MISSES:       1488
ITLB LOAD ACCESSES:  109365419 HITS:  109363931 MISSES:       1488
ITLB RFO ACCESSES:          0 HITS:          0 MISSES:          0
ITLB PREFETCH ACCESSES:          0 HITS:          0 MISSES:          0
ITLB WRITEBACK ACCESSES:          0 HITS:          0 MISSES:          0
ITLB RQ ACCESS:  500000003
ITLB RQ TO_CACHE:  109365419
ITLB RQ MERGED:  390634584
ITLB RQ FORWARD:          0
ITLB WQ ACCESS:          0
ITLB WQ TO_CACHE:          0
ITLB WQ MERGED:          0
ITLB WQ FORWARD:          0
DTLB TOTAL     ACCESS:  130400470  HIT:  130142847  MISS:     257623
DTLB LOAD      ACCESS:  109065119  HIT:  108844313  MISS:     220806
DTLB RFO       ACCESS:   21335351  HIT:   21298534  MISS:      36817
DTLB PREFETCH  ACCESS:          0  HIT:          0  MISS:          0
DTLB WRITEBACK ACCESS:          0  HIT:          0  MISS:          0
DTLB PREFETCH  REQUESTED:          0  ISSUED:          0  USEFUL:          0  USELESS:          0
DTLB TOTAL MSHR MERGED:     122715
DTLB LOAD MSHR MERGED:      84693
DTLB RFO MSHR MERGED:      38022
DTLB PREFETCH MSHR MERGED:          0
DTLB WRITEBACK MSHR MERGED:          0
DTLB TOTAL ACCESSES:  130523185 HITS:  130142847 MISSES:     380338
DTLB LOAD ACCESSES:  109149812 HITS:  108844313 MISSES:     305499
DTLB RFO ACCESSES:   21373373 HITS:   21298534 MISSES:      74839
DTLB PREFETCH ACCESSES:          0 HITS:          0 MISSES:          0
DTLB WRITEBACK ACCESSES:          0 HITS:          0 MISSES:          0
DTLB RQ ACCESS:  218634155
DTLB RQ TO_CACHE:  130523186
DTLB RQ MERGED:   88110969
DTLB RQ FORWARD:          0
DTLB WQ ACCESS:          0
DTLB WQ TO_CACHE:          0
DTLB WQ MERGED:          0
DTLB WQ FORWARD:          0
L1D TOTAL     ACCESS:  204626900  HIT:  193553931  MISS:   11072969
L1D LOAD      ACCESS:  106158174  HIT:  102914591  MISS:    3243583
L1D RFO       ACCESS:   26954106  HIT:   25202445  MISS:    1751661
L1D PREFETCH  ACCESS:   71514620  HIT:   65436895  MISS:    6077725
L1D WRITEBACK ACCESS:          0  HIT:          0  MISS:          0
L1D PREFETCH  REQUESTED:  108960830  ISSUED:  107310391  USEFUL:    5623504  USELESS:     454215
L1D TOTAL MSHR MERGED:   18494550
L1D LOAD MSHR MERGED:    4889827
L1D RFO MSHR MERGED:    6477957
L1D PREFETCH MSHR MERGED:    7126766
L1D WRITEBACK MSHR MERGED:          0
L1D TOTAL ACCESSES:  223185986 HITS:  193618467 MISSES:   29567519
L1D LOAD ACCESSES:  108988600 HITS:  102942361 MISSES:    6046239
L1D RFO ACCESSES:   33428813 HITS:   25202445 MISSES:    8226368
L1D PREFETCH ACCESSES:   80768573 HITS:   65473661 MISSES:   15294912
L1D WRITEBACK ACCESSES:          0 HITS:          0 MISSES:          0
L1D RQ ACCESS:  184990717
L1D RQ TO_CACHE:  108960830
L1D RQ MERGED:   76002117
L1D RQ FORWARD:          0
L1D WQ ACCESS:   33643426
L1D WQ TO_CACHE:   33428812
L1D WQ MERGED:     214614
L1D WQ FORWARD:      64536
L1I TOTAL     ACCESS:  134044830  HIT:  134020252  MISS:      24578
L1I LOAD      ACCESS:  134044830  HIT:  134020252  MISS:      24578
L1I RFO       ACCESS:          0  HIT:          0  MISS:          0
L1I PREFETCH  ACCESS:          0  HIT:          0  MISS:          0
L1I WRITEBACK ACCESS:          0  HIT:          0  MISS:          0
L1I PREFETCH  REQUESTED:          0  ISSUED:          0  USEFUL:          0  USELESS:          0
L1I TOTAL MSHR MERGED:      30713
L1I LOAD MSHR MERGED:      30713
L1I RFO MSHR MERGED:          0
L1I PREFETCH MSHR MERGED:          0
L1I WRITEBACK MSHR MERGED:          0
L1I TOTAL ACCESSES:  134075543 HITS:  134020252 MISSES:      55291
L1I LOAD ACCESSES:  134075543 HITS:  134020252 MISSES:      55291
L1I RFO ACCESSES:          0 HITS:          0 MISSES:          0
L1I PREFETCH ACCESSES:          0 HITS:          0 MISSES:          0
L1I WRITEBACK ACCESSES:          0 HITS:          0 MISSES:          0
L1I RQ ACCESS:  500000005
L1I RQ TO_CACHE:  134075543
L1I RQ MERGED:  365924462
L1I RQ FORWARD:          0
L1I WQ ACCESS:          0
L1I WQ TO_CACHE:          0
L1I WQ MERGED:          0
L1I WQ FORWARD:          0
L2C TOTAL     ACCESS:   14945580  HIT:    6944062  MISS:    8001518
L2C LOAD      ACCESS:    1180789  HIT:     297930  MISS:     882859
L2C RFO       ACCESS:    1748204  HIT:     369431  MISS:    1378773
L2C PREFETCH  ACCESS:    8334774  HIT:    2603569  MISS:    5731205
L2C WRITEBACK ACCESS:    3681813  HIT:    3673132  MISS:       8681
L2C PREFETCH  REQUESTED:     385345  ISSUED:     385337  USEFUL:     114347  USELESS:    5617687
L2C TOTAL MSHR MERGED:      41985
L2C LOAD MSHR MERGED:       2159
L2C RFO MSHR MERGED:       1252
L2C PREFETCH MSHR MERGED:      38574
L2C WRITEBACK MSHR MERGED:          0
L2C TOTAL ACCESSES:   15100446 HITS:    6944717 MISSES:    8155729
L2C LOAD ACCESSES:    1180990 HITS:     298131 MISSES:     882859
L2C RFO ACCESSES:    1748411 HITS:     369638 MISSES:    1378773
L2C PREFETCH ACCESSES:    8489232 HITS:    2603816 MISSES:    5885416
L2C WRITEBACK ACCESSES:    3681813 HITS:    3673132 MISSES:       8681
L2C RQ ACCESS:    2929401
L2C RQ TO_CACHE:    2928993
L2C RQ MERGED:          0
L2C RQ FORWARD:          0
L2C WQ ACCESS:    3681813
L2C WQ TO_CACHE:    3681813
L2C WQ MERGED:          0
L2C WQ FORWARD:        655
LLC TOTAL     ACCESS:   11184730  HIT:    3503986  MISS:    7680744
LLC LOAD      ACCESS:     880699  HIT:     240883  MISS:     639816
LLC RFO       ACCESS:    1377520  HIT:     181999  MISS:    1195521
LLC PREFETCH  ACCESS:    5821771  HIT:    1162004  MISS:    4659767
LLC WRITEBACK ACCESS:    3104740  HIT:    1919100  MISS:    1185640
LLC PREFETCH  REQUESTED:          0  ISSUED:          0  USEFUL:     119132  USELESS:    4535889
LLC TOTAL MSHR MERGED:      17641
LLC LOAD MSHR MERGED:       5050
LLC RFO MSHR MERGED:        615
LLC PREFETCH MSHR MERGED:      11976
LLC WRITEBACK MSHR MERGED:          0
LLC TOTAL ACCESSES:   11202384 HITS:    3503999 MISSES:    7698385
LLC LOAD ACCESSES:     880700 HITS:     240884 MISSES:     639816
LLC RFO ACCESSES:    1377521 HITS:     182000 MISSES:    1195521
LLC PREFETCH ACCESSES:    5839423 HITS:    1162015 MISSES:    4677408
LLC WRITEBACK ACCESSES:    3104740 HITS:    1919100 MISSES:    1185640
LLC 0 RQ ACCESS:    2258221
LLC 0 RQ TO_CACHE:    2258219
LLC 0 RQ MERGED:          0
LLC 0 RQ FORWARD:          0
LLC WQ ACCESS:    3104740
LLC WQ TO_CACHE:    3104740
LLC WQ MERGED:          0
LLC WQ FORWARD:         13
Major fault: 0 Minor fault: 11519
CPU 0 L1D next line prefetcher final stats
CPU 0 L2C PC-based stride prefetcher final stats
All Misses: 9538062
All Hits: 4257952
SD Algo Stats - Switches: 0 SRR-Repls: 715849 BRR-Repls: 0

DRAM Statistics
 CHANNEL 0
 RQ ROW_BUFFER_HIT:    3732925  ROW_BUFFER_MISS:    2761209
 DBUS_CONGESTED:    4825175
 WQ ROW_BUFFER_HIT:     529246  ROW_BUFFER_MISS:    2012135  FULL:         29

 AVG_CONGESTED_CYCLE: 13
LOADS RETIRED: 190375692
INSTR RETIRED: 500000000
