
*** ChampSim Multicore Out-of-Order Simulator ***

Warmup Instructions: 100000000
Simulation Instructions: 500000000
Number of CPUs: 1
LLC sets: 2048
LLC ways: 16
Clean RRIP Policies: 2101030121010301 Dirty RRIP Policies: 1101130111011301 PSEL Width: 10 Track Set: 4294967295 PSEL Mask: 1 Demote Mask: 2143211021432110DS Algo: 0Window size: 0
Off-chip DRAM Size: 4096 MB Channels: 1 Width: 64-bit Data Rate: 1600 MT/s

CPU 0 runs /mnt/beegfs/iconst01/spec2017/Xz.trace.gz
NOT SORTED
TRACE STRING: /mnt/beegfs/iconst01/spec2017/Xz.trace.gz
SORTED
TRACE STRING: /mnt/beegfs/iconst01/spec2017/Xz.trace.gz
INITIAL
TRACE STRING: /mnt/beegfs/iconst01/spec2017/Xz.trace.gz

champsim_seed used: 210

CPU 0 L1D next line prefetcher
CPU 0 L2C IP-based stride prefetcher
Initialize DRRIP state
Assign rand_sets[0]: 454  LLC: 2048
rand_sets[0]: 454
Assign rand_sets[1]: 1662  LLC: 2048
rand_sets[1]: 1662
Assign rand_sets[2]: 1921  LLC: 2048
rand_sets[2]: 1921
Assign rand_sets[3]: 1131  LLC: 2048
rand_sets[3]: 1131
Assign rand_sets[4]: 331  LLC: 2048
rand_sets[4]: 331
Assign rand_sets[5]: 1531  LLC: 2048
rand_sets[5]: 1531
Assign rand_sets[6]: 482  LLC: 2048
rand_sets[6]: 482
Assign rand_sets[7]: 1275  LLC: 2048
rand_sets[7]: 1275
Assign rand_sets[8]: 1876  LLC: 2048
rand_sets[8]: 1876
Assign rand_sets[9]: 2038  LLC: 2048
rand_sets[9]: 2038
Assign rand_sets[10]: 701  LLC: 2048
rand_sets[10]: 701
Assign rand_sets[11]: 479  LLC: 2048
rand_sets[11]: 479
Assign rand_sets[12]: 892  LLC: 2048
rand_sets[12]: 892
Assign rand_sets[13]: 1820  LLC: 2048
rand_sets[13]: 1820
Assign rand_sets[14]: 1505  LLC: 2048
rand_sets[14]: 1505
Assign rand_sets[15]: 1159  LLC: 2048
rand_sets[15]: 1159
Assign rand_sets[16]: 513  LLC: 2048
rand_sets[16]: 513
Assign rand_sets[17]: 703  LLC: 2048
rand_sets[17]: 703
Assign rand_sets[18]: 561  LLC: 2048
rand_sets[18]: 561
Assign rand_sets[19]: 990  LLC: 2048
rand_sets[19]: 990
Assign rand_sets[20]: 342  LLC: 2048
rand_sets[20]: 342
Assign rand_sets[21]: 882  LLC: 2048
rand_sets[21]: 882
Assign rand_sets[22]: 15  LLC: 2048
rand_sets[22]: 15
Assign rand_sets[23]: 71  LLC: 2048
rand_sets[23]: 71
Assign rand_sets[24]: 1127  LLC: 2048
rand_sets[24]: 1127
Assign rand_sets[25]: 1382  LLC: 2048
rand_sets[25]: 1382
Assign rand_sets[26]: 647  LLC: 2048
rand_sets[26]: 647
Assign rand_sets[27]: 857  LLC: 2048
rand_sets[27]: 857
Assign rand_sets[28]: 1450  LLC: 2048
rand_sets[28]: 1450
Assign rand_sets[29]: 1160  LLC: 2048
rand_sets[29]: 1160
Assign rand_sets[30]: 1852  LLC: 2048
rand_sets[30]: 1852
Assign rand_sets[31]: 1881  LLC: 2048
rand_sets[31]: 1881
Assign rand_sets[32]: 1770  LLC: 2048
rand_sets[32]: 1770
Assign rand_sets[33]: 1622  LLC: 2048
rand_sets[33]: 1622
Assign rand_sets[34]: 275  LLC: 2048
rand_sets[34]: 275
Assign rand_sets[35]: 635  LLC: 2048
rand_sets[35]: 635
Assign rand_sets[36]: 466  LLC: 2048
rand_sets[36]: 466
Assign rand_sets[37]: 1413  LLC: 2048
rand_sets[37]: 1413
Assign rand_sets[38]: 417  LLC: 2048
rand_sets[38]: 417
Assign rand_sets[39]: 472  LLC: 2048
rand_sets[39]: 472
Assign rand_sets[40]: 1340  LLC: 2048
rand_sets[40]: 1340
Assign rand_sets[41]: 852  LLC: 2048
rand_sets[41]: 852
Assign rand_sets[42]: 1365  LLC: 2048
rand_sets[42]: 1365
Assign rand_sets[43]: 47  LLC: 2048
rand_sets[43]: 47
Assign rand_sets[44]: 823  LLC: 2048
rand_sets[44]: 823
Assign rand_sets[45]: 686  LLC: 2048
rand_sets[45]: 686
Assign rand_sets[46]: 1637  LLC: 2048
rand_sets[46]: 1637
Assign rand_sets[47]: 1115  LLC: 2048
rand_sets[47]: 1115
Assign rand_sets[48]: 986  LLC: 2048
rand_sets[48]: 986
Assign rand_sets[49]: 258  LLC: 2048
rand_sets[49]: 258
Assign rand_sets[50]: 633  LLC: 2048
rand_sets[50]: 633
Assign rand_sets[51]: 920  LLC: 2048
rand_sets[51]: 920
Assign rand_sets[52]: 204  LLC: 2048
rand_sets[52]: 204
Assign rand_sets[53]: 227  LLC: 2048
rand_sets[53]: 227
Assign rand_sets[54]: 1818  LLC: 2048
rand_sets[54]: 1818
Assign rand_sets[55]: 886  LLC: 2048
rand_sets[55]: 886
Assign rand_sets[56]: 1422  LLC: 2048
rand_sets[56]: 1422
Assign rand_sets[57]: 607  LLC: 2048
rand_sets[57]: 607
Assign rand_sets[58]: 217  LLC: 2048
rand_sets[58]: 217
Assign rand_sets[59]: 1945  LLC: 2048
rand_sets[59]: 1945
Assign rand_sets[60]: 143  LLC: 2048
rand_sets[60]: 143
Assign rand_sets[61]: 1311  LLC: 2048
rand_sets[61]: 1311
Assign rand_sets[62]: 319  LLC: 2048
rand_sets[62]: 319
Assign rand_sets[63]: 1846  LLC: 2048
rand_sets[63]: 1846
 CLEAN-RRIP-POLICY-1: 2-1-0-1-0-3-0-1- CLEAN-RRIP-POLICY-2: 2-1-0-1-0-3-0-1-
 DIRTY-RRIP-POLICY-1: 1-1-0-1-1-3-0-1- DIRTY-RRIP-POLICY-2: 1-1-0-1-1-3-0-1-
 PSEL width: 10
Heartbeat CPU 0 instructions: 10000000 cycles: 4305123 heartbeat IPC: 2.32281 cumulative IPC: 2.32281 (Simulation time: 0 hr 0 min 12 sec) 
Heartbeat CPU 0 instructions: 20000000 cycles: 8616719 heartbeat IPC: 2.31933 cumulative IPC: 2.32107 (Simulation time: 0 hr 0 min 28 sec) 
Heartbeat CPU 0 instructions: 30000003 cycles: 13160486 heartbeat IPC: 2.20082 cumulative IPC: 2.27955 (Simulation time: 0 hr 0 min 44 sec) 
Heartbeat CPU 0 instructions: 40000000 cycles: 17514991 heartbeat IPC: 2.29647 cumulative IPC: 2.28376 (Simulation time: 0 hr 0 min 57 sec) 
Heartbeat CPU 0 instructions: 50000001 cycles: 21877817 heartbeat IPC: 2.29209 cumulative IPC: 2.28542 (Simulation time: 0 hr 1 min 13 sec) 
Heartbeat CPU 0 instructions: 60000000 cycles: 26178023 heartbeat IPC: 2.32547 cumulative IPC: 2.292 (Simulation time: 0 hr 1 min 26 sec) 
Heartbeat CPU 0 instructions: 70000001 cycles: 30243957 heartbeat IPC: 2.45946 cumulative IPC: 2.31451 (Simulation time: 0 hr 1 min 39 sec) 
Heartbeat CPU 0 instructions: 80000000 cycles: 34522851 heartbeat IPC: 2.33705 cumulative IPC: 2.31731 (Simulation time: 0 hr 1 min 55 sec) 
Heartbeat CPU 0 instructions: 90000001 cycles: 38739563 heartbeat IPC: 2.37152 cumulative IPC: 2.32321 (Simulation time: 0 hr 2 min 7 sec) 
Heartbeat CPU 0 instructions: 100000000 cycles: 42980095 heartbeat IPC: 2.35819 cumulative IPC: 2.32666 (Simulation time: 0 hr 2 min 22 sec) 

Warmup complete CPU 0 instructions: 100000001 cycles: 42980096 (Simulation time: 0 hr 2 min 22 sec) 

Heartbeat CPU 0 instructions: 110000000 cycles: 53184373 heartbeat IPC: 0.979981 cumulative IPC: 0.979981 (Simulation time: 0 hr 2 min 44 sec) 
Heartbeat CPU 0 instructions: 120000000 cycles: 63931684 heartbeat IPC: 0.930465 cumulative IPC: 0.954582 (Simulation time: 0 hr 3 min 2 sec) 
Heartbeat CPU 0 instructions: 130000001 cycles: 74623328 heartbeat IPC: 0.93531 cumulative IPC: 0.94807 (Simulation time: 0 hr 3 min 21 sec) 
Heartbeat CPU 0 instructions: 140000000 cycles: 84387226 heartbeat IPC: 1.02418 cumulative IPC: 0.966017 (Simulation time: 0 hr 3 min 45 sec) 
Heartbeat CPU 0 instructions: 150000001 cycles: 94787087 heartbeat IPC: 0.961551 cumulative IPC: 0.965121 (Simulation time: 0 hr 4 min 3 sec) 
Heartbeat CPU 0 instructions: 160000000 cycles: 104934518 heartbeat IPC: 0.985471 cumulative IPC: 0.968454 (Simulation time: 0 hr 4 min 20 sec) 
Heartbeat CPU 0 instructions: 170000000 cycles: 114686168 heartbeat IPC: 1.02547 cumulative IPC: 0.976207 (Simulation time: 0 hr 4 min 40 sec) 
Heartbeat CPU 0 instructions: 180000000 cycles: 125332889 heartbeat IPC: 0.939256 cumulative IPC: 0.97143 (Simulation time: 0 hr 4 min 58 sec) 
Heartbeat CPU 0 instructions: 190000001 cycles: 135679580 heartbeat IPC: 0.966493 cumulative IPC: 0.970879 (Simulation time: 0 hr 5 min 15 sec) 
Heartbeat CPU 0 instructions: 200000000 cycles: 146356704 heartbeat IPC: 0.936582 cumulative IPC: 0.967337 (Simulation time: 0 hr 5 min 33 sec) 
Heartbeat CPU 0 instructions: 210000002 cycles: 158969653 heartbeat IPC: 0.792836 cumulative IPC: 0.948361 (Simulation time: 0 hr 5 min 51 sec) 
Heartbeat CPU 0 instructions: 220000000 cycles: 171704694 heartbeat IPC: 0.785235 cumulative IPC: 0.932223 (Simulation time: 0 hr 6 min 14 sec) 
Heartbeat CPU 0 instructions: 230000000 cycles: 184087272 heartbeat IPC: 0.807586 cumulative IPC: 0.921286 (Simulation time: 0 hr 6 min 37 sec) 
Heartbeat CPU 0 instructions: 240000000 cycles: 196421866 heartbeat IPC: 0.810728 cumulative IPC: 0.912398 (Simulation time: 0 hr 7 min 0 sec) 
Heartbeat CPU 0 instructions: 250000000 cycles: 208565340 heartbeat IPC: 0.823488 cumulative IPC: 0.905878 (Simulation time: 0 hr 7 min 23 sec) 
Heartbeat CPU 0 instructions: 260000000 cycles: 220284521 heartbeat IPC: 0.853302 cumulative IPC: 0.902403 (Simulation time: 0 hr 7 min 52 sec) 
Heartbeat CPU 0 instructions: 270000003 cycles: 232336429 heartbeat IPC: 0.829744 cumulative IPC: 0.897778 (Simulation time: 0 hr 8 min 14 sec) 
Heartbeat CPU 0 instructions: 280000000 cycles: 244038182 heartbeat IPC: 0.854573 cumulative IPC: 0.895264 (Simulation time: 0 hr 8 min 36 sec) 
Heartbeat CPU 0 instructions: 290000002 cycles: 255742312 heartbeat IPC: 0.854399 cumulative IPC: 0.893016 (Simulation time: 0 hr 8 min 54 sec) 
Heartbeat CPU 0 instructions: 300000000 cycles: 268364378 heartbeat IPC: 0.792263 cumulative IPC: 0.887373 (Simulation time: 0 hr 9 min 17 sec) 
Heartbeat CPU 0 instructions: 310000000 cycles: 280717166 heartbeat IPC: 0.809534 cumulative IPC: 0.883329 (Simulation time: 0 hr 9 min 40 sec) 
Heartbeat CPU 0 instructions: 320000000 cycles: 293607054 heartbeat IPC: 0.775802 cumulative IPC: 0.877799 (Simulation time: 0 hr 10 min 3 sec) 
Heartbeat CPU 0 instructions: 330000003 cycles: 305753553 heartbeat IPC: 0.823283 cumulative IPC: 0.875279 (Simulation time: 0 hr 10 min 26 sec) 
Heartbeat CPU 0 instructions: 340000000 cycles: 318059489 heartbeat IPC: 0.812616 cumulative IPC: 0.872475 (Simulation time: 0 hr 10 min 48 sec) 
Heartbeat CPU 0 instructions: 350000001 cycles: 329191325 heartbeat IPC: 0.898324 cumulative IPC: 0.873481 (Simulation time: 0 hr 11 min 5 sec) 
Heartbeat CPU 0 instructions: 360000000 cycles: 341182872 heartbeat IPC: 0.833921 cumulative IPC: 0.87189 (Simulation time: 0 hr 11 min 24 sec) 
Heartbeat CPU 0 instructions: 370000001 cycles: 352722001 heartbeat IPC: 0.866617 cumulative IPC: 0.871693 (Simulation time: 0 hr 11 min 42 sec) 
Heartbeat CPU 0 instructions: 380000000 cycles: 363848172 heartbeat IPC: 0.898782 cumulative IPC: 0.872633 (Simulation time: 0 hr 12 min 9 sec) 
Heartbeat CPU 0 instructions: 390000003 cycles: 374627184 heartbeat IPC: 0.927729 cumulative IPC: 0.874424 (Simulation time: 0 hr 12 min 31 sec) 
Heartbeat CPU 0 instructions: 400000000 cycles: 384964401 heartbeat IPC: 0.967378 cumulative IPC: 0.877233 (Simulation time: 0 hr 12 min 53 sec) 
Heartbeat CPU 0 instructions: 410000000 cycles: 395630631 heartbeat IPC: 0.937538 cumulative IPC: 0.879057 (Simulation time: 0 hr 13 min 11 sec) 
Heartbeat CPU 0 instructions: 420000000 cycles: 405078038 heartbeat IPC: 1.05849 cumulative IPC: 0.883739 (Simulation time: 0 hr 13 min 28 sec) 
Heartbeat CPU 0 instructions: 430000002 cycles: 414198031 heartbeat IPC: 1.09649 cumulative IPC: 0.888966 (Simulation time: 0 hr 13 min 49 sec) 
Heartbeat CPU 0 instructions: 440000000 cycles: 424608850 heartbeat IPC: 0.960539 cumulative IPC: 0.890918 (Simulation time: 0 hr 14 min 11 sec) 
Heartbeat CPU 0 instructions: 450000002 cycles: 435869438 heartbeat IPC: 0.888053 cumulative IPC: 0.890836 (Simulation time: 0 hr 14 min 33 sec) 
Heartbeat CPU 0 instructions: 460000000 cycles: 447595493 heartbeat IPC: 0.852802 cumulative IPC: 0.889734 (Simulation time: 0 hr 14 min 55 sec) 
Heartbeat CPU 0 instructions: 470000003 cycles: 457885277 heartbeat IPC: 0.971838 cumulative IPC: 0.89177 (Simulation time: 0 hr 15 min 16 sec) 
Heartbeat CPU 0 instructions: 480000000 cycles: 468535006 heartbeat IPC: 0.938991 cumulative IPC: 0.892952 (Simulation time: 0 hr 15 min 38 sec) 
Heartbeat CPU 0 instructions: 490000000 cycles: 478566033 heartbeat IPC: 0.996907 cumulative IPC: 0.895346 (Simulation time: 0 hr 15 min 58 sec) 
Heartbeat CPU 0 instructions: 500000000 cycles: 490512264 heartbeat IPC: 0.837084 cumulative IPC: 0.89379 (Simulation time: 0 hr 16 min 24 sec) 
Heartbeat CPU 0 instructions: 510000002 cycles: 503121288 heartbeat IPC: 0.793083 cumulative IPC: 0.891031 (Simulation time: 0 hr 16 min 42 sec) 
Heartbeat CPU 0 instructions: 520000000 cycles: 515184588 heartbeat IPC: 0.82896 cumulative IPC: 0.889445 (Simulation time: 0 hr 17 min 0 sec) 
Heartbeat CPU 0 instructions: 530000001 cycles: 527242407 heartbeat IPC: 0.829337 cumulative IPC: 0.887949 (Simulation time: 0 hr 17 min 18 sec) 
Heartbeat CPU 0 instructions: 540000000 cycles: 539063641 heartbeat IPC: 0.845935 cumulative IPC: 0.886947 (Simulation time: 0 hr 17 min 36 sec) 
Heartbeat CPU 0 instructions: 550000001 cycles: 550673158 heartbeat IPC: 0.861362 cumulative IPC: 0.886362 (Simulation time: 0 hr 17 min 53 sec) 
Heartbeat CPU 0 instructions: 560000000 cycles: 562442863 heartbeat IPC: 0.849639 cumulative IPC: 0.88553 (Simulation time: 0 hr 18 min 11 sec) 
Heartbeat CPU 0 instructions: 570000000 cycles: 574041295 heartbeat IPC: 0.862186 cumulative IPC: 0.88502 (Simulation time: 0 hr 18 min 28 sec) 
Heartbeat CPU 0 instructions: 580000000 cycles: 584968467 heartbeat IPC: 0.91515 cumulative IPC: 0.885628 (Simulation time: 0 hr 18 min 46 sec) 
Heartbeat CPU 0 instructions: 590000003 cycles: 596557203 heartbeat IPC: 0.862907 cumulative IPC: 0.885152 (Simulation time: 0 hr 19 min 3 sec) 
Heartbeat CPU 0 instructions: 600000000 cycles: 607271527 heartbeat IPC: 0.93333 cumulative IPC: 0.886067 (Simulation time: 0 hr 19 min 20 sec) 
Finished CPU 0 instructions: 500000001 cycles: 564291439 cumulative IPC: 0.886067 (Simulation time: 0 hr 19 min 20 sec) 

CPU 0 Branch Prediction Accuracy: 93.0095% MPKI: 10.0046
Number of Branches: 71558147 Number of Mispredictions: 5002285
Number of LOAD Instructions: 145708893
Number of LOAD Instructions (ROI): 145708893
Number of STORE Instructions: 40463820
Number of STORE Instructions (ROI): 40463820
Total Destination Memory Operands: 45240498
Total Destination Memory Operands (ROI): 45240498
Total Source Memory Operands: 145708893
Total Source Memory Operands (ROI): 145708893
Number of DEPENDED LOADS: 10674602
Number of DEPENDED LOADS (ROI): 10674602
Number of SQ_ADDED: 45240498
Number of SQ_ADDED (ROI): 45240498
Number of LQ_ADDED: 193337416
Number of LQ_ADDED (ROI): 193337416
Number of Instructions read from trace: 600000002

ChampSim completed all CPUs

Region of Interest Statistics

CPU 0 cumulative IPC: 0.886067 instructions: 500000001 cycles: 564291439
ITLB TOTAL     ACCESS:   77988886  HIT:   77988885  MISS:          1
ITLB LOAD      ACCESS:   77988886  HIT:   77988885  MISS:          1
ITLB RFO       ACCESS:          0  HIT:          0  MISS:          0
ITLB PREFETCH  ACCESS:          0  HIT:          0  MISS:          0
ITLB WRITEBACK ACCESS:          0  HIT:          0  MISS:          0
ITLB PREFETCH  REQUESTED:          0  ISSUED:          0  USEFUL:          0  USELESS:          0
ITLB TOTAL MSHR MERGED:          0
ITLB LOAD MSHR MERGED:          0
ITLB RFO MSHR MERGED:          0
ITLB PREFETCH MSHR MERGED:          0
ITLB WRITEBACK MSHR MERGED:          0
ITLB TOTAL ACCESSES:   77988886 HITS:   77988885 MISSES:          1
ITLB LOAD ACCESSES:   77988886 HITS:   77988885 MISSES:          1
ITLB RFO ACCESSES:          0 HITS:          0 MISSES:          0
ITLB PREFETCH ACCESSES:          0 HITS:          0 MISSES:          0
ITLB WRITEBACK ACCESSES:          0 HITS:          0 MISSES:          0
ITLB RQ ACCESS:  499999995
ITLB RQ TO_CACHE:   77988886
ITLB RQ MERGED:  422011109
ITLB RQ FORWARD:          0
ITLB WQ ACCESS:          0
ITLB WQ TO_CACHE:          0
ITLB WQ MERGED:          0
ITLB WQ FORWARD:          0
DTLB TOTAL     ACCESS:   98675504  HIT:   97794168  MISS:     881336
DTLB LOAD      ACCESS:   70896067  HIT:   70034534  MISS:     861533
DTLB RFO       ACCESS:   27779437  HIT:   27759634  MISS:      19803
DTLB PREFETCH  ACCESS:          0  HIT:          0  MISS:          0
DTLB WRITEBACK ACCESS:          0  HIT:          0  MISS:          0
DTLB PREFETCH  REQUESTED:          0  ISSUED:          0  USEFUL:          0  USELESS:          0
DTLB TOTAL MSHR MERGED:      87202
DTLB LOAD MSHR MERGED:      65453
DTLB RFO MSHR MERGED:      21749
DTLB PREFETCH MSHR MERGED:          0
DTLB WRITEBACK MSHR MERGED:          0
DTLB TOTAL ACCESSES:   98762706 HITS:   97794168 MISSES:     968538
DTLB LOAD ACCESSES:   70961520 HITS:   70034534 MISSES:     926986
DTLB RFO ACCESSES:   27801186 HITS:   27759634 MISSES:      41552
DTLB PREFETCH ACCESSES:          0 HITS:          0 MISSES:          0
DTLB WRITEBACK ACCESSES:          0 HITS:          0 MISSES:          0
DTLB RQ ACCESS:  150270450
DTLB RQ TO_CACHE:   98762706
DTLB RQ MERGED:   51507744
DTLB RQ FORWARD:          0
DTLB WQ ACCESS:          0
DTLB WQ TO_CACHE:          0
DTLB WQ MERGED:          0
DTLB WQ FORWARD:          0
L1D TOTAL     ACCESS:  173316235  HIT:  169147638  MISS:    4168597
L1D LOAD      ACCESS:   75278276  HIT:   73396905  MISS:    1881371
L1D RFO       ACCESS:   36778284  HIT:   36571646  MISS:     206638
L1D PREFETCH  ACCESS:   61259675  HIT:   59179087  MISS:    2080588
L1D WRITEBACK ACCESS:          0  HIT:          0  MISS:          0
L1D PREFETCH  REQUESTED:   75384093  ISSUED:   74819890  USEFUL:     415044  USELESS:    1665533
L1D TOTAL MSHR MERGED:     384803
L1D LOAD MSHR MERGED:     114641
L1D RFO MSHR MERGED:     132968
L1D PREFETCH MSHR MERGED:     137194
L1D WRITEBACK MSHR MERGED:          0
L1D TOTAL ACCESSES:  173852675 HITS:  169299275 MISSES:    4553400
L1D LOAD ACCESSES:   75386967 HITS:   73399779 MISSES:    1987188
L1D RFO ACCESSES:   36909823 HITS:   36571646 MISSES:     338177
L1D PREFETCH ACCESSES:   61555885 HITS:   59327850 MISSES:    2228035
L1D WRITEBACK ACCESSES:          0 HITS:          0 MISSES:          0
L1D RQ ACCESS:  112608047
L1D RQ TO_CACHE:   75384093
L1D RQ MERGED:   37221080
L1D RQ FORWARD:          0
L1D WQ ACCESS:   37662403
L1D WQ TO_CACHE:   36909823
L1D WQ MERGED:     752580
L1D WQ FORWARD:     151637
L1I TOTAL     ACCESS:  100697197  HIT:  100697172  MISS:         25
L1I LOAD      ACCESS:  100697197  HIT:  100697172  MISS:         25
L1I RFO       ACCESS:          0  HIT:          0  MISS:          0
L1I PREFETCH  ACCESS:          0  HIT:          0  MISS:          0
L1I WRITEBACK ACCESS:          0  HIT:          0  MISS:          0
L1I PREFETCH  REQUESTED:          0  ISSUED:          0  USEFUL:          0  USELESS:          0
L1I TOTAL MSHR MERGED:         10
L1I LOAD MSHR MERGED:         10
L1I RFO MSHR MERGED:          0
L1I PREFETCH MSHR MERGED:          0
L1I WRITEBACK MSHR MERGED:          0
L1I TOTAL ACCESSES:  100697207 HITS:  100697172 MISSES:         35
L1I LOAD ACCESSES:  100697207 HITS:  100697172 MISSES:         35
L1I RFO ACCESSES:          0 HITS:          0 MISSES:          0
L1I PREFETCH ACCESSES:          0 HITS:          0 MISSES:          0
L1I WRITEBACK ACCESSES:          0 HITS:          0 MISSES:          0
L1I RQ ACCESS:  499999995
L1I RQ TO_CACHE:  100697207
L1I RQ MERGED:  399302788
L1I RQ FORWARD:          0
L1I WQ ACCESS:          0
L1I WQ TO_CACHE:          0
L1I WQ MERGED:          0
L1I WQ FORWARD:          0
L2C TOTAL     ACCESS:    5852447  HIT:    4009285  MISS:    1843162
L2C LOAD      ACCESS:    1872448  HIT:    1061472  MISS:     810976
L2C RFO       ACCESS:     205199  HIT:     100562  MISS:     104637
L2C PREFETCH  ACCESS:    2169181  HIT:    1246053  MISS:     923128
L2C WRITEBACK ACCESS:    1605619  HIT:    1601198  MISS:       4421
L2C PREFETCH  REQUESTED:      91699  ISSUED:      91699  USEFUL:      86429  USELESS:     836722
L2C TOTAL MSHR MERGED:       1091
L2C LOAD MSHR MERGED:        276
L2C RFO MSHR MERGED:          0
L2C PREFETCH MSHR MERGED:        815
L2C WRITEBACK MSHR MERGED:          0
L2C TOTAL ACCESSES:    5853867 HITS:    4009456 MISSES:    1844411
L2C LOAD ACCESSES:    1872572 HITS:    1061596 MISSES:     810976
L2C RFO ACCESSES:     205209 HITS:     100572 MISSES:     104637
L2C PREFETCH ACCESSES:    2170467 HITS:    1246090 MISSES:     924377
L2C WRITEBACK ACCESSES:    1605619 HITS:    1601198 MISSES:       4421
L2C RQ ACCESS:    2077781
L2C RQ TO_CACHE:    2077647
L2C RQ MERGED:          0
L2C RQ FORWARD:          0
L2C WQ ACCESS:    1605619
L2C WQ TO_CACHE:    1605619
L2C WQ MERGED:          0
L2C WQ FORWARD:        171
LLC TOTAL     ACCESS:    2673532  HIT:    2089640  MISS:     583892
LLC LOAD      ACCESS:     810691  HIT:     578883  MISS:     231808
LLC RFO       ACCESS:     104637  HIT:      57940  MISS:      46697
LLC PREFETCH  ACCESS:     923538  HIT:     647691  MISS:     275847
LLC WRITEBACK ACCESS:     834666  HIT:     805126  MISS:      29540
LLC PREFETCH  REQUESTED:          0  ISSUED:          0  USEFUL:      33023  USELESS:     243958
LLC TOTAL MSHR MERGED:         16
LLC LOAD MSHR MERGED:          5
LLC RFO MSHR MERGED:          0
LLC PREFETCH MSHR MERGED:         11
LLC WRITEBACK MSHR MERGED:          0
LLC TOTAL ACCESSES:    2673560 HITS:    2089652 MISSES:     583908
LLC LOAD ACCESSES:     810700 HITS:     578892 MISSES:     231808
LLC RFO ACCESSES:     104637 HITS:      57940 MISSES:      46697
LLC PREFETCH ACCESSES:     923557 HITS:     647694 MISSES:     275863
LLC WRITEBACK ACCESSES:     834666 HITS:     805126 MISSES:      29540
LLC 0 RQ ACCESS:     915337
LLC 0 RQ TO_CACHE:     915328
LLC 0 RQ MERGED:          0
LLC 0 RQ FORWARD:          0
LLC WQ ACCESS:     834666
LLC WQ TO_CACHE:     834666
LLC WQ MERGED:          0
LLC WQ FORWARD:         12
Major fault: 0 Minor fault: 11278
CPU 0 L1D next line prefetcher final stats
CPU 0 L2C PC-based stride prefetcher final stats
All Misses: 682852
All Hits: 2371698
SD Algo Stats - Switches: 0 SRR-Repls: 263523 BRR-Repls: 0

DRAM Statistics
 CHANNEL 0
 RQ ROW_BUFFER_HIT:      34588  ROW_BUFFER_MISS:     519061
 DBUS_CONGESTED:     447981
 WQ ROW_BUFFER_HIT:      21771  ROW_BUFFER_MISS:     258993  FULL:          0

 AVG_CONGESTED_CYCLE: 13
LOADS RETIRED: 121769268
INSTR RETIRED: 500000000
