
*** ChampSim Multicore Out-of-Order Simulator ***

Warmup Instructions: 100000000
Simulation Instructions: 500000000
Number of CPUs: 1
LLC sets: 2048
LLC ways: 16
Clean RRIP Policies: 2213230222132302 Dirty RRIP Policies: 2203130222031302 PSEL Width: 10 Track Set: 4294967295 PSEL Mask: 1 Demote Mask: 4040130040401300DS Algo: 0Window size: 0
Off-chip DRAM Size: 4096 MB Channels: 1 Width: 64-bit Data Rate: 1600 MT/s

CPU 0 runs /mnt/beegfs/iconst01/spec2017/Roms.trace.gz
NOT SORTED
TRACE STRING: /mnt/beegfs/iconst01/spec2017/Roms.trace.gz
SORTED
TRACE STRING: /mnt/beegfs/iconst01/spec2017/Roms.trace.gz
INITIAL
TRACE STRING: /mnt/beegfs/iconst01/spec2017/Roms.trace.gz

champsim_seed used: 417

CPU 0 L1D next line prefetcher
CPU 0 L2C IP-based stride prefetcher
Initialize DRRIP state
Assign rand_sets[0]: 454  LLC: 2048
rand_sets[0]: 454
Assign rand_sets[1]: 1662  LLC: 2048
rand_sets[1]: 1662
Assign rand_sets[2]: 1921  LLC: 2048
rand_sets[2]: 1921
Assign rand_sets[3]: 1131  LLC: 2048
rand_sets[3]: 1131
Assign rand_sets[4]: 331  LLC: 2048
rand_sets[4]: 331
Assign rand_sets[5]: 1531  LLC: 2048
rand_sets[5]: 1531
Assign rand_sets[6]: 482  LLC: 2048
rand_sets[6]: 482
Assign rand_sets[7]: 1275  LLC: 2048
rand_sets[7]: 1275
Assign rand_sets[8]: 1876  LLC: 2048
rand_sets[8]: 1876
Assign rand_sets[9]: 2038  LLC: 2048
rand_sets[9]: 2038
Assign rand_sets[10]: 701  LLC: 2048
rand_sets[10]: 701
Assign rand_sets[11]: 479  LLC: 2048
rand_sets[11]: 479
Assign rand_sets[12]: 892  LLC: 2048
rand_sets[12]: 892
Assign rand_sets[13]: 1820  LLC: 2048
rand_sets[13]: 1820
Assign rand_sets[14]: 1505  LLC: 2048
rand_sets[14]: 1505
Assign rand_sets[15]: 1159  LLC: 2048
rand_sets[15]: 1159
Assign rand_sets[16]: 513  LLC: 2048
rand_sets[16]: 513
Assign rand_sets[17]: 703  LLC: 2048
rand_sets[17]: 703
Assign rand_sets[18]: 561  LLC: 2048
rand_sets[18]: 561
Assign rand_sets[19]: 990  LLC: 2048
rand_sets[19]: 990
Assign rand_sets[20]: 342  LLC: 2048
rand_sets[20]: 342
Assign rand_sets[21]: 882  LLC: 2048
rand_sets[21]: 882
Assign rand_sets[22]: 15  LLC: 2048
rand_sets[22]: 15
Assign rand_sets[23]: 71  LLC: 2048
rand_sets[23]: 71
Assign rand_sets[24]: 1127  LLC: 2048
rand_sets[24]: 1127
Assign rand_sets[25]: 1382  LLC: 2048
rand_sets[25]: 1382
Assign rand_sets[26]: 647  LLC: 2048
rand_sets[26]: 647
Assign rand_sets[27]: 857  LLC: 2048
rand_sets[27]: 857
Assign rand_sets[28]: 1450  LLC: 2048
rand_sets[28]: 1450
Assign rand_sets[29]: 1160  LLC: 2048
rand_sets[29]: 1160
Assign rand_sets[30]: 1852  LLC: 2048
rand_sets[30]: 1852
Assign rand_sets[31]: 1881  LLC: 2048
rand_sets[31]: 1881
Assign rand_sets[32]: 1770  LLC: 2048
rand_sets[32]: 1770
Assign rand_sets[33]: 1622  LLC: 2048
rand_sets[33]: 1622
Assign rand_sets[34]: 275  LLC: 2048
rand_sets[34]: 275
Assign rand_sets[35]: 635  LLC: 2048
rand_sets[35]: 635
Assign rand_sets[36]: 466  LLC: 2048
rand_sets[36]: 466
Assign rand_sets[37]: 1413  LLC: 2048
rand_sets[37]: 1413
Assign rand_sets[38]: 417  LLC: 2048
rand_sets[38]: 417
Assign rand_sets[39]: 472  LLC: 2048
rand_sets[39]: 472
Assign rand_sets[40]: 1340  LLC: 2048
rand_sets[40]: 1340
Assign rand_sets[41]: 852  LLC: 2048
rand_sets[41]: 852
Assign rand_sets[42]: 1365  LLC: 2048
rand_sets[42]: 1365
Assign rand_sets[43]: 47  LLC: 2048
rand_sets[43]: 47
Assign rand_sets[44]: 823  LLC: 2048
rand_sets[44]: 823
Assign rand_sets[45]: 686  LLC: 2048
rand_sets[45]: 686
Assign rand_sets[46]: 1637  LLC: 2048
rand_sets[46]: 1637
Assign rand_sets[47]: 1115  LLC: 2048
rand_sets[47]: 1115
Assign rand_sets[48]: 986  LLC: 2048
rand_sets[48]: 986
Assign rand_sets[49]: 258  LLC: 2048
rand_sets[49]: 258
Assign rand_sets[50]: 633  LLC: 2048
rand_sets[50]: 633
Assign rand_sets[51]: 920  LLC: 2048
rand_sets[51]: 920
Assign rand_sets[52]: 204  LLC: 2048
rand_sets[52]: 204
Assign rand_sets[53]: 227  LLC: 2048
rand_sets[53]: 227
Assign rand_sets[54]: 1818  LLC: 2048
rand_sets[54]: 1818
Assign rand_sets[55]: 886  LLC: 2048
rand_sets[55]: 886
Assign rand_sets[56]: 1422  LLC: 2048
rand_sets[56]: 1422
Assign rand_sets[57]: 607  LLC: 2048
rand_sets[57]: 607
Assign rand_sets[58]: 217  LLC: 2048
rand_sets[58]: 217
Assign rand_sets[59]: 1945  LLC: 2048
rand_sets[59]: 1945
Assign rand_sets[60]: 143  LLC: 2048
rand_sets[60]: 143
Assign rand_sets[61]: 1311  LLC: 2048
rand_sets[61]: 1311
Assign rand_sets[62]: 319  LLC: 2048
rand_sets[62]: 319
Assign rand_sets[63]: 1846  LLC: 2048
rand_sets[63]: 1846
 CLEAN-RRIP-POLICY-1: 2-2-1-3-2-3-0-2- CLEAN-RRIP-POLICY-2: 2-2-1-3-2-3-0-2-
 DIRTY-RRIP-POLICY-1: 2-2-0-3-1-3-0-2- DIRTY-RRIP-POLICY-2: 2-2-0-3-1-3-0-2-
 PSEL width: 10
Heartbeat CPU 0 instructions: 10000000 cycles: 4688066 heartbeat IPC: 2.13308 cumulative IPC: 2.13308 (Simulation time: 0 hr 0 min 17 sec) 
Heartbeat CPU 0 instructions: 20000000 cycles: 9325334 heartbeat IPC: 2.15644 cumulative IPC: 2.1447 (Simulation time: 0 hr 0 min 35 sec) 
Heartbeat CPU 0 instructions: 30000003 cycles: 14019725 heartbeat IPC: 2.1302 cumulative IPC: 2.13984 (Simulation time: 0 hr 0 min 52 sec) 
Heartbeat CPU 0 instructions: 40000000 cycles: 18670140 heartbeat IPC: 2.15035 cumulative IPC: 2.14246 (Simulation time: 0 hr 1 min 9 sec) 
Heartbeat CPU 0 instructions: 50000003 cycles: 23323497 heartbeat IPC: 2.14899 cumulative IPC: 2.14376 (Simulation time: 0 hr 1 min 26 sec) 
Heartbeat CPU 0 instructions: 60000000 cycles: 27976129 heartbeat IPC: 2.14932 cumulative IPC: 2.14469 (Simulation time: 0 hr 1 min 43 sec) 
Heartbeat CPU 0 instructions: 70000002 cycles: 32367278 heartbeat IPC: 2.27731 cumulative IPC: 2.16268 (Simulation time: 0 hr 1 min 58 sec) 
Heartbeat CPU 0 instructions: 80000000 cycles: 36304076 heartbeat IPC: 2.54013 cumulative IPC: 2.20361 (Simulation time: 0 hr 2 min 10 sec) 
Heartbeat CPU 0 instructions: 90000000 cycles: 40249320 heartbeat IPC: 2.5347 cumulative IPC: 2.23606 (Simulation time: 0 hr 2 min 22 sec) 
Heartbeat CPU 0 instructions: 100000000 cycles: 44211573 heartbeat IPC: 2.52382 cumulative IPC: 2.26185 (Simulation time: 0 hr 2 min 34 sec) 

Warmup complete CPU 0 instructions: 100000002 cycles: 44211574 (Simulation time: 0 hr 2 min 34 sec) 

Heartbeat CPU 0 instructions: 110000000 cycles: 52877999 heartbeat IPC: 1.15388 cumulative IPC: 1.15388 (Simulation time: 0 hr 2 min 52 sec) 
Heartbeat CPU 0 instructions: 120000000 cycles: 61554686 heartbeat IPC: 1.15251 cumulative IPC: 1.1532 (Simulation time: 0 hr 3 min 11 sec) 
Heartbeat CPU 0 instructions: 130000002 cycles: 70273332 heartbeat IPC: 1.14697 cumulative IPC: 1.15111 (Simulation time: 0 hr 3 min 30 sec) 
Heartbeat CPU 0 instructions: 140000000 cycles: 78867057 heartbeat IPC: 1.16364 cumulative IPC: 1.15422 (Simulation time: 0 hr 3 min 49 sec) 
Heartbeat CPU 0 instructions: 150000003 cycles: 87632389 heartbeat IPC: 1.14086 cumulative IPC: 1.15152 (Simulation time: 0 hr 4 min 8 sec) 
Heartbeat CPU 0 instructions: 160000000 cycles: 97993689 heartbeat IPC: 0.96513 cumulative IPC: 1.11561 (Simulation time: 0 hr 4 min 29 sec) 
Heartbeat CPU 0 instructions: 170000000 cycles: 110571354 heartbeat IPC: 0.79506 cumulative IPC: 1.05486 (Simulation time: 0 hr 4 min 53 sec) 
Heartbeat CPU 0 instructions: 180000000 cycles: 123065580 heartbeat IPC: 0.80037 cumulative IPC: 1.01453 (Simulation time: 0 hr 5 min 17 sec) 
Heartbeat CPU 0 instructions: 190000000 cycles: 135792886 heartbeat IPC: 0.785712 cumulative IPC: 0.982733 (Simulation time: 0 hr 5 min 41 sec) 
Heartbeat CPU 0 instructions: 200000000 cycles: 149458601 heartbeat IPC: 0.731758 cumulative IPC: 0.950146 (Simulation time: 0 hr 6 min 5 sec) 
Heartbeat CPU 0 instructions: 210000001 cycles: 163334290 heartbeat IPC: 0.720685 cumulative IPC: 0.923418 (Simulation time: 0 hr 6 min 29 sec) 
Heartbeat CPU 0 instructions: 220000000 cycles: 177053102 heartbeat IPC: 0.728926 cumulative IPC: 0.903332 (Simulation time: 0 hr 6 min 53 sec) 
Heartbeat CPU 0 instructions: 230000000 cycles: 190540244 heartbeat IPC: 0.741447 cumulative IPC: 0.888411 (Simulation time: 0 hr 7 min 18 sec) 
Heartbeat CPU 0 instructions: 240000000 cycles: 204145859 heartbeat IPC: 0.734991 cumulative IPC: 0.87536 (Simulation time: 0 hr 7 min 43 sec) 
Heartbeat CPU 0 instructions: 250000003 cycles: 215188577 heartbeat IPC: 0.905574 cumulative IPC: 0.877311 (Simulation time: 0 hr 8 min 6 sec) 
Heartbeat CPU 0 instructions: 260000000 cycles: 223001190 heartbeat IPC: 1.27998 cumulative IPC: 0.894907 (Simulation time: 0 hr 8 min 25 sec) 
Heartbeat CPU 0 instructions: 270000003 cycles: 231291647 heartbeat IPC: 1.20621 cumulative IPC: 0.908702 (Simulation time: 0 hr 8 min 46 sec) 
Heartbeat CPU 0 instructions: 280000000 cycles: 239751066 heartbeat IPC: 1.18211 cumulative IPC: 0.92053 (Simulation time: 0 hr 9 min 6 sec) 
Heartbeat CPU 0 instructions: 290000000 cycles: 248361540 heartbeat IPC: 1.16138 cumulative IPC: 0.930688 (Simulation time: 0 hr 9 min 27 sec) 
Heartbeat CPU 0 instructions: 300000000 cycles: 256993352 heartbeat IPC: 1.15851 cumulative IPC: 0.93993 (Simulation time: 0 hr 9 min 48 sec) 
Heartbeat CPU 0 instructions: 310000000 cycles: 265650770 heartbeat IPC: 1.15508 cumulative IPC: 0.948342 (Simulation time: 0 hr 10 min 9 sec) 
Heartbeat CPU 0 instructions: 320000000 cycles: 274360674 heartbeat IPC: 1.14812 cumulative IPC: 0.955902 (Simulation time: 0 hr 10 min 31 sec) 
Heartbeat CPU 0 instructions: 330000002 cycles: 283024787 heartbeat IPC: 1.15419 cumulative IPC: 0.963096 (Simulation time: 0 hr 10 min 52 sec) 
Heartbeat CPU 0 instructions: 340000000 cycles: 292994654 heartbeat IPC: 1.00302 cumulative IPC: 0.964696 (Simulation time: 0 hr 11 min 15 sec) 
Heartbeat CPU 0 instructions: 350000001 cycles: 301431178 heartbeat IPC: 1.18532 cumulative IPC: 0.971932 (Simulation time: 0 hr 11 min 36 sec) 
Heartbeat CPU 0 instructions: 360000000 cycles: 309870342 heartbeat IPC: 1.18495 cumulative IPC: 0.978699 (Simulation time: 0 hr 11 min 57 sec) 
Heartbeat CPU 0 instructions: 370000001 cycles: 318303067 heartbeat IPC: 1.18586 cumulative IPC: 0.985073 (Simulation time: 0 hr 12 min 17 sec) 
Heartbeat CPU 0 instructions: 380000000 cycles: 326697409 heartbeat IPC: 1.19128 cumulative IPC: 0.9912 (Simulation time: 0 hr 12 min 38 sec) 
Heartbeat CPU 0 instructions: 390000001 cycles: 334941731 heartbeat IPC: 1.21296 cumulative IPC: 0.997489 (Simulation time: 0 hr 12 min 58 sec) 
Heartbeat CPU 0 instructions: 400000000 cycles: 343260837 heartbeat IPC: 1.20205 cumulative IPC: 1.00318 (Simulation time: 0 hr 13 min 19 sec) 
Heartbeat CPU 0 instructions: 410000003 cycles: 351499314 heartbeat IPC: 1.21382 cumulative IPC: 1.00883 (Simulation time: 0 hr 13 min 39 sec) 
Heartbeat CPU 0 instructions: 420000000 cycles: 359814793 heartbeat IPC: 1.20258 cumulative IPC: 1.01393 (Simulation time: 0 hr 14 min 0 sec) 
Heartbeat CPU 0 instructions: 430000001 cycles: 368060458 heartbeat IPC: 1.21276 cumulative IPC: 1.01899 (Simulation time: 0 hr 14 min 20 sec) 
Heartbeat CPU 0 instructions: 440000000 cycles: 376254400 heartbeat IPC: 1.22041 cumulative IPC: 1.02396 (Simulation time: 0 hr 14 min 40 sec) 
Heartbeat CPU 0 instructions: 450000001 cycles: 385728133 heartbeat IPC: 1.05555 cumulative IPC: 1.02484 (Simulation time: 0 hr 15 min 2 sec) 
Heartbeat CPU 0 instructions: 460000000 cycles: 393975980 heartbeat IPC: 1.21244 cumulative IPC: 1.02926 (Simulation time: 0 hr 15 min 23 sec) 
Heartbeat CPU 0 instructions: 470000003 cycles: 402101669 heartbeat IPC: 1.23067 cumulative IPC: 1.03384 (Simulation time: 0 hr 15 min 43 sec) 
Heartbeat CPU 0 instructions: 480000000 cycles: 410262186 heartbeat IPC: 1.22541 cumulative IPC: 1.03811 (Simulation time: 0 hr 16 min 3 sec) 
Heartbeat CPU 0 instructions: 490000000 cycles: 418392893 heartbeat IPC: 1.22991 cumulative IPC: 1.04228 (Simulation time: 0 hr 16 min 24 sec) 
Heartbeat CPU 0 instructions: 500000000 cycles: 426532515 heartbeat IPC: 1.22856 cumulative IPC: 1.04624 (Simulation time: 0 hr 16 min 44 sec) 
Heartbeat CPU 0 instructions: 510000001 cycles: 434622235 heartbeat IPC: 1.23614 cumulative IPC: 1.05018 (Simulation time: 0 hr 17 min 4 sec) 
Heartbeat CPU 0 instructions: 520000000 cycles: 442750125 heartbeat IPC: 1.23033 cumulative IPC: 1.05385 (Simulation time: 0 hr 17 min 24 sec) 
Heartbeat CPU 0 instructions: 530000001 cycles: 450877969 heartbeat IPC: 1.23034 cumulative IPC: 1.05738 (Simulation time: 0 hr 17 min 44 sec) 
Heartbeat CPU 0 instructions: 540000000 cycles: 459169546 heartbeat IPC: 1.20604 cumulative IPC: 1.06035 (Simulation time: 0 hr 18 min 5 sec) 
Heartbeat CPU 0 instructions: 550000001 cycles: 467528754 heartbeat IPC: 1.19629 cumulative IPC: 1.06303 (Simulation time: 0 hr 18 min 25 sec) 
Heartbeat CPU 0 instructions: 560000000 cycles: 475654175 heartbeat IPC: 1.23071 cumulative IPC: 1.06619 (Simulation time: 0 hr 18 min 45 sec) 
Heartbeat CPU 0 instructions: 570000001 cycles: 487000946 heartbeat IPC: 0.881308 cumulative IPC: 1.06145 (Simulation time: 0 hr 19 min 8 sec) 
Heartbeat CPU 0 instructions: 580000000 cycles: 498078509 heartbeat IPC: 0.902726 cumulative IPC: 1.05758 (Simulation time: 0 hr 19 min 30 sec) 
Heartbeat CPU 0 instructions: 590000001 cycles: 509494089 heartbeat IPC: 0.875996 cumulative IPC: 1.05312 (Simulation time: 0 hr 19 min 52 sec) 
Heartbeat CPU 0 instructions: 600000000 cycles: 520598236 heartbeat IPC: 0.900564 cumulative IPC: 1.04957 (Simulation time: 0 hr 20 min 14 sec) 
Finished CPU 0 instructions: 500000001 cycles: 476386675 cumulative IPC: 1.04957 (Simulation time: 0 hr 20 min 14 sec) 

CPU 0 Branch Prediction Accuracy: 99.7422% MPKI: 0.173296
Number of Branches: 33608403 Number of Mispredictions: 86648
Number of LOAD Instructions: 180215231
Number of LOAD Instructions (ROI): 180215231
Number of STORE Instructions: 36067263
Number of STORE Instructions (ROI): 36067263
Total Destination Memory Operands: 38428915
Total Destination Memory Operands (ROI): 38428915
Total Source Memory Operands: 180215231
Total Source Memory Operands (ROI): 180215231
Number of DEPENDED LOADS: 3041522
Number of DEPENDED LOADS (ROI): 3041522
Number of SQ_ADDED: 38428892
Number of SQ_ADDED (ROI): 38428892
Number of LQ_ADDED: 207605942
Number of LQ_ADDED (ROI): 207605942
Number of Instructions read from trace: 600000257

ChampSim completed all CPUs

Region of Interest Statistics

CPU 0 cumulative IPC: 1.04957 instructions: 500000001 cycles: 476386675
ITLB TOTAL     ACCESS:   91817982  HIT:   91817963  MISS:         19
ITLB LOAD      ACCESS:   91817982  HIT:   91817963  MISS:         19
ITLB RFO       ACCESS:          0  HIT:          0  MISS:          0
ITLB PREFETCH  ACCESS:          0  HIT:          0  MISS:          0
ITLB WRITEBACK ACCESS:          0  HIT:          0  MISS:          0
ITLB PREFETCH  REQUESTED:          0  ISSUED:          0  USEFUL:          0  USELESS:          0
ITLB TOTAL MSHR MERGED:         40
ITLB LOAD MSHR MERGED:         40
ITLB RFO MSHR MERGED:          0
ITLB PREFETCH MSHR MERGED:          0
ITLB WRITEBACK MSHR MERGED:          0
ITLB TOTAL ACCESSES:   91818022 HITS:   91817963 MISSES:         59
ITLB LOAD ACCESSES:   91818022 HITS:   91817963 MISSES:         59
ITLB RFO ACCESSES:          0 HITS:          0 MISSES:          0
ITLB PREFETCH ACCESSES:          0 HITS:          0 MISSES:          0
ITLB WRITEBACK ACCESSES:          0 HITS:          0 MISSES:          0
ITLB RQ ACCESS:  500000003
ITLB RQ TO_CACHE:   91818022
ITLB RQ MERGED:  408181981
ITLB RQ FORWARD:          0
ITLB WQ ACCESS:          0
ITLB WQ TO_CACHE:          0
ITLB WQ MERGED:          0
ITLB WQ FORWARD:          0
DTLB TOTAL     ACCESS:  142047361  HIT:  141680899  MISS:     366462
DTLB LOAD      ACCESS:  119409463  HIT:  119095877  MISS:     313586
DTLB RFO       ACCESS:   22637898  HIT:   22585022  MISS:      52876
DTLB PREFETCH  ACCESS:          0  HIT:          0  MISS:          0
DTLB WRITEBACK ACCESS:          0  HIT:          0  MISS:          0
DTLB PREFETCH  REQUESTED:          0  ISSUED:          0  USEFUL:          0  USELESS:          0
DTLB TOTAL MSHR MERGED:     289416
DTLB LOAD MSHR MERGED:     241230
DTLB RFO MSHR MERGED:      48186
DTLB PREFETCH MSHR MERGED:          0
DTLB WRITEBACK MSHR MERGED:          0
DTLB TOTAL ACCESSES:  142336777 HITS:  141680899 MISSES:     655878
DTLB LOAD ACCESSES:  119650693 HITS:  119095877 MISSES:     554816
DTLB RFO ACCESSES:   22686084 HITS:   22585022 MISSES:     101062
DTLB PREFETCH ACCESSES:          0 HITS:          0 MISSES:          0
DTLB WRITEBACK ACCESSES:          0 HITS:          0 MISSES:          0
DTLB RQ ACCESS:  184791455
DTLB RQ TO_CACHE:  142336777
DTLB RQ MERGED:   42454678
DTLB RQ FORWARD:          0
DTLB WQ ACCESS:          0
DTLB WQ TO_CACHE:          0
DTLB WQ MERGED:          0
DTLB WQ FORWARD:          0
L1D TOTAL     ACCESS:  190020801  HIT:  176569911  MISS:   13450890
L1D LOAD      ACCESS:  111919420  HIT:  108657881  MISS:    3261539
L1D RFO       ACCESS:   18919649  HIT:   16137899  MISS:    2781750
L1D PREFETCH  ACCESS:   59181732  HIT:   51774131  MISS:    7407601
L1D WRITEBACK ACCESS:          0  HIT:          0  MISS:          0
L1D PREFETCH  REQUESTED:  116507671  ISSUED:  115147357  USEFUL:    7197880  USELESS:     209722
L1D TOTAL MSHR MERGED:   31700392
L1D LOAD MSHR MERGED:    7293102
L1D RFO MSHR MERGED:    9333132
L1D PREFETCH MSHR MERGED:   15074158
L1D WRITEBACK MSHR MERGED:          0
L1D TOTAL ACCESSES:  221721621 HITS:  176570337 MISSES:   45151284
L1D LOAD ACCESSES:  116507699 HITS:  108657909 MISSES:    7849790
L1D RFO ACCESSES:   28252726 HITS:   16137899 MISSES:   12114827
L1D PREFETCH ACCESSES:   76961196 HITS:   51774529 MISSES:   25186667
L1D WRITEBACK ACCESSES:          0 HITS:          0 MISSES:          0
L1D RQ ACCESS:  156535389
L1D RQ TO_CACHE:  116507674
L1D RQ MERGED:   40027687
L1D RQ FORWARD:          0
L1D WQ ACCESS:   28256066
L1D WQ TO_CACHE:   28252726
L1D WQ MERGED:       3340
L1D WQ FORWARD:        426
L1I TOTAL     ACCESS:  115812671  HIT:  115811723  MISS:        948
L1I LOAD      ACCESS:  115812671  HIT:  115811723  MISS:        948
L1I RFO       ACCESS:          0  HIT:          0  MISS:          0
L1I PREFETCH  ACCESS:          0  HIT:          0  MISS:          0
L1I WRITEBACK ACCESS:          0  HIT:          0  MISS:          0
L1I PREFETCH  REQUESTED:          0  ISSUED:          0  USEFUL:          0  USELESS:          0
L1I TOTAL MSHR MERGED:       1573
L1I LOAD MSHR MERGED:       1573
L1I RFO MSHR MERGED:          0
L1I PREFETCH MSHR MERGED:          0
L1I WRITEBACK MSHR MERGED:          0
L1I TOTAL ACCESSES:  115814244 HITS:  115811723 MISSES:       2521
L1I LOAD ACCESSES:  115814244 HITS:  115811723 MISSES:       2521
L1I RFO ACCESSES:          0 HITS:          0 MISSES:          0
L1I PREFETCH ACCESSES:          0 HITS:          0 MISSES:          0
L1I WRITEBACK ACCESSES:          0 HITS:          0 MISSES:          0
L1I RQ ACCESS:  500000007
L1I RQ TO_CACHE:  115814244
L1I RQ MERGED:  384185763
L1I RQ FORWARD:          0
L1I WQ ACCESS:          0
L1I WQ TO_CACHE:          0
L1I WQ MERGED:          0
L1I WQ FORWARD:          0
L2C TOTAL     ACCESS:   16696521  HIT:    4852258  MISS:   11844263
L2C LOAD      ACCESS:     557608  HIT:      95495  MISS:     462113
L2C RFO       ACCESS:    2781695  HIT:     266733  MISS:    2514962
L2C PREFETCH  ACCESS:   10136574  HIT:    1271668  MISS:    8864906
L2C WRITEBACK ACCESS:    3220644  HIT:    3218362  MISS:       2282
L2C PREFETCH  REQUESTED:      26145  ISSUED:      26145  USEFUL:      93044  USELESS:    8769962
L2C TOTAL MSHR MERGED:        509
L2C LOAD MSHR MERGED:          7
L2C RFO MSHR MERGED:          0
L2C PREFETCH MSHR MERGED:        502
L2C WRITEBACK MSHR MERGED:          0
L2C TOTAL ACCESSES:   16697220 HITS:    4852311 MISSES:   11844909
L2C LOAD ACCESSES:     557636 HITS:      95523 MISSES:     462113
L2C RFO ACCESSES:    2781695 HITS:     266733 MISSES:    2514962
L2C PREFETCH ACCESSES:   10137245 HITS:    1271693 MISSES:    8865552
L2C WRITEBACK ACCESSES:    3220644 HITS:    3218362 MISSES:       2282
L2C RQ ACCESS:    3339331
L2C RQ TO_CACHE:    3339303
L2C RQ MERGED:          0
L2C RQ FORWARD:          0
L2C WQ ACCESS:    3220644
L2C WQ TO_CACHE:    3220644
L2C WQ MERGED:          0
L2C WQ FORWARD:         53
LLC TOTAL     ACCESS:   14742449  HIT:    7535060  MISS:    7207389
LLC LOAD      ACCESS:     462104  HIT:     247952  MISS:     214152
LLC RFO       ACCESS:    2514948  HIT:    1858660  MISS:     656288
LLC PREFETCH  ACCESS:    8864986  HIT:    3247747  MISS:    5617239
LLC WRITEBACK ACCESS:    2900411  HIT:    2180701  MISS:     719710
LLC PREFETCH  REQUESTED:          0  ISSUED:          0  USEFUL:       4054  USELESS:    5620470
LLC TOTAL MSHR MERGED:          1
LLC LOAD MSHR MERGED:          0
LLC RFO MSHR MERGED:          0
LLC PREFETCH MSHR MERGED:          1
LLC WRITEBACK MSHR MERGED:          0
LLC TOTAL ACCESSES:   14742508 HITS:    7535116 MISSES:    7207392
LLC LOAD ACCESSES:     462106 HITS:     247954 MISSES:     214152
LLC RFO ACCESSES:    2514962 HITS:    1858674 MISSES:     656288
LLC PREFETCH ACCESSES:    8865029 HITS:    3247787 MISSES:    5617242
LLC WRITEBACK ACCESSES:    2900411 HITS:    2180701 MISSES:     719710
LLC 0 RQ ACCESS:    2977068
LLC 0 RQ TO_CACHE:    2977052
LLC 0 RQ MERGED:          0
LLC 0 RQ FORWARD:          0
LLC WQ ACCESS:    2900411
LLC WQ TO_CACHE:    2900411
LLC WQ MERGED:          0
LLC WQ FORWARD:         56
Major fault: 0 Minor fault: 57518
CPU 0 L1D next line prefetcher final stats
CPU 0 L2C PC-based stride prefetcher final stats
All Misses: 7807299
All Hits: 8431331
SD Algo Stats - Switches: 0 SRR-Repls: 221136 BRR-Repls: 0

DRAM Statistics
 CHANNEL 0
 RQ ROW_BUFFER_HIT:    3659281  ROW_BUFFER_MISS:    2825138
 DBUS_CONGESTED:    2940851
 WQ ROW_BUFFER_HIT:      94137  ROW_BUFFER_MISS:     832406  FULL:          0

 AVG_CONGESTED_CYCLE: 12
LOADS RETIRED: 157818985
INSTR RETIRED: 500000000
