
*** ChampSim Multicore Out-of-Order Simulator ***

Warmup Instructions: 100000000
Simulation Instructions: 500000000
Number of CPUs: 1
LLC sets: 2048
LLC ways: 16
Clean RRIP Policies: 2211010022110100 Dirty RRIP Policies: 2201112022011120 PSEL Width: 10 Track Set: 4294967295 PSEL Mask: 1 Demote Mask: 313223103132231DS Algo: 0Window size: 0
Off-chip DRAM Size: 4096 MB Channels: 1 Width: 64-bit Data Rate: 1600 MT/s

CPU 0 runs /mnt/beegfs/iconst01/spec2017/Cam4.trace.gz
NOT SORTED
TRACE STRING: /mnt/beegfs/iconst01/spec2017/Cam4.trace.gz
SORTED
TRACE STRING: /mnt/beegfs/iconst01/spec2017/Cam4.trace.gz
INITIAL
TRACE STRING: /mnt/beegfs/iconst01/spec2017/Cam4.trace.gz

champsim_seed used: 325

CPU 0 L1D next line prefetcher
CPU 0 L2C IP-based stride prefetcher
Initialize DRRIP state
Assign rand_sets[0]: 454  LLC: 2048
rand_sets[0]: 454
Assign rand_sets[1]: 1662  LLC: 2048
rand_sets[1]: 1662
Assign rand_sets[2]: 1921  LLC: 2048
rand_sets[2]: 1921
Assign rand_sets[3]: 1131  LLC: 2048
rand_sets[3]: 1131
Assign rand_sets[4]: 331  LLC: 2048
rand_sets[4]: 331
Assign rand_sets[5]: 1531  LLC: 2048
rand_sets[5]: 1531
Assign rand_sets[6]: 482  LLC: 2048
rand_sets[6]: 482
Assign rand_sets[7]: 1275  LLC: 2048
rand_sets[7]: 1275
Assign rand_sets[8]: 1876  LLC: 2048
rand_sets[8]: 1876
Assign rand_sets[9]: 2038  LLC: 2048
rand_sets[9]: 2038
Assign rand_sets[10]: 701  LLC: 2048
rand_sets[10]: 701
Assign rand_sets[11]: 479  LLC: 2048
rand_sets[11]: 479
Assign rand_sets[12]: 892  LLC: 2048
rand_sets[12]: 892
Assign rand_sets[13]: 1820  LLC: 2048
rand_sets[13]: 1820
Assign rand_sets[14]: 1505  LLC: 2048
rand_sets[14]: 1505
Assign rand_sets[15]: 1159  LLC: 2048
rand_sets[15]: 1159
Assign rand_sets[16]: 513  LLC: 2048
rand_sets[16]: 513
Assign rand_sets[17]: 703  LLC: 2048
rand_sets[17]: 703
Assign rand_sets[18]: 561  LLC: 2048
rand_sets[18]: 561
Assign rand_sets[19]: 990  LLC: 2048
rand_sets[19]: 990
Assign rand_sets[20]: 342  LLC: 2048
rand_sets[20]: 342
Assign rand_sets[21]: 882  LLC: 2048
rand_sets[21]: 882
Assign rand_sets[22]: 15  LLC: 2048
rand_sets[22]: 15
Assign rand_sets[23]: 71  LLC: 2048
rand_sets[23]: 71
Assign rand_sets[24]: 1127  LLC: 2048
rand_sets[24]: 1127
Assign rand_sets[25]: 1382  LLC: 2048
rand_sets[25]: 1382
Assign rand_sets[26]: 647  LLC: 2048
rand_sets[26]: 647
Assign rand_sets[27]: 857  LLC: 2048
rand_sets[27]: 857
Assign rand_sets[28]: 1450  LLC: 2048
rand_sets[28]: 1450
Assign rand_sets[29]: 1160  LLC: 2048
rand_sets[29]: 1160
Assign rand_sets[30]: 1852  LLC: 2048
rand_sets[30]: 1852
Assign rand_sets[31]: 1881  LLC: 2048
rand_sets[31]: 1881
Assign rand_sets[32]: 1770  LLC: 2048
rand_sets[32]: 1770
Assign rand_sets[33]: 1622  LLC: 2048
rand_sets[33]: 1622
Assign rand_sets[34]: 275  LLC: 2048
rand_sets[34]: 275
Assign rand_sets[35]: 635  LLC: 2048
rand_sets[35]: 635
Assign rand_sets[36]: 466  LLC: 2048
rand_sets[36]: 466
Assign rand_sets[37]: 1413  LLC: 2048
rand_sets[37]: 1413
Assign rand_sets[38]: 417  LLC: 2048
rand_sets[38]: 417
Assign rand_sets[39]: 472  LLC: 2048
rand_sets[39]: 472
Assign rand_sets[40]: 1340  LLC: 2048
rand_sets[40]: 1340
Assign rand_sets[41]: 852  LLC: 2048
rand_sets[41]: 852
Assign rand_sets[42]: 1365  LLC: 2048
rand_sets[42]: 1365
Assign rand_sets[43]: 47  LLC: 2048
rand_sets[43]: 47
Assign rand_sets[44]: 823  LLC: 2048
rand_sets[44]: 823
Assign rand_sets[45]: 686  LLC: 2048
rand_sets[45]: 686
Assign rand_sets[46]: 1637  LLC: 2048
rand_sets[46]: 1637
Assign rand_sets[47]: 1115  LLC: 2048
rand_sets[47]: 1115
Assign rand_sets[48]: 986  LLC: 2048
rand_sets[48]: 986
Assign rand_sets[49]: 258  LLC: 2048
rand_sets[49]: 258
Assign rand_sets[50]: 633  LLC: 2048
rand_sets[50]: 633
Assign rand_sets[51]: 920  LLC: 2048
rand_sets[51]: 920
Assign rand_sets[52]: 204  LLC: 2048
rand_sets[52]: 204
Assign rand_sets[53]: 227  LLC: 2048
rand_sets[53]: 227
Assign rand_sets[54]: 1818  LLC: 2048
rand_sets[54]: 1818
Assign rand_sets[55]: 886  LLC: 2048
rand_sets[55]: 886
Assign rand_sets[56]: 1422  LLC: 2048
rand_sets[56]: 1422
Assign rand_sets[57]: 607  LLC: 2048
rand_sets[57]: 607
Assign rand_sets[58]: 217  LLC: 2048
rand_sets[58]: 217
Assign rand_sets[59]: 1945  LLC: 2048
rand_sets[59]: 1945
Assign rand_sets[60]: 143  LLC: 2048
rand_sets[60]: 143
Assign rand_sets[61]: 1311  LLC: 2048
rand_sets[61]: 1311
Assign rand_sets[62]: 319  LLC: 2048
rand_sets[62]: 319
Assign rand_sets[63]: 1846  LLC: 2048
rand_sets[63]: 1846
 CLEAN-RRIP-POLICY-1: 2-2-1-1-0-1-0-0- CLEAN-RRIP-POLICY-2: 2-2-1-1-0-1-0-0-
 DIRTY-RRIP-POLICY-1: 2-2-0-1-1-1-2-0- DIRTY-RRIP-POLICY-2: 2-2-0-1-1-1-2-0-
 PSEL width: 10
Heartbeat CPU 0 instructions: 10000000 cycles: 4859184 heartbeat IPC: 2.05796 cumulative IPC: 2.05796 (Simulation time: 0 hr 0 min 16 sec) 
Heartbeat CPU 0 instructions: 20000000 cycles: 9790761 heartbeat IPC: 2.02775 cumulative IPC: 2.04274 (Simulation time: 0 hr 0 min 32 sec) 
Heartbeat CPU 0 instructions: 30000001 cycles: 14563246 heartbeat IPC: 2.09534 cumulative IPC: 2.05998 (Simulation time: 0 hr 0 min 47 sec) 
Heartbeat CPU 0 instructions: 40000000 cycles: 19400518 heartbeat IPC: 2.06728 cumulative IPC: 2.0618 (Simulation time: 0 hr 1 min 4 sec) 
Heartbeat CPU 0 instructions: 50000000 cycles: 24257381 heartbeat IPC: 2.05894 cumulative IPC: 2.06123 (Simulation time: 0 hr 1 min 20 sec) 
Heartbeat CPU 0 instructions: 60000000 cycles: 29182940 heartbeat IPC: 2.03023 cumulative IPC: 2.056 (Simulation time: 0 hr 1 min 37 sec) 
Heartbeat CPU 0 instructions: 70000001 cycles: 33957317 heartbeat IPC: 2.09451 cumulative IPC: 2.06141 (Simulation time: 0 hr 1 min 52 sec) 
Heartbeat CPU 0 instructions: 80000000 cycles: 38793797 heartbeat IPC: 2.06762 cumulative IPC: 2.06219 (Simulation time: 0 hr 2 min 8 sec) 
Heartbeat CPU 0 instructions: 90000002 cycles: 43648086 heartbeat IPC: 2.06003 cumulative IPC: 2.06195 (Simulation time: 0 hr 2 min 25 sec) 
Heartbeat CPU 0 instructions: 100000000 cycles: 48567016 heartbeat IPC: 2.03296 cumulative IPC: 2.05901 (Simulation time: 0 hr 2 min 42 sec) 

Warmup complete CPU 0 instructions: 100000001 cycles: 48567017 (Simulation time: 0 hr 2 min 42 sec) 

Heartbeat CPU 0 instructions: 110000000 cycles: 61887601 heartbeat IPC: 0.750718 cumulative IPC: 0.750718 (Simulation time: 0 hr 3 min 5 sec) 
Heartbeat CPU 0 instructions: 120000000 cycles: 75735372 heartbeat IPC: 0.722138 cumulative IPC: 0.736151 (Simulation time: 0 hr 3 min 29 sec) 
Heartbeat CPU 0 instructions: 130000000 cycles: 89580260 heartbeat IPC: 0.722288 cumulative IPC: 0.731471 (Simulation time: 0 hr 3 min 54 sec) 
Heartbeat CPU 0 instructions: 140000000 cycles: 103903153 heartbeat IPC: 0.698183 cumulative IPC: 0.722855 (Simulation time: 0 hr 4 min 19 sec) 
Heartbeat CPU 0 instructions: 150000003 cycles: 117280062 heartbeat IPC: 0.747557 cumulative IPC: 0.727664 (Simulation time: 0 hr 4 min 42 sec) 
Heartbeat CPU 0 instructions: 160000000 cycles: 131131999 heartbeat IPC: 0.72192 cumulative IPC: 0.7267 (Simulation time: 0 hr 5 min 7 sec) 
Heartbeat CPU 0 instructions: 170000001 cycles: 145010845 heartbeat IPC: 0.720521 cumulative IPC: 0.725811 (Simulation time: 0 hr 5 min 32 sec) 
Heartbeat CPU 0 instructions: 180000000 cycles: 159314261 heartbeat IPC: 0.699134 cumulative IPC: 0.722366 (Simulation time: 0 hr 5 min 57 sec) 
Heartbeat CPU 0 instructions: 190000003 cycles: 172672613 heartbeat IPC: 0.748596 cumulative IPC: 0.725189 (Simulation time: 0 hr 6 min 20 sec) 
Heartbeat CPU 0 instructions: 200000000 cycles: 186520488 heartbeat IPC: 0.722132 cumulative IPC: 0.724882 (Simulation time: 0 hr 6 min 44 sec) 
Heartbeat CPU 0 instructions: 210000002 cycles: 200407698 heartbeat IPC: 0.720087 cumulative IPC: 0.724444 (Simulation time: 0 hr 7 min 9 sec) 
Heartbeat CPU 0 instructions: 220000000 cycles: 214711949 heartbeat IPC: 0.699093 cumulative IPC: 0.722261 (Simulation time: 0 hr 7 min 34 sec) 
Heartbeat CPU 0 instructions: 230000001 cycles: 227980643 heartbeat IPC: 0.753654 cumulative IPC: 0.724583 (Simulation time: 0 hr 7 min 56 sec) 
Heartbeat CPU 0 instructions: 240000000 cycles: 241814609 heartbeat IPC: 0.722858 cumulative IPC: 0.724459 (Simulation time: 0 hr 8 min 21 sec) 
Heartbeat CPU 0 instructions: 250000001 cycles: 255642744 heartbeat IPC: 0.723163 cumulative IPC: 0.724373 (Simulation time: 0 hr 8 min 45 sec) 
Heartbeat CPU 0 instructions: 260000000 cycles: 269842494 heartbeat IPC: 0.704238 cumulative IPC: 0.723081 (Simulation time: 0 hr 9 min 10 sec) 
Heartbeat CPU 0 instructions: 270000003 cycles: 283273522 heartbeat IPC: 0.744545 cumulative IPC: 0.724309 (Simulation time: 0 hr 9 min 32 sec) 
Heartbeat CPU 0 instructions: 280000000 cycles: 297114620 heartbeat IPC: 0.722486 cumulative IPC: 0.724207 (Simulation time: 0 hr 9 min 57 sec) 
Heartbeat CPU 0 instructions: 290000001 cycles: 310990623 heartbeat IPC: 0.720669 cumulative IPC: 0.72402 (Simulation time: 0 hr 10 min 22 sec) 
Heartbeat CPU 0 instructions: 300000000 cycles: 325132187 heartbeat IPC: 0.707135 cumulative IPC: 0.723157 (Simulation time: 0 hr 10 min 46 sec) 
Heartbeat CPU 0 instructions: 310000000 cycles: 338600464 heartbeat IPC: 0.742485 cumulative IPC: 0.724054 (Simulation time: 0 hr 11 min 9 sec) 
Heartbeat CPU 0 instructions: 320000000 cycles: 352488809 heartbeat IPC: 0.720028 cumulative IPC: 0.72387 (Simulation time: 0 hr 11 min 33 sec) 
Heartbeat CPU 0 instructions: 330000000 cycles: 366377040 heartbeat IPC: 0.720034 cumulative IPC: 0.723703 (Simulation time: 0 hr 11 min 58 sec) 
Heartbeat CPU 0 instructions: 340000000 cycles: 380493669 heartbeat IPC: 0.708384 cumulative IPC: 0.723051 (Simulation time: 0 hr 12 min 22 sec) 
Heartbeat CPU 0 instructions: 350000000 cycles: 394028060 heartbeat IPC: 0.738859 cumulative IPC: 0.723671 (Simulation time: 0 hr 12 min 44 sec) 
Heartbeat CPU 0 instructions: 360000000 cycles: 407963330 heartbeat IPC: 0.717604 cumulative IPC: 0.723435 (Simulation time: 0 hr 13 min 9 sec) 
Heartbeat CPU 0 instructions: 370000003 cycles: 421855622 heartbeat IPC: 0.719824 cumulative IPC: 0.723301 (Simulation time: 0 hr 13 min 33 sec) 
Heartbeat CPU 0 instructions: 380000000 cycles: 435936924 heartbeat IPC: 0.710161 cumulative IPC: 0.722823 (Simulation time: 0 hr 13 min 58 sec) 
Heartbeat CPU 0 instructions: 390000003 cycles: 449441895 heartbeat IPC: 0.740468 cumulative IPC: 0.723418 (Simulation time: 0 hr 14 min 20 sec) 
Heartbeat CPU 0 instructions: 400000000 cycles: 463354683 heartbeat IPC: 0.718763 cumulative IPC: 0.723262 (Simulation time: 0 hr 14 min 44 sec) 
Heartbeat CPU 0 instructions: 410000000 cycles: 477210078 heartbeat IPC: 0.721741 cumulative IPC: 0.723212 (Simulation time: 0 hr 15 min 8 sec) 
Heartbeat CPU 0 instructions: 420000000 cycles: 491285844 heartbeat IPC: 0.710441 cumulative IPC: 0.722806 (Simulation time: 0 hr 15 min 33 sec) 
Heartbeat CPU 0 instructions: 430000003 cycles: 504831765 heartbeat IPC: 0.73823 cumulative IPC: 0.723264 (Simulation time: 0 hr 15 min 55 sec) 
Heartbeat CPU 0 instructions: 440000000 cycles: 518755825 heartbeat IPC: 0.718181 cumulative IPC: 0.723114 (Simulation time: 0 hr 16 min 19 sec) 
Heartbeat CPU 0 instructions: 450000000 cycles: 532639468 heartbeat IPC: 0.720272 cumulative IPC: 0.723032 (Simulation time: 0 hr 16 min 43 sec) 
Heartbeat CPU 0 instructions: 460000000 cycles: 546693857 heartbeat IPC: 0.711522 cumulative IPC: 0.722708 (Simulation time: 0 hr 17 min 8 sec) 
Heartbeat CPU 0 instructions: 470000001 cycles: 560159798 heartbeat IPC: 0.742614 cumulative IPC: 0.723231 (Simulation time: 0 hr 17 min 30 sec) 
Heartbeat CPU 0 instructions: 480000000 cycles: 574051985 heartbeat IPC: 0.719829 cumulative IPC: 0.723141 (Simulation time: 0 hr 17 min 54 sec) 
Heartbeat CPU 0 instructions: 490000002 cycles: 587900544 heartbeat IPC: 0.722097 cumulative IPC: 0.723115 (Simulation time: 0 hr 18 min 18 sec) 
Heartbeat CPU 0 instructions: 500000000 cycles: 601951450 heartbeat IPC: 0.711698 cumulative IPC: 0.722825 (Simulation time: 0 hr 18 min 42 sec) 
Heartbeat CPU 0 instructions: 510000002 cycles: 615454745 heartbeat IPC: 0.74056 cumulative IPC: 0.723247 (Simulation time: 0 hr 19 min 4 sec) 
Heartbeat CPU 0 instructions: 520000000 cycles: 629343057 heartbeat IPC: 0.72003 cumulative IPC: 0.72317 (Simulation time: 0 hr 19 min 29 sec) 
Heartbeat CPU 0 instructions: 530000003 cycles: 643179071 heartbeat IPC: 0.722752 cumulative IPC: 0.723161 (Simulation time: 0 hr 19 min 53 sec) 
Heartbeat CPU 0 instructions: 540000000 cycles: 657250257 heartbeat IPC: 0.710672 cumulative IPC: 0.722872 (Simulation time: 0 hr 20 min 17 sec) 
Heartbeat CPU 0 instructions: 550000003 cycles: 670777706 heartbeat IPC: 0.739238 cumulative IPC: 0.723228 (Simulation time: 0 hr 20 min 39 sec) 
Heartbeat CPU 0 instructions: 560000000 cycles: 684651755 heartbeat IPC: 0.72077 cumulative IPC: 0.723174 (Simulation time: 0 hr 21 min 3 sec) 
Heartbeat CPU 0 instructions: 570000001 cycles: 698518006 heartbeat IPC: 0.721176 cumulative IPC: 0.723131 (Simulation time: 0 hr 21 min 28 sec) 
Heartbeat CPU 0 instructions: 580000000 cycles: 712611171 heartbeat IPC: 0.709564 cumulative IPC: 0.722843 (Simulation time: 0 hr 21 min 52 sec) 
Heartbeat CPU 0 instructions: 590000000 cycles: 726063683 heartbeat IPC: 0.743356 cumulative IPC: 0.723251 (Simulation time: 0 hr 22 min 14 sec) 
Heartbeat CPU 0 instructions: 600000000 cycles: 739936372 heartbeat IPC: 0.720841 cumulative IPC: 0.723202 (Simulation time: 0 hr 22 min 38 sec) 
Finished CPU 0 instructions: 500000001 cycles: 691369363 cumulative IPC: 0.723202 (Simulation time: 0 hr 22 min 38 sec) 

CPU 0 Branch Prediction Accuracy: 97.5275% MPKI: 2.1997
Number of Branches: 44482865 Number of Mispredictions: 1099852
Number of LOAD Instructions: 144955155
Number of LOAD Instructions (ROI): 144955155
Number of STORE Instructions: 55921098
Number of STORE Instructions (ROI): 55921098
Total Destination Memory Operands: 57111147
Total Destination Memory Operands (ROI): 57111147
Total Source Memory Operands: 144955155
Total Source Memory Operands (ROI): 144955155
Number of DEPENDED LOADS: 13455190
Number of DEPENDED LOADS (ROI): 13455190
Number of SQ_ADDED: 57111126
Number of SQ_ADDED (ROI): 57111126
Number of LQ_ADDED: 176665533
Number of LQ_ADDED (ROI): 176665533
Number of Instructions read from trace: 600000256

ChampSim completed all CPUs

Region of Interest Statistics

CPU 0 cumulative IPC: 0.723202 instructions: 500000001 cycles: 691369363
ITLB TOTAL     ACCESS:  136083122  HIT:  136080569  MISS:       2553
ITLB LOAD      ACCESS:  136083122  HIT:  136080569  MISS:       2553
ITLB RFO       ACCESS:          0  HIT:          0  MISS:          0
ITLB PREFETCH  ACCESS:          0  HIT:          0  MISS:          0
ITLB WRITEBACK ACCESS:          0  HIT:          0  MISS:          0
ITLB PREFETCH  REQUESTED:          0  ISSUED:          0  USEFUL:          0  USELESS:          0
ITLB TOTAL MSHR MERGED:       4399
ITLB LOAD MSHR MERGED:       4399
ITLB RFO MSHR MERGED:          0
ITLB PREFETCH MSHR MERGED:          0
ITLB WRITEBACK MSHR MERGED:          0
ITLB TOTAL ACCESSES:  136087521 HITS:  136080569 MISSES:       6952
ITLB LOAD ACCESSES:  136087521 HITS:  136080569 MISSES:       6952
ITLB RFO ACCESSES:          0 HITS:          0 MISSES:          0
ITLB PREFETCH ACCESSES:          0 HITS:          0 MISSES:          0
ITLB WRITEBACK ACCESSES:          0 HITS:          0 MISSES:          0
ITLB RQ ACCESS:  500000202
ITLB RQ TO_CACHE:  136087521
ITLB RQ MERGED:  363912681
ITLB RQ FORWARD:          0
ITLB WQ ACCESS:          0
ITLB WQ TO_CACHE:          0
ITLB WQ MERGED:          0
ITLB WQ FORWARD:          0
DTLB TOTAL     ACCESS:  111529264  HIT:  111393070  MISS:     136194
DTLB LOAD      ACCESS:   78938195  HIT:   78812570  MISS:     125625
DTLB RFO       ACCESS:   32591069  HIT:   32580500  MISS:      10569
DTLB PREFETCH  ACCESS:          0  HIT:          0  MISS:          0
DTLB WRITEBACK ACCESS:          0  HIT:          0  MISS:          0
DTLB PREFETCH  REQUESTED:          0  ISSUED:          0  USEFUL:          0  USELESS:          0
DTLB TOTAL MSHR MERGED:      63776
DTLB LOAD MSHR MERGED:      51309
DTLB RFO MSHR MERGED:      12467
DTLB PREFETCH MSHR MERGED:          0
DTLB WRITEBACK MSHR MERGED:          0
DTLB TOTAL ACCESSES:  111593040 HITS:  111393070 MISSES:     199970
DTLB LOAD ACCESSES:   78989504 HITS:   78812570 MISSES:     176934
DTLB RFO ACCESSES:   32603536 HITS:   32580500 MISSES:      23036
DTLB PREFETCH ACCESSES:          0 HITS:          0 MISSES:          0
DTLB WRITEBACK ACCESSES:          0 HITS:          0 MISSES:          0
DTLB RQ ACCESS:  157180240
DTLB RQ TO_CACHE:  111593040
DTLB RQ MERGED:   45587200
DTLB RQ FORWARD:          0
DTLB WQ ACCESS:          0
DTLB WQ TO_CACHE:          0
DTLB WQ MERGED:          0
DTLB WQ FORWARD:          0
L1D TOTAL     ACCESS:  197999733  HIT:  188158866  MISS:    9840867
L1D LOAD      ACCESS:   79909826  HIT:   75625980  MISS:    4283846
L1D RFO       ACCESS:   44434592  HIT:   43533541  MISS:     901051
L1D PREFETCH  ACCESS:   73655315  HIT:   68999345  MISS:    4655970
L1D WRITEBACK ACCESS:          0  HIT:          0  MISS:          0
L1D PREFETCH  REQUESTED:   80331516  ISSUED:   79875664  USEFUL:    1797814  USELESS:    2858065
L1D TOTAL MSHR MERGED:    2702472
L1D LOAD MSHR MERGED:     564762
L1D RFO MSHR MERGED:    1516526
L1D PREFETCH MSHR MERGED:     621184
L1D WRITEBACK MSHR MERGED:          0
L1D TOTAL ACCESSES:  200726311 HITS:  188182972 MISSES:   12543339
L1D LOAD ACCESSES:   80346979 HITS:   75641443 MISSES:    4705536
L1D RFO ACCESSES:   45948058 HITS:   43533541 MISSES:    2414517
L1D PREFETCH ACCESSES:   74431274 HITS:   69007988 MISSES:    5423286
L1D WRITEBACK ACCESSES:          0 HITS:          0 MISSES:          0
L1D RQ ACCESS:  109538270
L1D RQ TO_CACHE:   80331516
L1D RQ MERGED:   29191291
L1D RQ FORWARD:          0
L1D WQ ACCESS:   47641970
L1D WQ TO_CACHE:   45948058
L1D WQ MERGED:    1693912
L1D WQ FORWARD:      24106
L1I TOTAL     ACCESS:  161552390  HIT:  161288424  MISS:     263966
L1I LOAD      ACCESS:  161552390  HIT:  161288424  MISS:     263966
L1I RFO       ACCESS:          0  HIT:          0  MISS:          0
L1I PREFETCH  ACCESS:          0  HIT:          0  MISS:          0
L1I WRITEBACK ACCESS:          0  HIT:          0  MISS:          0
L1I PREFETCH  REQUESTED:          0  ISSUED:          0  USEFUL:          0  USELESS:          0
L1I TOTAL MSHR MERGED:     259108
L1I LOAD MSHR MERGED:     259108
L1I RFO MSHR MERGED:          0
L1I PREFETCH MSHR MERGED:          0
L1I WRITEBACK MSHR MERGED:          0
L1I TOTAL ACCESSES:  161811498 HITS:  161288424 MISSES:     523074
L1I LOAD ACCESSES:  161811498 HITS:  161288424 MISSES:     523074
L1I RFO ACCESSES:          0 HITS:          0 MISSES:          0
L1I PREFETCH ACCESSES:          0 HITS:          0 MISSES:          0
L1I WRITEBACK ACCESSES:          0 HITS:          0 MISSES:          0
L1I RQ ACCESS:  500000202
L1I RQ TO_CACHE:  161811498
L1I RQ MERGED:  338188704
L1I RQ FORWARD:          0
L1I WQ ACCESS:          0
L1I WQ TO_CACHE:          0
L1I WQ MERGED:          0
L1I WQ FORWARD:          0
L2C TOTAL     ACCESS:   11772542  HIT:   10383281  MISS:    1389261
L2C LOAD      ACCESS:    4404674  HIT:    3908039  MISS:     496635
L2C RFO       ACCESS:     897923  HIT:     536596  MISS:     361327
L2C PREFETCH  ACCESS:    5282471  HIT:    4754106  MISS:     528365
L2C WRITEBACK ACCESS:    1187474  HIT:    1184540  MISS:       2934
L2C PREFETCH  REQUESTED:     504181  ISSUED:     504181  USEFUL:     115315  USELESS:     413243
L2C TOTAL MSHR MERGED:       2006
L2C LOAD MSHR MERGED:        370
L2C RFO MSHR MERGED:          0
L2C PREFETCH MSHR MERGED:       1636
L2C WRITEBACK MSHR MERGED:          0
L2C TOTAL ACCESSES:   11776086 HITS:   10383502 MISSES:    1392584
L2C LOAD ACCESSES:    4404740 HITS:    3908105 MISSES:     496635
L2C RFO ACCESSES:     897991 HITS:     536664 MISSES:     361327
L2C PREFETCH ACCESSES:    5285881 HITS:    4754193 MISSES:     531688
L2C WRITEBACK ACCESSES:    1187474 HITS:    1184540 MISSES:       2934
L2C RQ ACCESS:    5302731
L2C RQ TO_CACHE:    5302597
L2C RQ MERGED:          0
L2C RQ FORWARD:          0
L2C WQ ACCESS:    1187474
L2C WQ TO_CACHE:    1187474
L2C WQ MERGED:          0
L2C WQ FORWARD:        221
LLC TOTAL     ACCESS:    1848276  HIT:    1057916  MISS:     790360
LLC LOAD      ACCESS:     496261  HIT:     311702  MISS:     184559
LLC RFO       ACCESS:     361319  HIT:      88350  MISS:     272969
LLC PREFETCH  ACCESS:     530003  HIT:     319688  MISS:     210315
LLC WRITEBACK ACCESS:     460693  HIT:     338176  MISS:     122517
LLC PREFETCH  REQUESTED:          0  ISSUED:          0  USEFUL:      17328  USELESS:     194565
LLC TOTAL MSHR MERGED:         31
LLC LOAD MSHR MERGED:         12
LLC RFO MSHR MERGED:          0
LLC PREFETCH MSHR MERGED:         19
LLC WRITEBACK MSHR MERGED:          0
LLC TOTAL ACCESSES:    1848333 HITS:    1057942 MISSES:     790391
LLC LOAD ACCESSES:     496265 HITS:     311706 MISSES:     184559
LLC RFO ACCESSES:     361327 HITS:      88358 MISSES:     272969
LLC PREFETCH ACCESSES:     530048 HITS:     319702 MISSES:     210346
LLC WRITEBACK ACCESSES:     460693 HITS:     338176 MISSES:     122517
LLC 0 RQ ACCESS:     857592
LLC 0 RQ TO_CACHE:     857580
LLC 0 RQ MERGED:          0
LLC 0 RQ FORWARD:          0
LLC WQ ACCESS:     460693
LLC WQ TO_CACHE:     460693
LLC WQ MERGED:          0
LLC WQ FORWARD:         26
Major fault: 0 Minor fault: 3073
CPU 0 L1D next line prefetcher final stats
CPU 0 L2C PC-based stride prefetcher final stats
All Misses: 949730
All Hits: 1225240
SD Algo Stats - Switches: 0 SRR-Repls: 221144 BRR-Repls: 0

DRAM Statistics
 CHANNEL 0
 RQ ROW_BUFFER_HIT:     337190  ROW_BUFFER_MISS:     328934
 DBUS_CONGESTED:     592693
 WQ ROW_BUFFER_HIT:      69292  ROW_BUFFER_MISS:     256404  FULL:          0

 AVG_CONGESTED_CYCLE: 13
LOADS RETIRED: 120673965
INSTR RETIRED: 500000000
