
*** ChampSim Multicore Out-of-Order Simulator ***

Warmup Instructions: 100000000
Simulation Instructions: 500000000
Number of CPUs: 1
LLC sets: 2048
LLC ways: 16
Clean RRIP Policies: 2211010022110100 Dirty RRIP Policies: 2201112022011120 PSEL Width: 10 Track Set: 4294967295 PSEL Mask: 1 Demote Mask: 313223103132231DS Algo: 0Window size: 0
Off-chip DRAM Size: 4096 MB Channels: 1 Width: 64-bit Data Rate: 1600 MT/s

CPU 0 runs /mnt/beegfs/iconst01/spec2017/Mcf.trace.gz
NOT SORTED
TRACE STRING: /mnt/beegfs/iconst01/spec2017/Mcf.trace.gz
SORTED
TRACE STRING: /mnt/beegfs/iconst01/spec2017/Mcf.trace.gz
INITIAL
TRACE STRING: /mnt/beegfs/iconst01/spec2017/Mcf.trace.gz

champsim_seed used: 278

CPU 0 L1D next line prefetcher
CPU 0 L2C IP-based stride prefetcher
Initialize DRRIP state
Assign rand_sets[0]: 454  LLC: 2048
rand_sets[0]: 454
Assign rand_sets[1]: 1662  LLC: 2048
rand_sets[1]: 1662
Assign rand_sets[2]: 1921  LLC: 2048
rand_sets[2]: 1921
Assign rand_sets[3]: 1131  LLC: 2048
rand_sets[3]: 1131
Assign rand_sets[4]: 331  LLC: 2048
rand_sets[4]: 331
Assign rand_sets[5]: 1531  LLC: 2048
rand_sets[5]: 1531
Assign rand_sets[6]: 482  LLC: 2048
rand_sets[6]: 482
Assign rand_sets[7]: 1275  LLC: 2048
rand_sets[7]: 1275
Assign rand_sets[8]: 1876  LLC: 2048
rand_sets[8]: 1876
Assign rand_sets[9]: 2038  LLC: 2048
rand_sets[9]: 2038
Assign rand_sets[10]: 701  LLC: 2048
rand_sets[10]: 701
Assign rand_sets[11]: 479  LLC: 2048
rand_sets[11]: 479
Assign rand_sets[12]: 892  LLC: 2048
rand_sets[12]: 892
Assign rand_sets[13]: 1820  LLC: 2048
rand_sets[13]: 1820
Assign rand_sets[14]: 1505  LLC: 2048
rand_sets[14]: 1505
Assign rand_sets[15]: 1159  LLC: 2048
rand_sets[15]: 1159
Assign rand_sets[16]: 513  LLC: 2048
rand_sets[16]: 513
Assign rand_sets[17]: 703  LLC: 2048
rand_sets[17]: 703
Assign rand_sets[18]: 561  LLC: 2048
rand_sets[18]: 561
Assign rand_sets[19]: 990  LLC: 2048
rand_sets[19]: 990
Assign rand_sets[20]: 342  LLC: 2048
rand_sets[20]: 342
Assign rand_sets[21]: 882  LLC: 2048
rand_sets[21]: 882
Assign rand_sets[22]: 15  LLC: 2048
rand_sets[22]: 15
Assign rand_sets[23]: 71  LLC: 2048
rand_sets[23]: 71
Assign rand_sets[24]: 1127  LLC: 2048
rand_sets[24]: 1127
Assign rand_sets[25]: 1382  LLC: 2048
rand_sets[25]: 1382
Assign rand_sets[26]: 647  LLC: 2048
rand_sets[26]: 647
Assign rand_sets[27]: 857  LLC: 2048
rand_sets[27]: 857
Assign rand_sets[28]: 1450  LLC: 2048
rand_sets[28]: 1450
Assign rand_sets[29]: 1160  LLC: 2048
rand_sets[29]: 1160
Assign rand_sets[30]: 1852  LLC: 2048
rand_sets[30]: 1852
Assign rand_sets[31]: 1881  LLC: 2048
rand_sets[31]: 1881
Assign rand_sets[32]: 1770  LLC: 2048
rand_sets[32]: 1770
Assign rand_sets[33]: 1622  LLC: 2048
rand_sets[33]: 1622
Assign rand_sets[34]: 275  LLC: 2048
rand_sets[34]: 275
Assign rand_sets[35]: 635  LLC: 2048
rand_sets[35]: 635
Assign rand_sets[36]: 466  LLC: 2048
rand_sets[36]: 466
Assign rand_sets[37]: 1413  LLC: 2048
rand_sets[37]: 1413
Assign rand_sets[38]: 417  LLC: 2048
rand_sets[38]: 417
Assign rand_sets[39]: 472  LLC: 2048
rand_sets[39]: 472
Assign rand_sets[40]: 1340  LLC: 2048
rand_sets[40]: 1340
Assign rand_sets[41]: 852  LLC: 2048
rand_sets[41]: 852
Assign rand_sets[42]: 1365  LLC: 2048
rand_sets[42]: 1365
Assign rand_sets[43]: 47  LLC: 2048
rand_sets[43]: 47
Assign rand_sets[44]: 823  LLC: 2048
rand_sets[44]: 823
Assign rand_sets[45]: 686  LLC: 2048
rand_sets[45]: 686
Assign rand_sets[46]: 1637  LLC: 2048
rand_sets[46]: 1637
Assign rand_sets[47]: 1115  LLC: 2048
rand_sets[47]: 1115
Assign rand_sets[48]: 986  LLC: 2048
rand_sets[48]: 986
Assign rand_sets[49]: 258  LLC: 2048
rand_sets[49]: 258
Assign rand_sets[50]: 633  LLC: 2048
rand_sets[50]: 633
Assign rand_sets[51]: 920  LLC: 2048
rand_sets[51]: 920
Assign rand_sets[52]: 204  LLC: 2048
rand_sets[52]: 204
Assign rand_sets[53]: 227  LLC: 2048
rand_sets[53]: 227
Assign rand_sets[54]: 1818  LLC: 2048
rand_sets[54]: 1818
Assign rand_sets[55]: 886  LLC: 2048
rand_sets[55]: 886
Assign rand_sets[56]: 1422  LLC: 2048
rand_sets[56]: 1422
Assign rand_sets[57]: 607  LLC: 2048
rand_sets[57]: 607
Assign rand_sets[58]: 217  LLC: 2048
rand_sets[58]: 217
Assign rand_sets[59]: 1945  LLC: 2048
rand_sets[59]: 1945
Assign rand_sets[60]: 143  LLC: 2048
rand_sets[60]: 143
Assign rand_sets[61]: 1311  LLC: 2048
rand_sets[61]: 1311
Assign rand_sets[62]: 319  LLC: 2048
rand_sets[62]: 319
Assign rand_sets[63]: 1846  LLC: 2048
rand_sets[63]: 1846
 CLEAN-RRIP-POLICY-1: 2-2-1-1-0-1-0-0- CLEAN-RRIP-POLICY-2: 2-2-1-1-0-1-0-0-
 DIRTY-RRIP-POLICY-1: 2-2-0-1-1-1-2-0- DIRTY-RRIP-POLICY-2: 2-2-0-1-1-1-2-0-
 PSEL width: 10
Heartbeat CPU 0 instructions: 10000000 cycles: 6251442 heartbeat IPC: 1.59963 cumulative IPC: 1.59963 (Simulation time: 0 hr 0 min 12 sec) 
Heartbeat CPU 0 instructions: 20000000 cycles: 12477962 heartbeat IPC: 1.60603 cumulative IPC: 1.60283 (Simulation time: 0 hr 0 min 24 sec) 
Heartbeat CPU 0 instructions: 30000000 cycles: 18695563 heartbeat IPC: 1.60834 cumulative IPC: 1.60466 (Simulation time: 0 hr 0 min 37 sec) 
Heartbeat CPU 0 instructions: 40000000 cycles: 24912685 heartbeat IPC: 1.60846 cumulative IPC: 1.60561 (Simulation time: 0 hr 0 min 49 sec) 
Heartbeat CPU 0 instructions: 50000003 cycles: 31132137 heartbeat IPC: 1.60786 cumulative IPC: 1.60606 (Simulation time: 0 hr 1 min 2 sec) 
Heartbeat CPU 0 instructions: 60000000 cycles: 37334664 heartbeat IPC: 1.61225 cumulative IPC: 1.60709 (Simulation time: 0 hr 1 min 14 sec) 
Heartbeat CPU 0 instructions: 70000003 cycles: 43560356 heartbeat IPC: 1.60625 cumulative IPC: 1.60697 (Simulation time: 0 hr 1 min 27 sec) 
Heartbeat CPU 0 instructions: 80000000 cycles: 49797453 heartbeat IPC: 1.60331 cumulative IPC: 1.60651 (Simulation time: 0 hr 1 min 39 sec) 
Heartbeat CPU 0 instructions: 90000000 cycles: 56033568 heartbeat IPC: 1.60356 cumulative IPC: 1.60618 (Simulation time: 0 hr 1 min 52 sec) 
Heartbeat CPU 0 instructions: 100000000 cycles: 62260164 heartbeat IPC: 1.60601 cumulative IPC: 1.60616 (Simulation time: 0 hr 2 min 5 sec) 

Warmup complete CPU 0 instructions: 100000001 cycles: 62260165 (Simulation time: 0 hr 2 min 5 sec) 

Heartbeat CPU 0 instructions: 110000000 cycles: 88751491 heartbeat IPC: 0.377482 cumulative IPC: 0.377482 (Simulation time: 0 hr 2 min 29 sec) 
Heartbeat CPU 0 instructions: 120000000 cycles: 115043789 heartbeat IPC: 0.38034 cumulative IPC: 0.378905 (Simulation time: 0 hr 2 min 53 sec) 
Heartbeat CPU 0 instructions: 130000000 cycles: 141423364 heartbeat IPC: 0.379081 cumulative IPC: 0.378964 (Simulation time: 0 hr 3 min 17 sec) 
Heartbeat CPU 0 instructions: 140000000 cycles: 167652746 heartbeat IPC: 0.381252 cumulative IPC: 0.379533 (Simulation time: 0 hr 3 min 41 sec) 
Heartbeat CPU 0 instructions: 150000003 cycles: 193714580 heartbeat IPC: 0.383703 cumulative IPC: 0.38036 (Simulation time: 0 hr 4 min 5 sec) 
Heartbeat CPU 0 instructions: 160000000 cycles: 220090746 heartbeat IPC: 0.37913 cumulative IPC: 0.380154 (Simulation time: 0 hr 4 min 29 sec) 
Heartbeat CPU 0 instructions: 170000001 cycles: 246279753 heartbeat IPC: 0.38184 cumulative IPC: 0.380394 (Simulation time: 0 hr 4 min 53 sec) 
Heartbeat CPU 0 instructions: 180000000 cycles: 272462902 heartbeat IPC: 0.381925 cumulative IPC: 0.380585 (Simulation time: 0 hr 5 min 17 sec) 
Heartbeat CPU 0 instructions: 190000003 cycles: 298541997 heartbeat IPC: 0.383449 cumulative IPC: 0.380901 (Simulation time: 0 hr 5 min 42 sec) 
Heartbeat CPU 0 instructions: 200000000 cycles: 324656279 heartbeat IPC: 0.382932 cumulative IPC: 0.381103 (Simulation time: 0 hr 6 min 6 sec) 
Heartbeat CPU 0 instructions: 210000003 cycles: 350786523 heartbeat IPC: 0.382698 cumulative IPC: 0.381248 (Simulation time: 0 hr 6 min 30 sec) 
Heartbeat CPU 0 instructions: 220000000 cycles: 377200594 heartbeat IPC: 0.378586 cumulative IPC: 0.381024 (Simulation time: 0 hr 6 min 54 sec) 
Heartbeat CPU 0 instructions: 230000002 cycles: 403104448 heartbeat IPC: 0.386043 cumulative IPC: 0.381406 (Simulation time: 0 hr 7 min 17 sec) 
Heartbeat CPU 0 instructions: 240000000 cycles: 429422682 heartbeat IPC: 0.379965 cumulative IPC: 0.381303 (Simulation time: 0 hr 7 min 41 sec) 
Heartbeat CPU 0 instructions: 250000000 cycles: 455476906 heartbeat IPC: 0.383815 cumulative IPC: 0.381469 (Simulation time: 0 hr 8 min 5 sec) 
Heartbeat CPU 0 instructions: 260000000 cycles: 481587548 heartbeat IPC: 0.382986 cumulative IPC: 0.381563 (Simulation time: 0 hr 8 min 29 sec) 
Heartbeat CPU 0 instructions: 270000001 cycles: 507784905 heartbeat IPC: 0.381718 cumulative IPC: 0.381573 (Simulation time: 0 hr 8 min 53 sec) 
Heartbeat CPU 0 instructions: 280000000 cycles: 533869656 heartbeat IPC: 0.383366 cumulative IPC: 0.381672 (Simulation time: 0 hr 9 min 17 sec) 
Heartbeat CPU 0 instructions: 290000001 cycles: 559992484 heartbeat IPC: 0.382807 cumulative IPC: 0.381731 (Simulation time: 0 hr 9 min 41 sec) 
Heartbeat CPU 0 instructions: 300000000 cycles: 586394001 heartbeat IPC: 0.378766 cumulative IPC: 0.381582 (Simulation time: 0 hr 10 min 5 sec) 
Heartbeat CPU 0 instructions: 310000003 cycles: 612351096 heartbeat IPC: 0.385251 cumulative IPC: 0.381755 (Simulation time: 0 hr 10 min 29 sec) 
Heartbeat CPU 0 instructions: 320000000 cycles: 638730209 heartbeat IPC: 0.379088 cumulative IPC: 0.381633 (Simulation time: 0 hr 10 min 53 sec) 
Heartbeat CPU 0 instructions: 330000003 cycles: 664718987 heartbeat IPC: 0.384782 cumulative IPC: 0.381769 (Simulation time: 0 hr 11 min 17 sec) 
Heartbeat CPU 0 instructions: 340000000 cycles: 691098308 heartbeat IPC: 0.379085 cumulative IPC: 0.381656 (Simulation time: 0 hr 11 min 41 sec) 
Heartbeat CPU 0 instructions: 350000002 cycles: 717442146 heartbeat IPC: 0.379595 cumulative IPC: 0.381573 (Simulation time: 0 hr 12 min 4 sec) 
Heartbeat CPU 0 instructions: 360000000 cycles: 743988271 heartbeat IPC: 0.376703 cumulative IPC: 0.381384 (Simulation time: 0 hr 12 min 28 sec) 
Heartbeat CPU 0 instructions: 370000002 cycles: 770290827 heartbeat IPC: 0.380191 cumulative IPC: 0.381339 (Simulation time: 0 hr 12 min 52 sec) 
Heartbeat CPU 0 instructions: 380000000 cycles: 796397319 heartbeat IPC: 0.383046 cumulative IPC: 0.3814 (Simulation time: 0 hr 13 min 16 sec) 
Heartbeat CPU 0 instructions: 390000002 cycles: 822542267 heartbeat IPC: 0.382483 cumulative IPC: 0.381437 (Simulation time: 0 hr 13 min 39 sec) 
Heartbeat CPU 0 instructions: 400000000 cycles: 848914997 heartbeat IPC: 0.379179 cumulative IPC: 0.381362 (Simulation time: 0 hr 14 min 3 sec) 
Heartbeat CPU 0 instructions: 410000002 cycles: 875073410 heartbeat IPC: 0.382286 cumulative IPC: 0.381391 (Simulation time: 0 hr 14 min 27 sec) 
Heartbeat CPU 0 instructions: 420000000 cycles: 901030613 heartbeat IPC: 0.385249 cumulative IPC: 0.381511 (Simulation time: 0 hr 14 min 51 sec) 
Heartbeat CPU 0 instructions: 430000000 cycles: 927374823 heartbeat IPC: 0.37959 cumulative IPC: 0.381452 (Simulation time: 0 hr 15 min 15 sec) 
Heartbeat CPU 0 instructions: 440000000 cycles: 953309093 heartbeat IPC: 0.38559 cumulative IPC: 0.381573 (Simulation time: 0 hr 15 min 38 sec) 
Heartbeat CPU 0 instructions: 450000000 cycles: 980095532 heartbeat IPC: 0.373323 cumulative IPC: 0.381332 (Simulation time: 0 hr 16 min 3 sec) 
Heartbeat CPU 0 instructions: 460000000 cycles: 1006766791 heartbeat IPC: 0.374935 cumulative IPC: 0.381151 (Simulation time: 0 hr 16 min 28 sec) 
Heartbeat CPU 0 instructions: 470000001 cycles: 1033167906 heartbeat IPC: 0.378772 cumulative IPC: 0.381087 (Simulation time: 0 hr 16 min 53 sec) 
Heartbeat CPU 0 instructions: 480000000 cycles: 1059748185 heartbeat IPC: 0.376219 cumulative IPC: 0.380957 (Simulation time: 0 hr 17 min 18 sec) 
Heartbeat CPU 0 instructions: 490000000 cycles: 1086336571 heartbeat IPC: 0.376104 cumulative IPC: 0.380831 (Simulation time: 0 hr 17 min 43 sec) 
Heartbeat CPU 0 instructions: 500000000 cycles: 1113273641 heartbeat IPC: 0.371236 cumulative IPC: 0.380585 (Simulation time: 0 hr 18 min 8 sec) 
Heartbeat CPU 0 instructions: 510000003 cycles: 1140093829 heartbeat IPC: 0.372854 cumulative IPC: 0.380393 (Simulation time: 0 hr 18 min 32 sec) 
Heartbeat CPU 0 instructions: 520000000 cycles: 1167035357 heartbeat IPC: 0.371174 cumulative IPC: 0.380168 (Simulation time: 0 hr 18 min 57 sec) 
Heartbeat CPU 0 instructions: 530000001 cycles: 1193960632 heartbeat IPC: 0.371398 cumulative IPC: 0.379959 (Simulation time: 0 hr 19 min 22 sec) 
Heartbeat CPU 0 instructions: 540000000 cycles: 1220838611 heartbeat IPC: 0.372052 cumulative IPC: 0.379776 (Simulation time: 0 hr 19 min 47 sec) 
Heartbeat CPU 0 instructions: 550000000 cycles: 1247632685 heartbeat IPC: 0.373217 cumulative IPC: 0.379627 (Simulation time: 0 hr 20 min 12 sec) 
Heartbeat CPU 0 instructions: 560000000 cycles: 1274878040 heartbeat IPC: 0.367035 cumulative IPC: 0.379345 (Simulation time: 0 hr 20 min 36 sec) 
Heartbeat CPU 0 instructions: 570000001 cycles: 1302018864 heartbeat IPC: 0.368449 cumulative IPC: 0.379106 (Simulation time: 0 hr 21 min 1 sec) 
Heartbeat CPU 0 instructions: 580000000 cycles: 1329142706 heartbeat IPC: 0.368679 cumulative IPC: 0.378883 (Simulation time: 0 hr 21 min 26 sec) 
Heartbeat CPU 0 instructions: 590000000 cycles: 1356484390 heartbeat IPC: 0.365742 cumulative IPC: 0.378605 (Simulation time: 0 hr 21 min 51 sec) 
Heartbeat CPU 0 instructions: 600000000 cycles: 1383911857 heartbeat IPC: 0.364598 cumulative IPC: 0.378314 (Simulation time: 0 hr 22 min 16 sec) 
Finished CPU 0 instructions: 500000003 cycles: 1321651705 cumulative IPC: 0.378314 (Simulation time: 0 hr 22 min 16 sec) 

CPU 0 Branch Prediction Accuracy: 91.1342% MPKI: 18.7968
Number of Branches: 106006945 Number of Mispredictions: 9398408
Number of LOAD Instructions: 207894007
Number of LOAD Instructions (ROI): 207894007
Number of STORE Instructions: 54285997
Number of STORE Instructions (ROI): 54285997
Total Destination Memory Operands: 57463404
Total Destination Memory Operands (ROI): 57463404
Total Source Memory Operands: 207894007
Total Source Memory Operands (ROI): 207894007
Number of DEPENDED LOADS: 18054278
Number of DEPENDED LOADS (ROI): 18054278
Number of SQ_ADDED: 57463404
Number of SQ_ADDED (ROI): 57463404
Number of LQ_ADDED: 209441239
Number of LQ_ADDED (ROI): 209441239
Number of Instructions read from trace: 600000039

ChampSim completed all CPUs

Region of Interest Statistics

CPU 0 cumulative IPC: 0.378314 instructions: 500000003 cycles: 1321651705
ITLB TOTAL     ACCESS:   96314010  HIT:   96314010  MISS:          0
ITLB LOAD      ACCESS:   96314010  HIT:   96314010  MISS:          0
ITLB RFO       ACCESS:          0  HIT:          0  MISS:          0
ITLB PREFETCH  ACCESS:          0  HIT:          0  MISS:          0
ITLB WRITEBACK ACCESS:          0  HIT:          0  MISS:          0
ITLB PREFETCH  REQUESTED:          0  ISSUED:          0  USEFUL:          0  USELESS:          0
ITLB TOTAL MSHR MERGED:          0
ITLB LOAD MSHR MERGED:          0
ITLB RFO MSHR MERGED:          0
ITLB PREFETCH MSHR MERGED:          0
ITLB WRITEBACK MSHR MERGED:          0
ITLB TOTAL ACCESSES:   96314010 HITS:   96314010 MISSES:          0
ITLB LOAD ACCESSES:   96314010 HITS:   96314010 MISSES:          0
ITLB RFO ACCESSES:          0 HITS:          0 MISSES:          0
ITLB PREFETCH ACCESSES:          0 HITS:          0 MISSES:          0
ITLB WRITEBACK ACCESSES:          0 HITS:          0 MISSES:          0
ITLB RQ ACCESS:  499999980
ITLB RQ TO_CACHE:   96314010
ITLB RQ MERGED:  403685970
ITLB RQ FORWARD:          0
ITLB WQ ACCESS:          0
ITLB WQ TO_CACHE:          0
ITLB WQ MERGED:          0
ITLB WQ FORWARD:          0
DTLB TOTAL     ACCESS:  155188453  HIT:  150276335  MISS:    4912118
DTLB LOAD      ACCESS:  117745197  HIT:  113354684  MISS:    4390513
DTLB RFO       ACCESS:   37443256  HIT:   36921651  MISS:     521605
DTLB PREFETCH  ACCESS:          0  HIT:          0  MISS:          0
DTLB WRITEBACK ACCESS:          0  HIT:          0  MISS:          0
DTLB PREFETCH  REQUESTED:          0  ISSUED:          0  USEFUL:          0  USELESS:          0
DTLB TOTAL MSHR MERGED:     448794
DTLB LOAD MSHR MERGED:     157066
DTLB RFO MSHR MERGED:     291728
DTLB PREFETCH MSHR MERGED:          0
DTLB WRITEBACK MSHR MERGED:          0
DTLB TOTAL ACCESSES:  155637247 HITS:  150276335 MISSES:    5360912
DTLB LOAD ACCESSES:  117902263 HITS:  113354684 MISSES:    4547579
DTLB RFO ACCESSES:   37734984 HITS:   36921651 MISSES:     813333
DTLB PREFETCH ACCESSES:          0 HITS:          0 MISSES:          0
DTLB WRITEBACK ACCESSES:          0 HITS:          0 MISSES:          0
DTLB RQ ACCESS:  206028151
DTLB RQ TO_CACHE:  155637247
DTLB RQ MERGED:   50390904
DTLB RQ FORWARD:          0
DTLB WQ ACCESS:          0
DTLB WQ TO_CACHE:          0
DTLB WQ MERGED:          0
DTLB WQ FORWARD:          0
L1D TOTAL     ACCESS:  277282764  HIT:  242459669  MISS:   34823095
L1D LOAD      ACCESS:  125496238  HIT:  107929826  MISS:   17566412
L1D RFO       ACCESS:   41131770  HIT:   38820054  MISS:    2311716
L1D PREFETCH  ACCESS:  110654756  HIT:   95709789  MISS:   14944967
L1D WRITEBACK ACCESS:          0  HIT:          0  MISS:          0
L1D PREFETCH  REQUESTED:  126297985  ISSUED:  124778867  USEFUL:    2777396  USELESS:   12167595
L1D TOTAL MSHR MERGED:    8440350
L1D LOAD MSHR MERGED:    1455470
L1D RFO MSHR MERGED:    3783064
L1D PREFETCH MSHR MERGED:    3201816
L1D WRITEBACK MSHR MERGED:          0
L1D TOTAL ACCESSES:  285810697 HITS:  242547252 MISSES:   43263445
L1D LOAD ACCESSES:  126298008 HITS:  107929849 MISSES:   18368159
L1D RFO ACCESSES:   44914329 HITS:   38820054 MISSES:    6094275
L1D PREFETCH ACCESSES:  114598360 HITS:   95797349 MISSES:   18801011
L1D WRITEBACK ACCESSES:          0 HITS:          0 MISSES:          0
L1D RQ ACCESS:  158481270
L1D RQ TO_CACHE:  126297985
L1D RQ MERGED:   32183262
L1D RQ FORWARD:          0
L1D WQ ACCESS:   47546882
L1D WQ TO_CACHE:   44914329
L1D WQ MERGED:    2632553
L1D WQ FORWARD:      87583
L1I TOTAL     ACCESS:  132700769  HIT:  132700769  MISS:          0
L1I LOAD      ACCESS:  132700769  HIT:  132700769  MISS:          0
L1I RFO       ACCESS:          0  HIT:          0  MISS:          0
L1I PREFETCH  ACCESS:          0  HIT:          0  MISS:          0
L1I WRITEBACK ACCESS:          0  HIT:          0  MISS:          0
L1I PREFETCH  REQUESTED:          0  ISSUED:          0  USEFUL:          0  USELESS:          0
L1I TOTAL MSHR MERGED:          0
L1I LOAD MSHR MERGED:          0
L1I RFO MSHR MERGED:          0
L1I PREFETCH MSHR MERGED:          0
L1I WRITEBACK MSHR MERGED:          0
L1I TOTAL ACCESSES:  132700769 HITS:  132700769 MISSES:          0
L1I LOAD ACCESSES:  132700769 HITS:  132700769 MISSES:          0
L1I RFO ACCESSES:          0 HITS:          0 MISSES:          0
L1I PREFETCH ACCESSES:          0 HITS:          0 MISSES:          0
L1I WRITEBACK ACCESSES:          0 HITS:          0 MISSES:          0
L1I RQ ACCESS:  499999980
L1I RQ TO_CACHE:  132700769
L1I RQ MERGED:  367299211
L1I RQ FORWARD:          0
L1I WQ ACCESS:          0
L1I WQ TO_CACHE:          0
L1I WQ MERGED:          0
L1I WQ FORWARD:          0
L2C TOTAL     ACCESS:   39594248  HIT:   20625638  MISS:   18968610
L2C LOAD      ACCESS:   16912626  HIT:    8567139  MISS:    8345487
L2C RFO       ACCESS:    2311161  HIT:     630761  MISS:    1680400
L2C PREFETCH  ACCESS:   17148147  HIT:    8209172  MISS:    8938975
L2C WRITEBACK ACCESS:    3222314  HIT:    3218566  MISS:       3748
L2C PREFETCH  REQUESTED:    2784144  ISSUED:    2784144  USEFUL:    1306660  USELESS:    7632034
L2C TOTAL MSHR MERGED:     479273
L2C LOAD MSHR MERGED:      63157
L2C RFO MSHR MERGED:          0
L2C PREFETCH MSHR MERGED:     416116
L2C WRITEBACK MSHR MERGED:          0
L2C TOTAL ACCESSES:   40143748 HITS:   20625799 MISSES:   19517949
L2C LOAD ACCESSES:   16912689 HITS:    8567202 MISSES:    8345487
L2C RFO ACCESSES:    2311211 HITS:     630811 MISSES:    1680400
L2C PREFETCH ACCESSES:   17697534 HITS:    8209220 MISSES:    9488314
L2C WRITEBACK ACCESSES:    3222314 HITS:    3218566 MISSES:       3748
L2C RQ ACCESS:   19223900
L2C RQ TO_CACHE:   19223787
L2C RQ MERGED:          0
L2C RQ FORWARD:          0
L2C WQ ACCESS:    3222314
L2C WQ TO_CACHE:    3222314
L2C WQ MERGED:          0
L2C WQ FORWARD:        161
LLC TOTAL     ACCESS:   21180675  HIT:   13951326  MISS:    7229349
LLC LOAD      ACCESS:    8282308  HIT:    5290649  MISS:    2991659
LLC RFO       ACCESS:    1680348  HIT:    1380289  MISS:     300059
LLC PREFETCH  ACCESS:    9042441  HIT:    5219951  MISS:    3822490
LLC WRITEBACK ACCESS:    2175578  HIT:    2060437  MISS:     115141
LLC PREFETCH  REQUESTED:          0  ISSUED:          0  USEFUL:     555210  USELESS:    3272595
LLC TOTAL MSHR MERGED:      25877
LLC LOAD MSHR MERGED:       6703
LLC RFO MSHR MERGED:          0
LLC PREFETCH MSHR MERGED:      19174
LLC WRITEBACK MSHR MERGED:          0
LLC TOTAL ACCESSES:   21206649 HITS:   13951423 MISSES:    7255226
LLC LOAD ACCESSES:    8282330 HITS:    5290671 MISSES:    2991659
LLC RFO ACCESSES:    1680400 HITS:    1380341 MISSES:     300059
LLC PREFETCH ACCESSES:    9068341 HITS:    5219974 MISSES:    3848367
LLC WRITEBACK ACCESSES:    2175578 HITS:    2060437 MISSES:     115141
LLC 0 RQ ACCESS:    9962730
LLC 0 RQ TO_CACHE:    9962656
LLC 0 RQ MERGED:          0
LLC 0 RQ FORWARD:          0
LLC WQ ACCESS:    2175579
LLC WQ TO_CACHE:    2175579
LLC WQ MERGED:          0
LLC WQ FORWARD:         97
Major fault: 0 Minor fault: 56391
CPU 0 L1D next line prefetcher final stats
CPU 0 L2C PC-based stride prefetcher final stats
All Misses: 8647093
All Hits: 15910424
SD Algo Stats - Switches: 0 SRR-Repls: 3207524 BRR-Repls: 0

DRAM Statistics
 CHANNEL 0
 RQ ROW_BUFFER_HIT:    4065760  ROW_BUFFER_MISS:    3006322
 DBUS_CONGESTED:    3804395
 WQ ROW_BUFFER_HIT:     148121  ROW_BUFFER_MISS:     508010  FULL:          0

 AVG_CONGESTED_CYCLE: 13
LOADS RETIRED: 173631671
INSTR RETIRED: 500000000
