
*** ChampSim Multicore Out-of-Order Simulator ***

Warmup Instructions: 100000000
Simulation Instructions: 500000000
Number of CPUs: 1
LLC sets: 2048
LLC ways: 16
Clean RRIP Policies: 22222000222220 Dirty RRIP Policies: 1012022010120220 PSEL Width: 10 Track Set: 4294967295 PSEL Mask: 1 Demote Mask: 2014414020144140DS Algo: 0Window size: 0
Off-chip DRAM Size: 4096 MB Channels: 1 Width: 64-bit Data Rate: 1600 MT/s

CPU 0 runs /mnt/beegfs/iconst01/spec2017/Xz.trace.gz
NOT SORTED
TRACE STRING: /mnt/beegfs/iconst01/spec2017/Xz.trace.gz
SORTED
TRACE STRING: /mnt/beegfs/iconst01/spec2017/Xz.trace.gz
INITIAL
TRACE STRING: /mnt/beegfs/iconst01/spec2017/Xz.trace.gz

champsim_seed used: 210

CPU 0 L1D next line prefetcher
CPU 0 L2C IP-based stride prefetcher
Initialize DRRIP state
Assign rand_sets[0]: 454  LLC: 2048
rand_sets[0]: 454
Assign rand_sets[1]: 1662  LLC: 2048
rand_sets[1]: 1662
Assign rand_sets[2]: 1921  LLC: 2048
rand_sets[2]: 1921
Assign rand_sets[3]: 1131  LLC: 2048
rand_sets[3]: 1131
Assign rand_sets[4]: 331  LLC: 2048
rand_sets[4]: 331
Assign rand_sets[5]: 1531  LLC: 2048
rand_sets[5]: 1531
Assign rand_sets[6]: 482  LLC: 2048
rand_sets[6]: 482
Assign rand_sets[7]: 1275  LLC: 2048
rand_sets[7]: 1275
Assign rand_sets[8]: 1876  LLC: 2048
rand_sets[8]: 1876
Assign rand_sets[9]: 2038  LLC: 2048
rand_sets[9]: 2038
Assign rand_sets[10]: 701  LLC: 2048
rand_sets[10]: 701
Assign rand_sets[11]: 479  LLC: 2048
rand_sets[11]: 479
Assign rand_sets[12]: 892  LLC: 2048
rand_sets[12]: 892
Assign rand_sets[13]: 1820  LLC: 2048
rand_sets[13]: 1820
Assign rand_sets[14]: 1505  LLC: 2048
rand_sets[14]: 1505
Assign rand_sets[15]: 1159  LLC: 2048
rand_sets[15]: 1159
Assign rand_sets[16]: 513  LLC: 2048
rand_sets[16]: 513
Assign rand_sets[17]: 703  LLC: 2048
rand_sets[17]: 703
Assign rand_sets[18]: 561  LLC: 2048
rand_sets[18]: 561
Assign rand_sets[19]: 990  LLC: 2048
rand_sets[19]: 990
Assign rand_sets[20]: 342  LLC: 2048
rand_sets[20]: 342
Assign rand_sets[21]: 882  LLC: 2048
rand_sets[21]: 882
Assign rand_sets[22]: 15  LLC: 2048
rand_sets[22]: 15
Assign rand_sets[23]: 71  LLC: 2048
rand_sets[23]: 71
Assign rand_sets[24]: 1127  LLC: 2048
rand_sets[24]: 1127
Assign rand_sets[25]: 1382  LLC: 2048
rand_sets[25]: 1382
Assign rand_sets[26]: 647  LLC: 2048
rand_sets[26]: 647
Assign rand_sets[27]: 857  LLC: 2048
rand_sets[27]: 857
Assign rand_sets[28]: 1450  LLC: 2048
rand_sets[28]: 1450
Assign rand_sets[29]: 1160  LLC: 2048
rand_sets[29]: 1160
Assign rand_sets[30]: 1852  LLC: 2048
rand_sets[30]: 1852
Assign rand_sets[31]: 1881  LLC: 2048
rand_sets[31]: 1881
Assign rand_sets[32]: 1770  LLC: 2048
rand_sets[32]: 1770
Assign rand_sets[33]: 1622  LLC: 2048
rand_sets[33]: 1622
Assign rand_sets[34]: 275  LLC: 2048
rand_sets[34]: 275
Assign rand_sets[35]: 635  LLC: 2048
rand_sets[35]: 635
Assign rand_sets[36]: 466  LLC: 2048
rand_sets[36]: 466
Assign rand_sets[37]: 1413  LLC: 2048
rand_sets[37]: 1413
Assign rand_sets[38]: 417  LLC: 2048
rand_sets[38]: 417
Assign rand_sets[39]: 472  LLC: 2048
rand_sets[39]: 472
Assign rand_sets[40]: 1340  LLC: 2048
rand_sets[40]: 1340
Assign rand_sets[41]: 852  LLC: 2048
rand_sets[41]: 852
Assign rand_sets[42]: 1365  LLC: 2048
rand_sets[42]: 1365
Assign rand_sets[43]: 47  LLC: 2048
rand_sets[43]: 47
Assign rand_sets[44]: 823  LLC: 2048
rand_sets[44]: 823
Assign rand_sets[45]: 686  LLC: 2048
rand_sets[45]: 686
Assign rand_sets[46]: 1637  LLC: 2048
rand_sets[46]: 1637
Assign rand_sets[47]: 1115  LLC: 2048
rand_sets[47]: 1115
Assign rand_sets[48]: 986  LLC: 2048
rand_sets[48]: 986
Assign rand_sets[49]: 258  LLC: 2048
rand_sets[49]: 258
Assign rand_sets[50]: 633  LLC: 2048
rand_sets[50]: 633
Assign rand_sets[51]: 920  LLC: 2048
rand_sets[51]: 920
Assign rand_sets[52]: 204  LLC: 2048
rand_sets[52]: 204
Assign rand_sets[53]: 227  LLC: 2048
rand_sets[53]: 227
Assign rand_sets[54]: 1818  LLC: 2048
rand_sets[54]: 1818
Assign rand_sets[55]: 886  LLC: 2048
rand_sets[55]: 886
Assign rand_sets[56]: 1422  LLC: 2048
rand_sets[56]: 1422
Assign rand_sets[57]: 607  LLC: 2048
rand_sets[57]: 607
Assign rand_sets[58]: 217  LLC: 2048
rand_sets[58]: 217
Assign rand_sets[59]: 1945  LLC: 2048
rand_sets[59]: 1945
Assign rand_sets[60]: 143  LLC: 2048
rand_sets[60]: 143
Assign rand_sets[61]: 1311  LLC: 2048
rand_sets[61]: 1311
Assign rand_sets[62]: 319  LLC: 2048
rand_sets[62]: 319
Assign rand_sets[63]: 1846  LLC: 2048
rand_sets[63]: 1846
 CLEAN-RRIP-POLICY-1: 0-0-2-2-2-2-2-0- CLEAN-RRIP-POLICY-2: 0-0-2-2-2-2-2-0-
 DIRTY-RRIP-POLICY-1: 1-0-1-2-0-2-2-0- DIRTY-RRIP-POLICY-2: 1-0-1-2-0-2-2-0-
 PSEL width: 10
Heartbeat CPU 0 instructions: 10000000 cycles: 4305123 heartbeat IPC: 2.32281 cumulative IPC: 2.32281 (Simulation time: 0 hr 0 min 12 sec) 
Heartbeat CPU 0 instructions: 20000000 cycles: 8616743 heartbeat IPC: 2.31931 cumulative IPC: 2.32106 (Simulation time: 0 hr 0 min 24 sec) 
Heartbeat CPU 0 instructions: 30000003 cycles: 13160538 heartbeat IPC: 2.2008 cumulative IPC: 2.27954 (Simulation time: 0 hr 0 min 37 sec) 
Heartbeat CPU 0 instructions: 40000000 cycles: 17515068 heartbeat IPC: 2.29646 cumulative IPC: 2.28375 (Simulation time: 0 hr 0 min 49 sec) 
Heartbeat CPU 0 instructions: 50000001 cycles: 21877997 heartbeat IPC: 2.29204 cumulative IPC: 2.2854 (Simulation time: 0 hr 1 min 1 sec) 
Heartbeat CPU 0 instructions: 60000000 cycles: 26178267 heartbeat IPC: 2.32544 cumulative IPC: 2.29198 (Simulation time: 0 hr 1 min 13 sec) 
Heartbeat CPU 0 instructions: 70000001 cycles: 30244215 heartbeat IPC: 2.45945 cumulative IPC: 2.31449 (Simulation time: 0 hr 1 min 24 sec) 
Heartbeat CPU 0 instructions: 80000000 cycles: 34523073 heartbeat IPC: 2.33707 cumulative IPC: 2.31729 (Simulation time: 0 hr 1 min 36 sec) 
Heartbeat CPU 0 instructions: 90000001 cycles: 38739769 heartbeat IPC: 2.37153 cumulative IPC: 2.32319 (Simulation time: 0 hr 1 min 47 sec) 
Heartbeat CPU 0 instructions: 100000000 cycles: 42980269 heartbeat IPC: 2.35821 cumulative IPC: 2.32665 (Simulation time: 0 hr 1 min 59 sec) 

Warmup complete CPU 0 instructions: 100000001 cycles: 42980270 (Simulation time: 0 hr 1 min 59 sec) 

Heartbeat CPU 0 instructions: 110000000 cycles: 53155133 heartbeat IPC: 0.982814 cumulative IPC: 0.982814 (Simulation time: 0 hr 2 min 16 sec) 
Heartbeat CPU 0 instructions: 120000000 cycles: 63865213 heartbeat IPC: 0.9337 cumulative IPC: 0.957628 (Simulation time: 0 hr 2 min 34 sec) 
Heartbeat CPU 0 instructions: 130000001 cycles: 74536382 heartbeat IPC: 0.937105 cumulative IPC: 0.950687 (Simulation time: 0 hr 2 min 52 sec) 
Heartbeat CPU 0 instructions: 140000000 cycles: 84262732 heartbeat IPC: 1.02813 cumulative IPC: 0.968934 (Simulation time: 0 hr 3 min 9 sec) 
Heartbeat CPU 0 instructions: 150000001 cycles: 94637321 heartbeat IPC: 0.963894 cumulative IPC: 0.967922 (Simulation time: 0 hr 3 min 27 sec) 
Heartbeat CPU 0 instructions: 160000000 cycles: 104758001 heartbeat IPC: 0.988076 cumulative IPC: 0.971224 (Simulation time: 0 hr 3 min 45 sec) 
Heartbeat CPU 0 instructions: 170000000 cycles: 114476484 heartbeat IPC: 1.02897 cumulative IPC: 0.979073 (Simulation time: 0 hr 4 min 2 sec) 
Heartbeat CPU 0 instructions: 180000000 cycles: 125098257 heartbeat IPC: 0.941462 cumulative IPC: 0.974208 (Simulation time: 0 hr 4 min 20 sec) 
Heartbeat CPU 0 instructions: 190000001 cycles: 135424395 heartbeat IPC: 0.968416 cumulative IPC: 0.973561 (Simulation time: 0 hr 4 min 38 sec) 
Heartbeat CPU 0 instructions: 200000000 cycles: 146102336 heartbeat IPC: 0.93651 cumulative IPC: 0.969725 (Simulation time: 0 hr 4 min 56 sec) 
Heartbeat CPU 0 instructions: 210000002 cycles: 158664216 heartbeat IPC: 0.796059 cumulative IPC: 0.950867 (Simulation time: 0 hr 5 min 15 sec) 
Heartbeat CPU 0 instructions: 220000000 cycles: 171313134 heartbeat IPC: 0.790581 cumulative IPC: 0.935068 (Simulation time: 0 hr 5 min 34 sec) 
Heartbeat CPU 0 instructions: 230000000 cycles: 183593451 heartbeat IPC: 0.814311 cumulative IPC: 0.924522 (Simulation time: 0 hr 5 min 53 sec) 
Heartbeat CPU 0 instructions: 240000000 cycles: 195827329 heartbeat IPC: 0.817402 cumulative IPC: 0.915948 (Simulation time: 0 hr 6 min 12 sec) 
Heartbeat CPU 0 instructions: 250000000 cycles: 207905846 heartbeat IPC: 0.827916 cumulative IPC: 0.909501 (Simulation time: 0 hr 6 min 31 sec) 
Heartbeat CPU 0 instructions: 260000000 cycles: 219553852 heartbeat IPC: 0.858516 cumulative IPC: 0.906138 (Simulation time: 0 hr 6 min 50 sec) 
Heartbeat CPU 0 instructions: 270000003 cycles: 231533022 heartbeat IPC: 0.834783 cumulative IPC: 0.901604 (Simulation time: 0 hr 7 min 8 sec) 
Heartbeat CPU 0 instructions: 280000000 cycles: 243159915 heartbeat IPC: 0.860075 cumulative IPC: 0.899192 (Simulation time: 0 hr 7 min 27 sec) 
Heartbeat CPU 0 instructions: 290000002 cycles: 254823563 heartbeat IPC: 0.857365 cumulative IPC: 0.896889 (Simulation time: 0 hr 7 min 46 sec) 
Heartbeat CPU 0 instructions: 300000000 cycles: 267410534 heartbeat IPC: 0.794472 cumulative IPC: 0.891145 (Simulation time: 0 hr 8 min 5 sec) 
Heartbeat CPU 0 instructions: 310000000 cycles: 279716232 heartbeat IPC: 0.812632 cumulative IPC: 0.887064 (Simulation time: 0 hr 8 min 24 sec) 
Heartbeat CPU 0 instructions: 320000000 cycles: 292533515 heartbeat IPC: 0.780197 cumulative IPC: 0.881575 (Simulation time: 0 hr 8 min 43 sec) 
Heartbeat CPU 0 instructions: 330000003 cycles: 304632582 heartbeat IPC: 0.82651 cumulative IPC: 0.879029 (Simulation time: 0 hr 9 min 2 sec) 
Heartbeat CPU 0 instructions: 340000000 cycles: 316897833 heartbeat IPC: 0.815311 cumulative IPC: 0.876176 (Simulation time: 0 hr 9 min 21 sec) 
Heartbeat CPU 0 instructions: 350000001 cycles: 327978658 heartbeat IPC: 0.90246 cumulative IPC: 0.877198 (Simulation time: 0 hr 9 min 39 sec) 
Heartbeat CPU 0 instructions: 360000000 cycles: 339908289 heartbeat IPC: 0.838249 cumulative IPC: 0.875633 (Simulation time: 0 hr 9 min 58 sec) 
Heartbeat CPU 0 instructions: 370000001 cycles: 351422332 heartbeat IPC: 0.868505 cumulative IPC: 0.875367 (Simulation time: 0 hr 10 min 17 sec) 
Heartbeat CPU 0 instructions: 380000000 cycles: 362498677 heartbeat IPC: 0.902825 cumulative IPC: 0.876319 (Simulation time: 0 hr 10 min 35 sec) 
Heartbeat CPU 0 instructions: 390000003 cycles: 373201919 heartbeat IPC: 0.934297 cumulative IPC: 0.878198 (Simulation time: 0 hr 10 min 53 sec) 
Heartbeat CPU 0 instructions: 400000000 cycles: 383478974 heartbeat IPC: 0.973041 cumulative IPC: 0.881061 (Simulation time: 0 hr 11 min 11 sec) 
Heartbeat CPU 0 instructions: 410000000 cycles: 394066700 heartbeat IPC: 0.94449 cumulative IPC: 0.882973 (Simulation time: 0 hr 11 min 30 sec) 
Heartbeat CPU 0 instructions: 420000000 cycles: 403474050 heartbeat IPC: 1.063 cumulative IPC: 0.887671 (Simulation time: 0 hr 11 min 47 sec) 
Heartbeat CPU 0 instructions: 430000002 cycles: 412571541 heartbeat IPC: 1.0992 cumulative IPC: 0.892878 (Simulation time: 0 hr 12 min 5 sec) 
Heartbeat CPU 0 instructions: 440000000 cycles: 422910460 heartbeat IPC: 0.967219 cumulative IPC: 0.894901 (Simulation time: 0 hr 12 min 23 sec) 
Heartbeat CPU 0 instructions: 450000002 cycles: 434093847 heartbeat IPC: 0.894184 cumulative IPC: 0.894881 (Simulation time: 0 hr 12 min 41 sec) 
Heartbeat CPU 0 instructions: 460000000 cycles: 445757010 heartbeat IPC: 0.8574 cumulative IPC: 0.893795 (Simulation time: 0 hr 12 min 59 sec) 
Heartbeat CPU 0 instructions: 470000003 cycles: 456001816 heartbeat IPC: 0.976105 cumulative IPC: 0.895837 (Simulation time: 0 hr 13 min 17 sec) 
Heartbeat CPU 0 instructions: 480000000 cycles: 466596303 heartbeat IPC: 0.943887 cumulative IPC: 0.897039 (Simulation time: 0 hr 13 min 35 sec) 
Heartbeat CPU 0 instructions: 490000000 cycles: 476586946 heartbeat IPC: 1.00094 cumulative IPC: 0.899433 (Simulation time: 0 hr 13 min 52 sec) 
Heartbeat CPU 0 instructions: 500000000 cycles: 488508969 heartbeat IPC: 0.838784 cumulative IPC: 0.89781 (Simulation time: 0 hr 14 min 11 sec) 
Heartbeat CPU 0 instructions: 510000002 cycles: 501047274 heartbeat IPC: 0.797556 cumulative IPC: 0.895066 (Simulation time: 0 hr 14 min 29 sec) 
Heartbeat CPU 0 instructions: 520000000 cycles: 512992367 heartbeat IPC: 0.837164 cumulative IPC: 0.893594 (Simulation time: 0 hr 14 min 48 sec) 
Heartbeat CPU 0 instructions: 530000001 cycles: 524930144 heartbeat IPC: 0.837677 cumulative IPC: 0.892209 (Simulation time: 0 hr 15 min 7 sec) 
Heartbeat CPU 0 instructions: 540000000 cycles: 536638979 heartbeat IPC: 0.854056 cumulative IPC: 0.891304 (Simulation time: 0 hr 15 min 25 sec) 
Heartbeat CPU 0 instructions: 550000001 cycles: 548126201 heartbeat IPC: 0.870533 cumulative IPC: 0.890832 (Simulation time: 0 hr 15 min 43 sec) 
Heartbeat CPU 0 instructions: 560000000 cycles: 559792858 heartbeat IPC: 0.857143 cumulative IPC: 0.890071 (Simulation time: 0 hr 16 min 2 sec) 
Heartbeat CPU 0 instructions: 570000000 cycles: 571308206 heartbeat IPC: 0.868406 cumulative IPC: 0.889599 (Simulation time: 0 hr 16 min 20 sec) 
Heartbeat CPU 0 instructions: 580000000 cycles: 582149038 heartbeat IPC: 0.922438 cumulative IPC: 0.890259 (Simulation time: 0 hr 16 min 37 sec) 
Heartbeat CPU 0 instructions: 590000003 cycles: 593689687 heartbeat IPC: 0.866503 cumulative IPC: 0.889761 (Simulation time: 0 hr 16 min 55 sec) 
Heartbeat CPU 0 instructions: 600000000 cycles: 604348314 heartbeat IPC: 0.938207 cumulative IPC: 0.890681 (Simulation time: 0 hr 17 min 13 sec) 
Finished CPU 0 instructions: 500000001 cycles: 561368052 cumulative IPC: 0.890681 (Simulation time: 0 hr 17 min 13 sec) 

CPU 0 Branch Prediction Accuracy: 93.0095% MPKI: 10.0046
Number of Branches: 71558147 Number of Mispredictions: 5002285
Number of LOAD Instructions: 145708893
Number of LOAD Instructions (ROI): 145708893
Number of STORE Instructions: 40463820
Number of STORE Instructions (ROI): 40463820
Total Destination Memory Operands: 45240498
Total Destination Memory Operands (ROI): 45240498
Total Source Memory Operands: 145708893
Total Source Memory Operands (ROI): 145708893
Number of DEPENDED LOADS: 10667265
Number of DEPENDED LOADS (ROI): 10667265
Number of SQ_ADDED: 45240498
Number of SQ_ADDED (ROI): 45240498
Number of LQ_ADDED: 193349096
Number of LQ_ADDED (ROI): 193349096
Number of Instructions read from trace: 600000002

ChampSim completed all CPUs

Region of Interest Statistics

CPU 0 cumulative IPC: 0.890681 instructions: 500000001 cycles: 561368052
ITLB TOTAL     ACCESS:   77989720  HIT:   77989719  MISS:          1
ITLB LOAD      ACCESS:   77989720  HIT:   77989719  MISS:          1
ITLB RFO       ACCESS:          0  HIT:          0  MISS:          0
ITLB PREFETCH  ACCESS:          0  HIT:          0  MISS:          0
ITLB WRITEBACK ACCESS:          0  HIT:          0  MISS:          0
ITLB PREFETCH  REQUESTED:          0  ISSUED:          0  USEFUL:          0  USELESS:          0
ITLB TOTAL MSHR MERGED:          0
ITLB LOAD MSHR MERGED:          0
ITLB RFO MSHR MERGED:          0
ITLB PREFETCH MSHR MERGED:          0
ITLB WRITEBACK MSHR MERGED:          0
ITLB TOTAL ACCESSES:   77989720 HITS:   77989719 MISSES:          1
ITLB LOAD ACCESSES:   77989720 HITS:   77989719 MISSES:          1
ITLB RFO ACCESSES:          0 HITS:          0 MISSES:          0
ITLB PREFETCH ACCESSES:          0 HITS:          0 MISSES:          0
ITLB WRITEBACK ACCESSES:          0 HITS:          0 MISSES:          0
ITLB RQ ACCESS:  499999995
ITLB RQ TO_CACHE:   77989720
ITLB RQ MERGED:  422010275
ITLB RQ FORWARD:          0
ITLB WQ ACCESS:          0
ITLB WQ TO_CACHE:          0
ITLB WQ MERGED:          0
ITLB WQ FORWARD:          0
DTLB TOTAL     ACCESS:   98674989  HIT:   97793653  MISS:     881336
DTLB LOAD      ACCESS:   70895931  HIT:   70034398  MISS:     861533
DTLB RFO       ACCESS:   27779058  HIT:   27759255  MISS:      19803
DTLB PREFETCH  ACCESS:          0  HIT:          0  MISS:          0
DTLB WRITEBACK ACCESS:          0  HIT:          0  MISS:          0
DTLB PREFETCH  REQUESTED:          0  ISSUED:          0  USEFUL:          0  USELESS:          0
DTLB TOTAL MSHR MERGED:      87373
DTLB LOAD MSHR MERGED:      65618
DTLB RFO MSHR MERGED:      21755
DTLB PREFETCH MSHR MERGED:          0
DTLB WRITEBACK MSHR MERGED:          0
DTLB TOTAL ACCESSES:   98762362 HITS:   97793653 MISSES:     968709
DTLB LOAD ACCESSES:   70961549 HITS:   70034398 MISSES:     927151
DTLB RFO ACCESSES:   27800813 HITS:   27759255 MISSES:      41558
DTLB PREFETCH ACCESSES:          0 HITS:          0 MISSES:          0
DTLB WRITEBACK ACCESSES:          0 HITS:          0 MISSES:          0
DTLB RQ ACCESS:  150277780
DTLB RQ TO_CACHE:   98762362
DTLB RQ MERGED:   51515418
DTLB RQ FORWARD:          0
DTLB WQ ACCESS:          0
DTLB WQ TO_CACHE:          0
DTLB WQ MERGED:          0
DTLB WQ FORWARD:          0
L1D TOTAL     ACCESS:  173332918  HIT:  169164300  MISS:    4168618
L1D LOAD      ACCESS:   75286117  HIT:   73404674  MISS:    1881443
L1D RFO       ACCESS:   36778402  HIT:   36571801  MISS:     206601
L1D PREFETCH  ACCESS:   61268399  HIT:   59187825  MISS:    2080574
L1D WRITEBACK ACCESS:          0  HIT:          0  MISS:          0
L1D PREFETCH  REQUESTED:   75392322  ISSUED:   74828092  USEFUL:     415020  USELESS:    1665543
L1D TOTAL MSHR MERGED:     384510
L1D LOAD MSHR MERGED:     115092
L1D RFO MSHR MERGED:     132913
L1D PREFETCH MSHR MERGED:     136505
L1D WRITEBACK MSHR MERGED:          0
L1D TOTAL ACCESSES:  173868971 HITS:  169315843 MISSES:    4553128
L1D LOAD ACCESSES:   75395137 HITS:   73407489 MISSES:    1987648
L1D RFO ACCESSES:   36909924 HITS:   36571801 MISSES:     338123
L1D PREFETCH ACCESSES:   61563910 HITS:   59336553 MISSES:    2227357
L1D WRITEBACK ACCESSES:          0 HITS:          0 MISSES:          0
L1D RQ ACCESS:  112615377
L1D RQ TO_CACHE:   75392322
L1D RQ MERGED:   37220240
L1D RQ FORWARD:          0
L1D WQ ACCESS:   37662403
L1D WQ TO_CACHE:   36909924
L1D WQ MERGED:     752479
L1D WQ FORWARD:     151543
L1I TOTAL     ACCESS:  100697858  HIT:  100697833  MISS:         25
L1I LOAD      ACCESS:  100697858  HIT:  100697833  MISS:         25
L1I RFO       ACCESS:          0  HIT:          0  MISS:          0
L1I PREFETCH  ACCESS:          0  HIT:          0  MISS:          0
L1I WRITEBACK ACCESS:          0  HIT:          0  MISS:          0
L1I PREFETCH  REQUESTED:          0  ISSUED:          0  USEFUL:          0  USELESS:          0
L1I TOTAL MSHR MERGED:         10
L1I LOAD MSHR MERGED:         10
L1I RFO MSHR MERGED:          0
L1I PREFETCH MSHR MERGED:          0
L1I WRITEBACK MSHR MERGED:          0
L1I TOTAL ACCESSES:  100697868 HITS:  100697833 MISSES:         35
L1I LOAD ACCESSES:  100697868 HITS:  100697833 MISSES:         35
L1I RFO ACCESSES:          0 HITS:          0 MISSES:          0
L1I PREFETCH ACCESSES:          0 HITS:          0 MISSES:          0
L1I WRITEBACK ACCESSES:          0 HITS:          0 MISSES:          0
L1I RQ ACCESS:  499999995
L1I RQ TO_CACHE:  100697868
L1I RQ MERGED:  399302127
L1I RQ FORWARD:          0
L1I WQ ACCESS:          0
L1I WQ TO_CACHE:          0
L1I WQ MERGED:          0
L1I WQ FORWARD:          0
L2C TOTAL     ACCESS:    5852511  HIT:    4009344  MISS:    1843167
L2C LOAD      ACCESS:    1872457  HIT:    1061498  MISS:     810959
L2C RFO       ACCESS:     205203  HIT:     100564  MISS:     104639
L2C PREFETCH  ACCESS:    2169218  HIT:    1246069  MISS:     923149
L2C WRITEBACK ACCESS:    1605633  HIT:    1601213  MISS:       4420
L2C PREFETCH  REQUESTED:      91709  ISSUED:      91709  USEFUL:      86441  USELESS:     836732
L2C TOTAL MSHR MERGED:       1101
L2C LOAD MSHR MERGED:        278
L2C RFO MSHR MERGED:          0
L2C PREFETCH MSHR MERGED:        823
L2C WRITEBACK MSHR MERGED:          0
L2C TOTAL ACCESSES:    5853928 HITS:    4009512 MISSES:    1844416
L2C LOAD ACCESSES:    1872581 HITS:    1061622 MISSES:     810959
L2C RFO ACCESSES:     205210 HITS:     100571 MISSES:     104639
L2C PREFETCH ACCESSES:    2170504 HITS:    1246106 MISSES:     924398
L2C WRITEBACK ACCESSES:    1605633 HITS:    1601213 MISSES:       4420
L2C RQ ACCESS:    2077791
L2C RQ TO_CACHE:    2077660
L2C RQ MERGED:          0
L2C RQ FORWARD:          0
L2C WQ ACCESS:    1605633
L2C WQ TO_CACHE:    1605633
L2C WQ MERGED:          0
L2C WQ FORWARD:        168
LLC TOTAL     ACCESS:    2673544  HIT:    2127064  MISS:     546480
LLC LOAD      ACCESS:     810672  HIT:     598910  MISS:     211762
LLC RFO       ACCESS:     104639  HIT:      59860  MISS:      44779
LLC PREFETCH  ACCESS:     923564  HIT:     661657  MISS:     261907
LLC WRITEBACK ACCESS:     834669  HIT:     806637  MISS:      28032
LLC PREFETCH  REQUESTED:          0  ISSUED:          0  USEFUL:      38920  USELESS:     222801
LLC TOTAL MSHR MERGED:          5
LLC LOAD MSHR MERGED:          1
LLC RFO MSHR MERGED:          0
LLC PREFETCH MSHR MERGED:          4
LLC WRITEBACK MSHR MERGED:          0
LLC TOTAL ACCESSES:    2673560 HITS:    2127075 MISSES:     546485
LLC LOAD ACCESSES:     810681 HITS:     598919 MISSES:     211762
LLC RFO ACCESSES:     104639 HITS:      59860 MISSES:      44779
LLC PREFETCH ACCESSES:     923571 HITS:     661659 MISSES:     261912
LLC WRITEBACK ACCESSES:     834669 HITS:     806637 MISSES:      28032
LLC 0 RQ ACCESS:     915320
LLC 0 RQ TO_CACHE:     915311
LLC 0 RQ MERGED:          0
LLC 0 RQ FORWARD:          0
LLC WQ ACCESS:     834669
LLC WQ TO_CACHE:     834669
LLC WQ MERGED:          0
LLC WQ FORWARD:         11
Major fault: 0 Minor fault: 11278
CPU 0 L1D next line prefetcher final stats
CPU 0 L2C PC-based stride prefetcher final stats
All Misses: 647975
All Hits: 2406585
SD Algo Stats - Switches: 0 SRR-Repls: 244878 BRR-Repls: 0

DRAM Statistics
 CHANNEL 0
 RQ ROW_BUFFER_HIT:      32318  ROW_BUFFER_MISS:     485641
 DBUS_CONGESTED:     429199
 WQ ROW_BUFFER_HIT:      20123  ROW_BUFFER_MISS:     248251  FULL:          0

 AVG_CONGESTED_CYCLE: 13
LOADS RETIRED: 121769268
INSTR RETIRED: 500000000
