
*** ChampSim Multicore Out-of-Order Simulator ***

Warmup Instructions: 100000000
Simulation Instructions: 500000000
Number of CPUs: 1
LLC sets: 2048
LLC ways: 16
Clean RRIP Policies: 2323020123230201 Dirty RRIP Policies: 323121103231211 PSEL Width: 10 Track Set: 4294967295 PSEL Mask: 1 Demote Mask: 3423032234230322DS Algo: 0Window size: 0
Off-chip DRAM Size: 4096 MB Channels: 1 Width: 64-bit Data Rate: 1600 MT/s

CPU 0 runs /mnt/beegfs/iconst01/spec2017/Gcc.trace.gz
NOT SORTED
TRACE STRING: /mnt/beegfs/iconst01/spec2017/Gcc.trace.gz
SORTED
TRACE STRING: /mnt/beegfs/iconst01/spec2017/Gcc.trace.gz
INITIAL
TRACE STRING: /mnt/beegfs/iconst01/spec2017/Gcc.trace.gz

champsim_seed used: 269

CPU 0 L1D next line prefetcher
CPU 0 L2C IP-based stride prefetcher
Initialize DRRIP state
Assign rand_sets[0]: 454  LLC: 2048
rand_sets[0]: 454
Assign rand_sets[1]: 1662  LLC: 2048
rand_sets[1]: 1662
Assign rand_sets[2]: 1921  LLC: 2048
rand_sets[2]: 1921
Assign rand_sets[3]: 1131  LLC: 2048
rand_sets[3]: 1131
Assign rand_sets[4]: 331  LLC: 2048
rand_sets[4]: 331
Assign rand_sets[5]: 1531  LLC: 2048
rand_sets[5]: 1531
Assign rand_sets[6]: 482  LLC: 2048
rand_sets[6]: 482
Assign rand_sets[7]: 1275  LLC: 2048
rand_sets[7]: 1275
Assign rand_sets[8]: 1876  LLC: 2048
rand_sets[8]: 1876
Assign rand_sets[9]: 2038  LLC: 2048
rand_sets[9]: 2038
Assign rand_sets[10]: 701  LLC: 2048
rand_sets[10]: 701
Assign rand_sets[11]: 479  LLC: 2048
rand_sets[11]: 479
Assign rand_sets[12]: 892  LLC: 2048
rand_sets[12]: 892
Assign rand_sets[13]: 1820  LLC: 2048
rand_sets[13]: 1820
Assign rand_sets[14]: 1505  LLC: 2048
rand_sets[14]: 1505
Assign rand_sets[15]: 1159  LLC: 2048
rand_sets[15]: 1159
Assign rand_sets[16]: 513  LLC: 2048
rand_sets[16]: 513
Assign rand_sets[17]: 703  LLC: 2048
rand_sets[17]: 703
Assign rand_sets[18]: 561  LLC: 2048
rand_sets[18]: 561
Assign rand_sets[19]: 990  LLC: 2048
rand_sets[19]: 990
Assign rand_sets[20]: 342  LLC: 2048
rand_sets[20]: 342
Assign rand_sets[21]: 882  LLC: 2048
rand_sets[21]: 882
Assign rand_sets[22]: 15  LLC: 2048
rand_sets[22]: 15
Assign rand_sets[23]: 71  LLC: 2048
rand_sets[23]: 71
Assign rand_sets[24]: 1127  LLC: 2048
rand_sets[24]: 1127
Assign rand_sets[25]: 1382  LLC: 2048
rand_sets[25]: 1382
Assign rand_sets[26]: 647  LLC: 2048
rand_sets[26]: 647
Assign rand_sets[27]: 857  LLC: 2048
rand_sets[27]: 857
Assign rand_sets[28]: 1450  LLC: 2048
rand_sets[28]: 1450
Assign rand_sets[29]: 1160  LLC: 2048
rand_sets[29]: 1160
Assign rand_sets[30]: 1852  LLC: 2048
rand_sets[30]: 1852
Assign rand_sets[31]: 1881  LLC: 2048
rand_sets[31]: 1881
Assign rand_sets[32]: 1770  LLC: 2048
rand_sets[32]: 1770
Assign rand_sets[33]: 1622  LLC: 2048
rand_sets[33]: 1622
Assign rand_sets[34]: 275  LLC: 2048
rand_sets[34]: 275
Assign rand_sets[35]: 635  LLC: 2048
rand_sets[35]: 635
Assign rand_sets[36]: 466  LLC: 2048
rand_sets[36]: 466
Assign rand_sets[37]: 1413  LLC: 2048
rand_sets[37]: 1413
Assign rand_sets[38]: 417  LLC: 2048
rand_sets[38]: 417
Assign rand_sets[39]: 472  LLC: 2048
rand_sets[39]: 472
Assign rand_sets[40]: 1340  LLC: 2048
rand_sets[40]: 1340
Assign rand_sets[41]: 852  LLC: 2048
rand_sets[41]: 852
Assign rand_sets[42]: 1365  LLC: 2048
rand_sets[42]: 1365
Assign rand_sets[43]: 47  LLC: 2048
rand_sets[43]: 47
Assign rand_sets[44]: 823  LLC: 2048
rand_sets[44]: 823
Assign rand_sets[45]: 686  LLC: 2048
rand_sets[45]: 686
Assign rand_sets[46]: 1637  LLC: 2048
rand_sets[46]: 1637
Assign rand_sets[47]: 1115  LLC: 2048
rand_sets[47]: 1115
Assign rand_sets[48]: 986  LLC: 2048
rand_sets[48]: 986
Assign rand_sets[49]: 258  LLC: 2048
rand_sets[49]: 258
Assign rand_sets[50]: 633  LLC: 2048
rand_sets[50]: 633
Assign rand_sets[51]: 920  LLC: 2048
rand_sets[51]: 920
Assign rand_sets[52]: 204  LLC: 2048
rand_sets[52]: 204
Assign rand_sets[53]: 227  LLC: 2048
rand_sets[53]: 227
Assign rand_sets[54]: 1818  LLC: 2048
rand_sets[54]: 1818
Assign rand_sets[55]: 886  LLC: 2048
rand_sets[55]: 886
Assign rand_sets[56]: 1422  LLC: 2048
rand_sets[56]: 1422
Assign rand_sets[57]: 607  LLC: 2048
rand_sets[57]: 607
Assign rand_sets[58]: 217  LLC: 2048
rand_sets[58]: 217
Assign rand_sets[59]: 1945  LLC: 2048
rand_sets[59]: 1945
Assign rand_sets[60]: 143  LLC: 2048
rand_sets[60]: 143
Assign rand_sets[61]: 1311  LLC: 2048
rand_sets[61]: 1311
Assign rand_sets[62]: 319  LLC: 2048
rand_sets[62]: 319
Assign rand_sets[63]: 1846  LLC: 2048
rand_sets[63]: 1846
 CLEAN-RRIP-POLICY-1: 2-3-2-3-0-2-0-1- CLEAN-RRIP-POLICY-2: 2-3-2-3-0-2-0-1-
 DIRTY-RRIP-POLICY-1: 0-3-2-3-1-2-1-1- DIRTY-RRIP-POLICY-2: 0-3-2-3-1-2-1-1-
 PSEL width: 10
Heartbeat CPU 0 instructions: 10000001 cycles: 7316002 heartbeat IPC: 1.36687 cumulative IPC: 1.36687 (Simulation time: 0 hr 0 min 15 sec) 
Heartbeat CPU 0 instructions: 20000000 cycles: 14307777 heartbeat IPC: 1.43025 cumulative IPC: 1.39784 (Simulation time: 0 hr 0 min 30 sec) 
Heartbeat CPU 0 instructions: 30000001 cycles: 21021076 heartbeat IPC: 1.48958 cumulative IPC: 1.42714 (Simulation time: 0 hr 0 min 46 sec) 
Heartbeat CPU 0 instructions: 40000000 cycles: 27482037 heartbeat IPC: 1.54776 cumulative IPC: 1.4555 (Simulation time: 0 hr 1 min 2 sec) 
Heartbeat CPU 0 instructions: 50000001 cycles: 33583804 heartbeat IPC: 1.63887 cumulative IPC: 1.48881 (Simulation time: 0 hr 1 min 17 sec) 
Heartbeat CPU 0 instructions: 60000000 cycles: 40065052 heartbeat IPC: 1.54291 cumulative IPC: 1.49756 (Simulation time: 0 hr 1 min 33 sec) 
Heartbeat CPU 0 instructions: 70000000 cycles: 47104767 heartbeat IPC: 1.42051 cumulative IPC: 1.48605 (Simulation time: 0 hr 1 min 48 sec) 
Heartbeat CPU 0 instructions: 80000000 cycles: 54196194 heartbeat IPC: 1.41015 cumulative IPC: 1.47612 (Simulation time: 0 hr 2 min 3 sec) 
Heartbeat CPU 0 instructions: 90000003 cycles: 61202460 heartbeat IPC: 1.42729 cumulative IPC: 1.47053 (Simulation time: 0 hr 2 min 18 sec) 
Heartbeat CPU 0 instructions: 100000000 cycles: 68371688 heartbeat IPC: 1.39485 cumulative IPC: 1.46259 (Simulation time: 0 hr 2 min 32 sec) 

Warmup complete CPU 0 instructions: 100000004 cycles: 68371689 (Simulation time: 0 hr 2 min 32 sec) 

Heartbeat CPU 0 instructions: 110000003 cycles: 96425010 heartbeat IPC: 0.356464 cumulative IPC: 0.356464 (Simulation time: 0 hr 3 min 1 sec) 
Heartbeat CPU 0 instructions: 120000000 cycles: 124003513 heartbeat IPC: 0.362601 cumulative IPC: 0.359506 (Simulation time: 0 hr 3 min 30 sec) 
Heartbeat CPU 0 instructions: 130000000 cycles: 149086652 heartbeat IPC: 0.398674 cumulative IPC: 0.371678 (Simulation time: 0 hr 3 min 59 sec) 
Heartbeat CPU 0 instructions: 140000000 cycles: 179193446 heartbeat IPC: 0.332151 cumulative IPC: 0.36094 (Simulation time: 0 hr 4 min 27 sec) 
Heartbeat CPU 0 instructions: 150000000 cycles: 209502609 heartbeat IPC: 0.329933 cumulative IPC: 0.354281 (Simulation time: 0 hr 4 min 56 sec) 
Heartbeat CPU 0 instructions: 160000000 cycles: 237033355 heartbeat IPC: 0.36323 cumulative IPC: 0.355742 (Simulation time: 0 hr 5 min 24 sec) 
Heartbeat CPU 0 instructions: 170000001 cycles: 265258585 heartbeat IPC: 0.354293 cumulative IPC: 0.355534 (Simulation time: 0 hr 5 min 54 sec) 
Heartbeat CPU 0 instructions: 180000000 cycles: 293939188 heartbeat IPC: 0.348668 cumulative IPC: 0.354661 (Simulation time: 0 hr 6 min 23 sec) 
Heartbeat CPU 0 instructions: 190000002 cycles: 322255903 heartbeat IPC: 0.353148 cumulative IPC: 0.354492 (Simulation time: 0 hr 6 min 52 sec) 
Heartbeat CPU 0 instructions: 200000000 cycles: 350871867 heartbeat IPC: 0.349455 cumulative IPC: 0.353982 (Simulation time: 0 hr 7 min 22 sec) 
Heartbeat CPU 0 instructions: 210000002 cycles: 378993720 heartbeat IPC: 0.355595 cumulative IPC: 0.354128 (Simulation time: 0 hr 7 min 51 sec) 
Heartbeat CPU 0 instructions: 220000000 cycles: 408789240 heartbeat IPC: 0.335621 cumulative IPC: 0.352508 (Simulation time: 0 hr 8 min 18 sec) 
Heartbeat CPU 0 instructions: 230000000 cycles: 436711677 heartbeat IPC: 0.358135 cumulative IPC: 0.352935 (Simulation time: 0 hr 8 min 46 sec) 
Heartbeat CPU 0 instructions: 240000000 cycles: 462891811 heartbeat IPC: 0.381969 cumulative IPC: 0.354861 (Simulation time: 0 hr 9 min 14 sec) 
Heartbeat CPU 0 instructions: 250000000 cycles: 493264192 heartbeat IPC: 0.329246 cumulative IPC: 0.35303 (Simulation time: 0 hr 9 min 44 sec) 
Heartbeat CPU 0 instructions: 260000000 cycles: 520504576 heartbeat IPC: 0.367102 cumulative IPC: 0.353878 (Simulation time: 0 hr 10 min 12 sec) 
Heartbeat CPU 0 instructions: 270000003 cycles: 549173411 heartbeat IPC: 0.348811 cumulative IPC: 0.353576 (Simulation time: 0 hr 10 min 42 sec) 
Heartbeat CPU 0 instructions: 280000000 cycles: 577668405 heartbeat IPC: 0.350939 cumulative IPC: 0.353429 (Simulation time: 0 hr 11 min 12 sec) 
Heartbeat CPU 0 instructions: 290000000 cycles: 606806266 heartbeat IPC: 0.343196 cumulative IPC: 0.352875 (Simulation time: 0 hr 11 min 42 sec) 
Heartbeat CPU 0 instructions: 300000000 cycles: 637542158 heartbeat IPC: 0.325353 cumulative IPC: 0.351389 (Simulation time: 0 hr 12 min 10 sec) 
Heartbeat CPU 0 instructions: 310000001 cycles: 667475259 heartbeat IPC: 0.334078 cumulative IPC: 0.350524 (Simulation time: 0 hr 12 min 39 sec) 
Heartbeat CPU 0 instructions: 320000000 cycles: 696339378 heartbeat IPC: 0.346451 cumulative IPC: 0.350336 (Simulation time: 0 hr 13 min 7 sec) 
Heartbeat CPU 0 instructions: 330000000 cycles: 725448393 heartbeat IPC: 0.343536 cumulative IPC: 0.350035 (Simulation time: 0 hr 13 min 36 sec) 
Heartbeat CPU 0 instructions: 340000000 cycles: 755252123 heartbeat IPC: 0.335528 cumulative IPC: 0.349406 (Simulation time: 0 hr 14 min 5 sec) 
Heartbeat CPU 0 instructions: 350000003 cycles: 782603304 heartbeat IPC: 0.365615 cumulative IPC: 0.350027 (Simulation time: 0 hr 14 min 33 sec) 
Heartbeat CPU 0 instructions: 360000000 cycles: 812027214 heartbeat IPC: 0.33986 cumulative IPC: 0.349624 (Simulation time: 0 hr 15 min 1 sec) 
Heartbeat CPU 0 instructions: 370000000 cycles: 841271511 heartbeat IPC: 0.341947 cumulative IPC: 0.349334 (Simulation time: 0 hr 15 min 29 sec) 
Heartbeat CPU 0 instructions: 380000000 cycles: 870658629 heartbeat IPC: 0.340285 cumulative IPC: 0.349002 (Simulation time: 0 hr 15 min 57 sec) 
Heartbeat CPU 0 instructions: 390000001 cycles: 898957784 heartbeat IPC: 0.353367 cumulative IPC: 0.349151 (Simulation time: 0 hr 16 min 24 sec) 
Heartbeat CPU 0 instructions: 400000000 cycles: 928305381 heartbeat IPC: 0.340743 cumulative IPC: 0.348864 (Simulation time: 0 hr 16 min 52 sec) 
Heartbeat CPU 0 instructions: 410000001 cycles: 956116449 heartbeat IPC: 0.359569 cumulative IPC: 0.349199 (Simulation time: 0 hr 17 min 19 sec) 
Heartbeat CPU 0 instructions: 420000000 cycles: 983865612 heartbeat IPC: 0.360371 cumulative IPC: 0.349538 (Simulation time: 0 hr 17 min 47 sec) 
Heartbeat CPU 0 instructions: 430000002 cycles: 1012065112 heartbeat IPC: 0.354616 cumulative IPC: 0.34969 (Simulation time: 0 hr 18 min 14 sec) 
Heartbeat CPU 0 instructions: 440000000 cycles: 1042265354 heartbeat IPC: 0.331123 cumulative IPC: 0.349114 (Simulation time: 0 hr 18 min 42 sec) 
Heartbeat CPU 0 instructions: 450000002 cycles: 1072203512 heartbeat IPC: 0.334022 cumulative IPC: 0.348664 (Simulation time: 0 hr 19 min 10 sec) 
Heartbeat CPU 0 instructions: 460000000 cycles: 1100404459 heartbeat IPC: 0.354598 cumulative IPC: 0.348826 (Simulation time: 0 hr 19 min 37 sec) 
Heartbeat CPU 0 instructions: 470000000 cycles: 1128345869 heartbeat IPC: 0.357892 cumulative IPC: 0.349065 (Simulation time: 0 hr 20 min 5 sec) 
Heartbeat CPU 0 instructions: 480000000 cycles: 1156525852 heartbeat IPC: 0.354862 cumulative IPC: 0.349215 (Simulation time: 0 hr 20 min 32 sec) 
Heartbeat CPU 0 instructions: 490000000 cycles: 1184398149 heartbeat IPC: 0.358779 cumulative IPC: 0.349454 (Simulation time: 0 hr 20 min 59 sec) 
Heartbeat CPU 0 instructions: 500000000 cycles: 1212960947 heartbeat IPC: 0.350106 cumulative IPC: 0.34947 (Simulation time: 0 hr 21 min 27 sec) 
Heartbeat CPU 0 instructions: 510000000 cycles: 1248090151 heartbeat IPC: 0.284663 cumulative IPC: 0.347541 (Simulation time: 0 hr 21 min 58 sec) 
Heartbeat CPU 0 instructions: 520000000 cycles: 1276355774 heartbeat IPC: 0.353787 cumulative IPC: 0.347687 (Simulation time: 0 hr 22 min 26 sec) 
Heartbeat CPU 0 instructions: 530000001 cycles: 1306896298 heartbeat IPC: 0.327434 cumulative IPC: 0.347187 (Simulation time: 0 hr 22 min 55 sec) 
Heartbeat CPU 0 instructions: 540000000 cycles: 1335751723 heartbeat IPC: 0.346555 cumulative IPC: 0.347173 (Simulation time: 0 hr 23 min 23 sec) 
Heartbeat CPU 0 instructions: 550000001 cycles: 1365301737 heartbeat IPC: 0.338409 cumulative IPC: 0.346973 (Simulation time: 0 hr 23 min 53 sec) 
Heartbeat CPU 0 instructions: 560000000 cycles: 1391001984 heartbeat IPC: 0.389101 cumulative IPC: 0.347792 (Simulation time: 0 hr 24 min 21 sec) 
Heartbeat CPU 0 instructions: 570000000 cycles: 1421426942 heartbeat IPC: 0.328678 cumulative IPC: 0.347362 (Simulation time: 0 hr 24 min 50 sec) 
Heartbeat CPU 0 instructions: 580000000 cycles: 1450091495 heartbeat IPC: 0.348863 cumulative IPC: 0.347393 (Simulation time: 0 hr 25 min 19 sec) 
Heartbeat CPU 0 instructions: 590000001 cycles: 1475176750 heartbeat IPC: 0.398641 cumulative IPC: 0.348307 (Simulation time: 0 hr 25 min 46 sec) 
Heartbeat CPU 0 instructions: 600000000 cycles: 1501875502 heartbeat IPC: 0.374549 cumulative IPC: 0.348796 (Simulation time: 0 hr 26 min 13 sec) 
Finished CPU 0 instructions: 500000000 cycles: 1433503835 cumulative IPC: 0.348796 (Simulation time: 0 hr 26 min 13 sec) 

CPU 0 Branch Prediction Accuracy: 86.4311% MPKI: 26.2662
Number of Branches: 96788573 Number of Mispredictions: 13133102
Number of LOAD Instructions: 164682285
Number of LOAD Instructions (ROI): 164682285
Number of STORE Instructions: 78194750
Number of STORE Instructions (ROI): 78194750
Total Destination Memory Operands: 83268534
Total Destination Memory Operands (ROI): 83268534
Total Source Memory Operands: 164712438
Total Source Memory Operands (ROI): 164712438
Number of DEPENDED LOADS: 7055584
Number of DEPENDED LOADS (ROI): 7055584
Number of SQ_ADDED: 83268522
Number of SQ_ADDED (ROI): 83268522
Number of LQ_ADDED: 236833122
Number of LQ_ADDED (ROI): 236833122
Number of Instructions read from trace: 600000066

ChampSim completed all CPUs

Region of Interest Statistics

CPU 0 cumulative IPC: 0.348796 instructions: 500000000 cycles: 1433503835
ITLB TOTAL     ACCESS:  100528850  HIT:  100324404  MISS:     204446
ITLB LOAD      ACCESS:  100528850  HIT:  100324404  MISS:     204446
ITLB RFO       ACCESS:          0  HIT:          0  MISS:          0
ITLB PREFETCH  ACCESS:          0  HIT:          0  MISS:          0
ITLB WRITEBACK ACCESS:          0  HIT:          0  MISS:          0
ITLB PREFETCH  REQUESTED:          0  ISSUED:          0  USEFUL:          0  USELESS:          0
ITLB TOTAL MSHR MERGED:     172424
ITLB LOAD MSHR MERGED:     172424
ITLB RFO MSHR MERGED:          0
ITLB PREFETCH MSHR MERGED:          0
ITLB WRITEBACK MSHR MERGED:          0
ITLB TOTAL ACCESSES:  100701274 HITS:  100324404 MISSES:     376870
ITLB LOAD ACCESSES:  100701274 HITS:  100324404 MISSES:     376870
ITLB RFO ACCESSES:          0 HITS:          0 MISSES:          0
ITLB PREFETCH ACCESSES:          0 HITS:          0 MISSES:          0
ITLB WRITEBACK ACCESSES:          0 HITS:          0 MISSES:          0
ITLB RQ ACCESS:  500000057
ITLB RQ TO_CACHE:  100701274
ITLB RQ MERGED:  399298783
ITLB RQ FORWARD:          0
ITLB WQ ACCESS:          0
ITLB WQ TO_CACHE:          0
ITLB WQ MERGED:          0
ITLB WQ FORWARD:          0
DTLB TOTAL     ACCESS:  165346357  HIT:  164712002  MISS:     634355
DTLB LOAD      ACCESS:  106298847  HIT:  105728845  MISS:     570002
DTLB RFO       ACCESS:   59047510  HIT:   58983157  MISS:      64353
DTLB PREFETCH  ACCESS:          0  HIT:          0  MISS:          0
DTLB WRITEBACK ACCESS:          0  HIT:          0  MISS:          0
DTLB PREFETCH  REQUESTED:          0  ISSUED:          0  USEFUL:          0  USELESS:          0
DTLB TOTAL MSHR MERGED:      99831
DTLB LOAD MSHR MERGED:      59351
DTLB RFO MSHR MERGED:      40480
DTLB PREFETCH MSHR MERGED:          0
DTLB WRITEBACK MSHR MERGED:          0
DTLB TOTAL ACCESSES:  165446188 HITS:  164712002 MISSES:     734186
DTLB LOAD ACCESSES:  106358198 HITS:  105728845 MISSES:     629353
DTLB RFO ACCESSES:   59087990 HITS:   58983157 MISSES:     104833
DTLB PREFETCH ACCESSES:          0 HITS:          0 MISSES:          0
DTLB WRITEBACK ACCESSES:          0 HITS:          0 MISSES:          0
DTLB RQ ACCESS:  200315308
DTLB RQ TO_CACHE:  165446188
DTLB RQ MERGED:   34869120
DTLB RQ FORWARD:          0
DTLB WQ ACCESS:          0
DTLB WQ TO_CACHE:          0
DTLB WQ MERGED:          0
DTLB WQ FORWARD:          0
L1D TOTAL     ACCESS:  281831902  HIT:  273922581  MISS:    7909321
L1D LOAD      ACCESS:  110422074  HIT:  107139464  MISS:    3282610
L1D RFO       ACCESS:   67130649  HIT:   66240481  MISS:     890168
L1D PREFETCH  ACCESS:  104279179  HIT:  100542636  MISS:    3736543
L1D WRITEBACK ACCESS:          0  HIT:          0  MISS:          0
L1D PREFETCH  REQUESTED:  110826436  ISSUED:  109127093  USEFUL:    1657191  USELESS:    2079316
L1D TOTAL MSHR MERGED:    2893718
L1D LOAD MSHR MERGED:     506673
L1D RFO MSHR MERGED:    1854720
L1D PREFETCH MSHR MERGED:     532325
L1D WRITEBACK MSHR MERGED:          0
L1D TOTAL ACCESSES:  284753038 HITS:  273949999 MISSES:   10803039
L1D LOAD ACCESSES:  110827880 HITS:  107140908 MISSES:    3686972
L1D RFO ACCESSES:   68973937 HITS:   66240481 MISSES:    2733456
L1D PREFETCH ACCESSES:  104951221 HITS:  100568610 MISSES:    4382611
L1D WRITEBACK ACCESSES:          0 HITS:          0 MISSES:          0
L1D RQ ACCESS:  130762705
L1D RQ TO_CACHE:  110826439
L1D RQ MERGED:   19934822
L1D RQ FORWARD:          0
L1D WQ ACCESS:   69552603
L1D WQ TO_CACHE:   68973938
L1D WQ MERGED:     578665
L1D WQ FORWARD:      27418
L1I TOTAL     ACCESS:  126574783  HIT:  122336232  MISS:    4238551
L1I LOAD      ACCESS:  126574783  HIT:  122336232  MISS:    4238551
L1I RFO       ACCESS:          0  HIT:          0  MISS:          0
L1I PREFETCH  ACCESS:          0  HIT:          0  MISS:          0
L1I WRITEBACK ACCESS:          0  HIT:          0  MISS:          0
L1I PREFETCH  REQUESTED:          0  ISSUED:          0  USEFUL:          0  USELESS:          0
L1I TOTAL MSHR MERGED:    1835826
L1I LOAD MSHR MERGED:    1835826
L1I RFO MSHR MERGED:          0
L1I PREFETCH MSHR MERGED:          0
L1I WRITEBACK MSHR MERGED:          0
L1I TOTAL ACCESSES:  128410612 HITS:  122336232 MISSES:    6074380
L1I LOAD ACCESSES:  128410612 HITS:  122336232 MISSES:    6074380
L1I RFO ACCESSES:          0 HITS:          0 MISSES:          0
L1I PREFETCH ACCESSES:          0 HITS:          0 MISSES:          0
L1I WRITEBACK ACCESSES:          0 HITS:          0 MISSES:          0
L1I RQ ACCESS:  500000057
L1I RQ TO_CACHE:  128410612
L1I RQ MERGED:  371589445
L1I RQ FORWARD:          0
L1I WQ ACCESS:          0
L1I WQ TO_CACHE:          0
L1I WQ MERGED:          0
L1I WQ FORWARD:          0
L2C TOTAL     ACCESS:   14905428  HIT:   11158963  MISS:    3746465
L2C LOAD      ACCESS:    7418640  HIT:    5098858  MISS:    2319782
L2C RFO       ACCESS:     878642  HIT:     409902  MISS:     468740
L2C PREFETCH  ACCESS:    4568892  HIT:    3628209  MISS:     940683
L2C WRITEBACK ACCESS:    2039254  HIT:    2021994  MISS:      17260
L2C PREFETCH  REQUESTED:     842611  ISSUED:     842611  USEFUL:     203515  USELESS:     736874
L2C TOTAL MSHR MERGED:       6730
L2C LOAD MSHR MERGED:        665
L2C RFO MSHR MERGED:          0
L2C PREFETCH MSHR MERGED:       6065
L2C WRITEBACK MSHR MERGED:          0
L2C TOTAL ACCESSES:   14913075 HITS:   11159410 MISSES:    3753665
L2C LOAD ACCESSES:    7418850 HITS:    5099068 MISSES:    2319782
L2C RFO ACCESSES:     878736 HITS:     409996 MISSES:     468740
L2C PREFETCH ACCESSES:    4576235 HITS:    3628352 MISSES:     947883
L2C WRITEBACK ACCESSES:    2039254 HITS:    2021994 MISSES:      17260
L2C RQ ACCESS:    8297589
L2C RQ TO_CACHE:    8297285
L2C RQ MERGED:          0
L2C RQ FORWARD:          0
L2C WQ ACCESS:    2039254
L2C WQ TO_CACHE:    2039254
L2C WQ MERGED:          0
L2C WQ FORWARD:        447
LLC TOTAL     ACCESS:    4609826  HIT:    3661146  MISS:     948680
LLC LOAD      ACCESS:    2319103  HIT:    1868293  MISS:     450810
LLC RFO       ACCESS:     468734  HIT:     420504  MISS:      48230
LLC PREFETCH  ACCESS:     941703  HIT:     555591  MISS:     386112
LLC WRITEBACK ACCESS:     880286  HIT:     816758  MISS:      63528
LLC PREFETCH  REQUESTED:          0  ISSUED:          0  USEFUL:      11481  USELESS:     374143
LLC TOTAL MSHR MERGED:         96
LLC LOAD MSHR MERGED:         34
LLC RFO MSHR MERGED:          0
LLC PREFETCH MSHR MERGED:         62
LLC WRITEBACK MSHR MERGED:          0
LLC TOTAL ACCESSES:    4609955 HITS:    3661179 MISSES:     948776
LLC LOAD ACCESSES:    2319117 HITS:    1868307 MISSES:     450810
LLC RFO ACCESSES:     468740 HITS:     420510 MISSES:      48230
LLC PREFETCH ACCESSES:     941812 HITS:     555604 MISSES:     386208
LLC WRITEBACK ACCESSES:     880286 HITS:     816758 MISSES:      63528
LLC 0 RQ ACCESS:    2787857
LLC 0 RQ TO_CACHE:    2787837
LLC 0 RQ MERGED:          0
LLC 0 RQ FORWARD:          0
LLC WQ ACCESS:     880286
LLC WQ TO_CACHE:     880286
LLC WQ MERGED:          0
LLC WQ FORWARD:         33
Major fault: 0 Minor fault: 12862
CPU 0 L1D next line prefetcher final stats
CPU 0 L2C PC-based stride prefetcher final stats
All Misses: 1094441
All Hits: 4332391
SD Algo Stats - Switches: 0 SRR-Repls: 502482 BRR-Repls: 0

DRAM Statistics
 CHANNEL 0
 RQ ROW_BUFFER_HIT:     190888  ROW_BUFFER_MISS:     690821
 DBUS_CONGESTED:     361705
 WQ ROW_BUFFER_HIT:      11060  ROW_BUFFER_MISS:     154044  FULL:          0

 AVG_CONGESTED_CYCLE: 13
LOADS RETIRED: 136549171
INSTR RETIRED: 500000000
