
*** ChampSim Multicore Out-of-Order Simulator ***

Warmup Instructions: 100000000
Simulation Instructions: 100000000
Number of CPUs: 1
LLC sets: 2048
LLC ways: 16
Clean RRIP Policies: 0 Dirty RRIP Policies: 0 PSEL Width: 10 Track Set: 4294967295 PSEL Mask: 15 Demote Mask: 0DS Algo: 0Window size: 64
Off-chip DRAM Size: 4096 MB Channels: 1 Width: 64-bit Data Rate: 1600 MT/s

CPU 0 runs /mnt/beegfs/iconst01/spec2017/cactuBSSN.trace.gz
NOT SORTED
TRACE STRING: /mnt/beegfs/iconst01/spec2017/cactuBSSN.trace.gz
SORTED
TRACE STRING: /mnt/beegfs/iconst01/spec2017/cactuBSSN.trace.gz
INITIAL
TRACE STRING: /mnt/beegfs/iconst01/spec2017/cactuBSSN.trace.gz

champsim_seed used: 838

CPU 0 L1D next line prefetcher
CPU 0 L2C IP-based stride prefetcher
Heartbeat CPU 0 instructions: 10000000 cycles: 6587903 heartbeat IPC: 1.51793 cumulative IPC: 1.51793 (Simulation time: 0 hr 0 min 29 sec) 
Heartbeat CPU 0 instructions: 20000000 cycles: 13179347 heartbeat IPC: 1.51712 cumulative IPC: 1.51753 (Simulation time: 0 hr 0 min 59 sec) 
Heartbeat CPU 0 instructions: 30000003 cycles: 19772519 heartbeat IPC: 1.51672 cumulative IPC: 1.51726 (Simulation time: 0 hr 1 min 28 sec) 
Heartbeat CPU 0 instructions: 40000000 cycles: 26364002 heartbeat IPC: 1.51711 cumulative IPC: 1.51722 (Simulation time: 0 hr 1 min 57 sec) 
Heartbeat CPU 0 instructions: 50000001 cycles: 32956426 heartbeat IPC: 1.51689 cumulative IPC: 1.51715 (Simulation time: 0 hr 2 min 26 sec) 
Heartbeat CPU 0 instructions: 60000000 cycles: 39554896 heartbeat IPC: 1.5155 cumulative IPC: 1.51688 (Simulation time: 0 hr 2 min 55 sec) 
Heartbeat CPU 0 instructions: 70000003 cycles: 46153077 heartbeat IPC: 1.51557 cumulative IPC: 1.51669 (Simulation time: 0 hr 3 min 24 sec) 
Heartbeat CPU 0 instructions: 80000000 cycles: 52751006 heartbeat IPC: 1.51563 cumulative IPC: 1.51656 (Simulation time: 0 hr 3 min 53 sec) 
Heartbeat CPU 0 instructions: 90000002 cycles: 59346261 heartbeat IPC: 1.51624 cumulative IPC: 1.51652 (Simulation time: 0 hr 4 min 22 sec) 
Heartbeat CPU 0 instructions: 100000000 cycles: 65940962 heartbeat IPC: 1.51637 cumulative IPC: 1.51651 (Simulation time: 0 hr 4 min 52 sec) 

Warmup complete CPU 0 instructions: 100000002 cycles: 65940963 (Simulation time: 0 hr 4 min 52 sec) 

Heartbeat CPU 0 instructions: 110000000 cycles: 79094881 heartbeat IPC: 0.76023 cumulative IPC: 0.76023 (Simulation time: 0 hr 5 min 27 sec) 
Heartbeat CPU 0 instructions: 120000000 cycles: 92216169 heartbeat IPC: 0.76212 cumulative IPC: 0.761174 (Simulation time: 0 hr 6 min 2 sec) 
Heartbeat CPU 0 instructions: 130000001 cycles: 105412299 heartbeat IPC: 0.757798 cumulative IPC: 0.760045 (Simulation time: 0 hr 6 min 36 sec) 
Heartbeat CPU 0 instructions: 140000000 cycles: 118511462 heartbeat IPC: 0.763407 cumulative IPC: 0.760883 (Simulation time: 0 hr 7 min 10 sec) 
Heartbeat CPU 0 instructions: 150000001 cycles: 131611839 heartbeat IPC: 0.763337 cumulative IPC: 0.761373 (Simulation time: 0 hr 7 min 44 sec) 
Heartbeat CPU 0 instructions: 160000000 cycles: 144773476 heartbeat IPC: 0.759784 cumulative IPC: 0.761107 (Simulation time: 0 hr 8 min 17 sec) 
Heartbeat CPU 0 instructions: 170000000 cycles: 157888459 heartbeat IPC: 0.762487 cumulative IPC: 0.761304 (Simulation time: 0 hr 8 min 49 sec) 
Heartbeat CPU 0 instructions: 180000000 cycles: 171006217 heartbeat IPC: 0.762325 cumulative IPC: 0.761432 (Simulation time: 0 hr 9 min 22 sec) 
Heartbeat CPU 0 instructions: 190000000 cycles: 184106938 heartbeat IPC: 0.763317 cumulative IPC: 0.761641 (Simulation time: 0 hr 9 min 54 sec) 
Heartbeat CPU 0 instructions: 200000000 cycles: 197277163 heartbeat IPC: 0.759288 cumulative IPC: 0.761405 (Simulation time: 0 hr 10 min 27 sec) 
Finished CPU 0 instructions: 100000000 cycles: 131336230 cumulative IPC: 0.761405 (Simulation time: 0 hr 10 min 27 sec) 

CPU 0 Branch Prediction Accuracy: 99.968% MPKI: 0.00225
Number of Branches: 702664 Number of Mispredictions: 225
Number of LOAD Instructions: 95750461
Number of LOAD Instructions (ROI): 95750461
Number of STORE Instructions: 17020309
Number of STORE Instructions (ROI): 17020309
Total Destination Memory Operands: 17055444
Total Destination Memory Operands (ROI): 17055444
Total Source Memory Operands: 95750461
Total Source Memory Operands (ROI): 95750461
Number of DEPENDED LOADS: 3206749
Number of DEPENDED LOADS (ROI): 3206749
Number of SQ_ADDED: 17055432
Number of SQ_ADDED (ROI): 17055432
Number of LQ_ADDED: 96874567
Number of LQ_ADDED (ROI): 96874567
Number of Instructions read from trace: 200000257

ChampSim completed all CPUs

Region of Interest Statistics

CPU 0 cumulative IPC: 0.761405 instructions: 100000000 cycles: 131336230
ITLB TOTAL     ACCESS:   21795717  HIT:   21795717  MISS:          0
ITLB LOAD      ACCESS:   21795717  HIT:   21795717  MISS:          0
ITLB RFO       ACCESS:          0  HIT:          0  MISS:          0
ITLB PREFETCH  ACCESS:          0  HIT:          0  MISS:          0
ITLB WRITEBACK ACCESS:          0  HIT:          0  MISS:          0
ITLB PREFETCH  REQUESTED:          0  ISSUED:          0  USEFUL:          0  USELESS:          0
ITLB TOTAL MSHR MERGED:          0
ITLB LOAD MSHR MERGED:          0
ITLB RFO MSHR MERGED:          0
ITLB PREFETCH MSHR MERGED:          0
ITLB WRITEBACK MSHR MERGED:          0
ITLB TOTAL ACCESSES:   21795717 HITS:   21795717 MISSES:          0
ITLB LOAD ACCESSES:   21795717 HITS:   21795717 MISSES:          0
ITLB RFO ACCESSES:          0 HITS:          0 MISSES:          0
ITLB PREFETCH ACCESSES:          0 HITS:          0 MISSES:          0
ITLB WRITEBACK ACCESSES:          0 HITS:          0 MISSES:          0
ITLB RQ ACCESS:  100000001
ITLB RQ TO_CACHE:   21795717
ITLB RQ MERGED:   78204284
ITLB RQ FORWARD:          0
ITLB WQ ACCESS:          0
ITLB WQ TO_CACHE:          0
ITLB WQ MERGED:          0
ITLB WQ FORWARD:          0
DTLB TOTAL     ACCESS:   34226391  HIT:   32225080  MISS:    2001311
DTLB LOAD      ACCESS:   28698093  HIT:   27124832  MISS:    1573261
DTLB RFO       ACCESS:    5528298  HIT:    5100248  MISS:     428050
DTLB PREFETCH  ACCESS:          0  HIT:          0  MISS:          0
DTLB WRITEBACK ACCESS:          0  HIT:          0  MISS:          0
DTLB PREFETCH  REQUESTED:          0  ISSUED:          0  USEFUL:          0  USELESS:          0
DTLB TOTAL MSHR MERGED:      71911
DTLB LOAD MSHR MERGED:      71911
DTLB RFO MSHR MERGED:          0
DTLB PREFETCH MSHR MERGED:          0
DTLB WRITEBACK MSHR MERGED:          0
DTLB TOTAL ACCESSES:   34298304 HITS:   32225080 MISSES:    2073224
DTLB LOAD ACCESSES:   28770006 HITS:   27124832 MISSES:    1645174
DTLB RFO ACCESSES:    5528298 HITS:    5100248 MISSES:     428050
DTLB PREFETCH ACCESSES:          0 HITS:          0 MISSES:          0
DTLB WRITEBACK ACCESSES:          0 HITS:          0 MISSES:          0
DTLB RQ ACCESS:   54809568
DTLB RQ TO_CACHE:   34298304
DTLB RQ MERGED:   20511264
DTLB RQ FORWARD:          0
DTLB WQ ACCESS:          0
DTLB WQ TO_CACHE:          0
DTLB WQ MERGED:          0
DTLB WQ FORWARD:          0
L1D TOTAL     ACCESS:   70183987  HIT:   56750804  MISS:   13433183
L1D LOAD      ACCESS:   35127819  HIT:   28522324  MISS:    6605495
L1D RFO       ACCESS:    8404500  HIT:    7843353  MISS:     561147
L1D PREFETCH  ACCESS:   26651668  HIT:   20385127  MISS:    6266541
L1D WRITEBACK ACCESS:          0  HIT:          0  MISS:          0
L1D PREFETCH  REQUESTED:   35247508  ISSUED:   35058106  USEFUL:     434558  USELESS:    5831968
L1D TOTAL MSHR MERGED:     296560
L1D LOAD MSHR MERGED:     139557
L1D RFO MSHR MERGED:      69648
L1D PREFETCH MSHR MERGED:      87355
L1D WRITEBACK MSHR MERGED:          0
L1D TOTAL ACCESSES:   70504357 HITS:   56774614 MISSES:   13729743
L1D LOAD ACCESSES:   35249034 HITS:   28523850 MISSES:    6725184
L1D RFO ACCESSES:    8474024 HITS:    7843353 MISSES:     630671
L1D PREFETCH ACCESSES:   26781299 HITS:   20407411 MISSES:    6373888
L1D WRITEBACK ACCESSES:          0 HITS:          0 MISSES:          0
L1D RQ ACCESS:   46281841
L1D RQ TO_CACHE:   35247513
L1D RQ MERGED:   11032802
L1D RQ FORWARD:          0
L1D WQ ACCESS:    8527699
L1D WQ TO_CACHE:    8474024
L1D WQ MERGED:      53675
L1D WQ FORWARD:      23810
L1I TOTAL     ACCESS:   21869308  HIT:   15566183  MISS:    6303125
L1I LOAD      ACCESS:   21869308  HIT:   15566183  MISS:    6303125
L1I RFO       ACCESS:          0  HIT:          0  MISS:          0
L1I PREFETCH  ACCESS:          0  HIT:          0  MISS:          0
L1I WRITEBACK ACCESS:          0  HIT:          0  MISS:          0
L1I PREFETCH  REQUESTED:          0  ISSUED:          0  USEFUL:          0  USELESS:          0
L1I TOTAL MSHR MERGED:    6152980
L1I LOAD MSHR MERGED:    6152980
L1I RFO MSHR MERGED:          0
L1I PREFETCH MSHR MERGED:          0
L1I WRITEBACK MSHR MERGED:          0
L1I TOTAL ACCESSES:   28022288 HITS:   15566183 MISSES:   12456105
L1I LOAD ACCESSES:   28022288 HITS:   15566183 MISSES:   12456105
L1I RFO ACCESSES:          0 HITS:          0 MISSES:          0
L1I PREFETCH ACCESSES:          0 HITS:          0 MISSES:          0
L1I WRITEBACK ACCESSES:          0 HITS:          0 MISSES:          0
L1I RQ ACCESS:  100000004
L1I RQ TO_CACHE:   28022288
L1I RQ MERGED:   71977716
L1I RQ FORWARD:          0
L1I WQ ACCESS:          0
L1I WQ TO_CACHE:          0
L1I WQ MERGED:          0
L1I WQ FORWARD:          0
L2C TOTAL     ACCESS:   22742104  HIT:   22111191  MISS:     630913
L2C LOAD      ACCESS:   12888355  HIT:   12764634  MISS:     123721
L2C RFO       ACCESS:     560602  HIT:     437262  MISS:     123340
L2C PREFETCH  ACCESS:    8660977  HIT:    8278591  MISS:     382386
L2C WRITEBACK ACCESS:     632170  HIT:     630704  MISS:       1466
L2C PREFETCH  REQUESTED:    3028375  ISSUED:    2923551  USEFUL:     350490  USELESS:      31858
L2C TOTAL MSHR MERGED:       2190
L2C LOAD MSHR MERGED:          0
L2C RFO MSHR MERGED:          0
L2C PREFETCH MSHR MERGED:       2190
L2C WRITEBACK MSHR MERGED:          0
L2C TOTAL ACCESSES:   22782240 HITS:   22112435 MISSES:     669805
L2C LOAD ACCESSES:   12888752 HITS:   12765031 MISSES:     123721
L2C RFO ACCESSES:     561023 HITS:     437683 MISSES:     123340
L2C PREFETCH ACCESSES:    8700295 HITS:    8279017 MISSES:     421278
L2C WRITEBACK ACCESSES:     632170 HITS:     630704 MISSES:       1466
L2C RQ ACCESS:   13449775
L2C RQ TO_CACHE:   13448957
L2C RQ MERGED:          0
L2C RQ FORWARD:          0
L2C WQ ACCESS:     632170
L2C WQ TO_CACHE:     632170
L2C WQ MERGED:          0
L2C WQ FORWARD:       1244
LLC TOTAL     ACCESS:     774774  HIT:     510804  MISS:     263970
LLC LOAD      ACCESS:     123716  HIT:     119197  MISS:       4519
LLC RFO       ACCESS:     107421  HIT:      49821  MISS:      57600
LLC PREFETCH  ACCESS:     418271  HIT:     216454  MISS:     201817
LLC WRITEBACK ACCESS:     125366  HIT:     125332  MISS:         34
LLC PREFETCH  REQUESTED:          0  ISSUED:          0  USEFUL:      20297  USELESS:     180886
LLC TOTAL MSHR MERGED:        713
LLC LOAD MSHR MERGED:          0
LLC RFO MSHR MERGED:          0
LLC PREFETCH MSHR MERGED:        713
LLC WRITEBACK MSHR MERGED:          0
LLC TOTAL ACCESSES:     791431 HITS:     526748 MISSES:     264683
LLC LOAD ACCESSES:     123721 HITS:     119202 MISSES:       4519
LLC RFO ACCESSES:     123340 HITS:      65740 MISSES:      57600
LLC PREFETCH ACCESSES:     419004 HITS:     216474 MISSES:     202530
LLC WRITEBACK ACCESSES:     125366 HITS:     125332 MISSES:         34
LLC 0 RQ ACCESS:     247061
LLC 0 RQ TO_CACHE:     231137
LLC 0 RQ MERGED:          0
LLC 0 RQ FORWARD:          0
LLC WQ ACCESS:     125366
LLC WQ TO_CACHE:     125366
LLC WQ MERGED:          0
LLC WQ FORWARD:      15944
Major fault: 0 Minor fault: 4899
CPU 0 L1D next line prefetcher final stats
CPU 0 L2C PC-based stride prefetcher final stats

DRAM Statistics
 CHANNEL 0
 RQ ROW_BUFFER_HIT:     143643  ROW_BUFFER_MISS:     120293
 DBUS_CONGESTED:     158384
 WQ ROW_BUFFER_HIT:      11081  ROW_BUFFER_MISS:      47019  FULL:          0

 AVG_CONGESTED_CYCLE: 13
LOADS RETIRED: 47875208
INSTR RETIRED: 100000000
