
*** ChampSim Multicore Out-of-Order Simulator ***

Warmup Instructions: 100000000
Simulation Instructions: 500000000
Number of CPUs: 1
LLC sets: 2048
LLC ways: 16
Clean RRIP Policies: 1013230110132301 Dirty RRIP Policies: 2023031120230311 PSEL Width: 10 Track Set: 4294967295 PSEL Mask: 1 Demote Mask: 4140013141400131DS Algo: 0Window size: 0
Off-chip DRAM Size: 4096 MB Channels: 1 Width: 64-bit Data Rate: 1600 MT/s

CPU 0 runs /mnt/beegfs/iconst01/spec2017/Xz.trace.gz
NOT SORTED
TRACE STRING: /mnt/beegfs/iconst01/spec2017/Xz.trace.gz
SORTED
TRACE STRING: /mnt/beegfs/iconst01/spec2017/Xz.trace.gz
INITIAL
TRACE STRING: /mnt/beegfs/iconst01/spec2017/Xz.trace.gz

champsim_seed used: 210

CPU 0 L1D next line prefetcher
CPU 0 L2C IP-based stride prefetcher
Initialize DRRIP state
Assign rand_sets[0]: 454  LLC: 2048
rand_sets[0]: 454
Assign rand_sets[1]: 1662  LLC: 2048
rand_sets[1]: 1662
Assign rand_sets[2]: 1921  LLC: 2048
rand_sets[2]: 1921
Assign rand_sets[3]: 1131  LLC: 2048
rand_sets[3]: 1131
Assign rand_sets[4]: 331  LLC: 2048
rand_sets[4]: 331
Assign rand_sets[5]: 1531  LLC: 2048
rand_sets[5]: 1531
Assign rand_sets[6]: 482  LLC: 2048
rand_sets[6]: 482
Assign rand_sets[7]: 1275  LLC: 2048
rand_sets[7]: 1275
Assign rand_sets[8]: 1876  LLC: 2048
rand_sets[8]: 1876
Assign rand_sets[9]: 2038  LLC: 2048
rand_sets[9]: 2038
Assign rand_sets[10]: 701  LLC: 2048
rand_sets[10]: 701
Assign rand_sets[11]: 479  LLC: 2048
rand_sets[11]: 479
Assign rand_sets[12]: 892  LLC: 2048
rand_sets[12]: 892
Assign rand_sets[13]: 1820  LLC: 2048
rand_sets[13]: 1820
Assign rand_sets[14]: 1505  LLC: 2048
rand_sets[14]: 1505
Assign rand_sets[15]: 1159  LLC: 2048
rand_sets[15]: 1159
Assign rand_sets[16]: 513  LLC: 2048
rand_sets[16]: 513
Assign rand_sets[17]: 703  LLC: 2048
rand_sets[17]: 703
Assign rand_sets[18]: 561  LLC: 2048
rand_sets[18]: 561
Assign rand_sets[19]: 990  LLC: 2048
rand_sets[19]: 990
Assign rand_sets[20]: 342  LLC: 2048
rand_sets[20]: 342
Assign rand_sets[21]: 882  LLC: 2048
rand_sets[21]: 882
Assign rand_sets[22]: 15  LLC: 2048
rand_sets[22]: 15
Assign rand_sets[23]: 71  LLC: 2048
rand_sets[23]: 71
Assign rand_sets[24]: 1127  LLC: 2048
rand_sets[24]: 1127
Assign rand_sets[25]: 1382  LLC: 2048
rand_sets[25]: 1382
Assign rand_sets[26]: 647  LLC: 2048
rand_sets[26]: 647
Assign rand_sets[27]: 857  LLC: 2048
rand_sets[27]: 857
Assign rand_sets[28]: 1450  LLC: 2048
rand_sets[28]: 1450
Assign rand_sets[29]: 1160  LLC: 2048
rand_sets[29]: 1160
Assign rand_sets[30]: 1852  LLC: 2048
rand_sets[30]: 1852
Assign rand_sets[31]: 1881  LLC: 2048
rand_sets[31]: 1881
Assign rand_sets[32]: 1770  LLC: 2048
rand_sets[32]: 1770
Assign rand_sets[33]: 1622  LLC: 2048
rand_sets[33]: 1622
Assign rand_sets[34]: 275  LLC: 2048
rand_sets[34]: 275
Assign rand_sets[35]: 635  LLC: 2048
rand_sets[35]: 635
Assign rand_sets[36]: 466  LLC: 2048
rand_sets[36]: 466
Assign rand_sets[37]: 1413  LLC: 2048
rand_sets[37]: 1413
Assign rand_sets[38]: 417  LLC: 2048
rand_sets[38]: 417
Assign rand_sets[39]: 472  LLC: 2048
rand_sets[39]: 472
Assign rand_sets[40]: 1340  LLC: 2048
rand_sets[40]: 1340
Assign rand_sets[41]: 852  LLC: 2048
rand_sets[41]: 852
Assign rand_sets[42]: 1365  LLC: 2048
rand_sets[42]: 1365
Assign rand_sets[43]: 47  LLC: 2048
rand_sets[43]: 47
Assign rand_sets[44]: 823  LLC: 2048
rand_sets[44]: 823
Assign rand_sets[45]: 686  LLC: 2048
rand_sets[45]: 686
Assign rand_sets[46]: 1637  LLC: 2048
rand_sets[46]: 1637
Assign rand_sets[47]: 1115  LLC: 2048
rand_sets[47]: 1115
Assign rand_sets[48]: 986  LLC: 2048
rand_sets[48]: 986
Assign rand_sets[49]: 258  LLC: 2048
rand_sets[49]: 258
Assign rand_sets[50]: 633  LLC: 2048
rand_sets[50]: 633
Assign rand_sets[51]: 920  LLC: 2048
rand_sets[51]: 920
Assign rand_sets[52]: 204  LLC: 2048
rand_sets[52]: 204
Assign rand_sets[53]: 227  LLC: 2048
rand_sets[53]: 227
Assign rand_sets[54]: 1818  LLC: 2048
rand_sets[54]: 1818
Assign rand_sets[55]: 886  LLC: 2048
rand_sets[55]: 886
Assign rand_sets[56]: 1422  LLC: 2048
rand_sets[56]: 1422
Assign rand_sets[57]: 607  LLC: 2048
rand_sets[57]: 607
Assign rand_sets[58]: 217  LLC: 2048
rand_sets[58]: 217
Assign rand_sets[59]: 1945  LLC: 2048
rand_sets[59]: 1945
Assign rand_sets[60]: 143  LLC: 2048
rand_sets[60]: 143
Assign rand_sets[61]: 1311  LLC: 2048
rand_sets[61]: 1311
Assign rand_sets[62]: 319  LLC: 2048
rand_sets[62]: 319
Assign rand_sets[63]: 1846  LLC: 2048
rand_sets[63]: 1846
 CLEAN-RRIP-POLICY-1: 1-0-1-3-2-3-0-1- CLEAN-RRIP-POLICY-2: 1-0-1-3-2-3-0-1-
 DIRTY-RRIP-POLICY-1: 2-0-2-3-0-3-1-1- DIRTY-RRIP-POLICY-2: 2-0-2-3-0-3-1-1-
 PSEL width: 10
Heartbeat CPU 0 instructions: 10000000 cycles: 4305270 heartbeat IPC: 2.32273 cumulative IPC: 2.32273 (Simulation time: 0 hr 0 min 11 sec) 
Heartbeat CPU 0 instructions: 20000000 cycles: 8617103 heartbeat IPC: 2.3192 cumulative IPC: 2.32097 (Simulation time: 0 hr 0 min 23 sec) 
Heartbeat CPU 0 instructions: 30000003 cycles: 13160984 heartbeat IPC: 2.20076 cumulative IPC: 2.27946 (Simulation time: 0 hr 0 min 35 sec) 
Heartbeat CPU 0 instructions: 40000000 cycles: 17515464 heartbeat IPC: 2.29648 cumulative IPC: 2.2837 (Simulation time: 0 hr 0 min 47 sec) 
Heartbeat CPU 0 instructions: 50000001 cycles: 21878310 heartbeat IPC: 2.29208 cumulative IPC: 2.28537 (Simulation time: 0 hr 0 min 58 sec) 
Heartbeat CPU 0 instructions: 60000000 cycles: 26178560 heartbeat IPC: 2.32545 cumulative IPC: 2.29195 (Simulation time: 0 hr 1 min 10 sec) 
Heartbeat CPU 0 instructions: 70000001 cycles: 30244457 heartbeat IPC: 2.45948 cumulative IPC: 2.31447 (Simulation time: 0 hr 1 min 20 sec) 
Heartbeat CPU 0 instructions: 80000000 cycles: 34523285 heartbeat IPC: 2.33709 cumulative IPC: 2.31728 (Simulation time: 0 hr 1 min 32 sec) 
Heartbeat CPU 0 instructions: 90000001 cycles: 38739965 heartbeat IPC: 2.37153 cumulative IPC: 2.32318 (Simulation time: 0 hr 1 min 43 sec) 
Heartbeat CPU 0 instructions: 100000000 cycles: 42980437 heartbeat IPC: 2.35823 cumulative IPC: 2.32664 (Simulation time: 0 hr 1 min 54 sec) 

Warmup complete CPU 0 instructions: 100000001 cycles: 42980438 (Simulation time: 0 hr 1 min 54 sec) 

Heartbeat CPU 0 instructions: 110000000 cycles: 53173624 heartbeat IPC: 0.981047 cumulative IPC: 0.981047 (Simulation time: 0 hr 2 min 11 sec) 
Heartbeat CPU 0 instructions: 120000000 cycles: 63897004 heartbeat IPC: 0.932542 cumulative IPC: 0.95618 (Simulation time: 0 hr 2 min 28 sec) 
Heartbeat CPU 0 instructions: 130000001 cycles: 74569628 heartbeat IPC: 0.936977 cumulative IPC: 0.949692 (Simulation time: 0 hr 2 min 45 sec) 
Heartbeat CPU 0 instructions: 140000000 cycles: 84304088 heartbeat IPC: 1.02728 cumulative IPC: 0.967969 (Simulation time: 0 hr 3 min 2 sec) 
Heartbeat CPU 0 instructions: 150000001 cycles: 94690330 heartbeat IPC: 0.962812 cumulative IPC: 0.966933 (Simulation time: 0 hr 3 min 19 sec) 
Heartbeat CPU 0 instructions: 160000000 cycles: 104812841 heartbeat IPC: 0.987897 cumulative IPC: 0.970365 (Simulation time: 0 hr 3 min 35 sec) 
Heartbeat CPU 0 instructions: 170000000 cycles: 114549632 heartbeat IPC: 1.02703 cumulative IPC: 0.978074 (Simulation time: 0 hr 3 min 52 sec) 
Heartbeat CPU 0 instructions: 180000000 cycles: 125191695 heartbeat IPC: 0.939667 cumulative IPC: 0.973103 (Simulation time: 0 hr 4 min 9 sec) 
Heartbeat CPU 0 instructions: 190000001 cycles: 135535733 heartbeat IPC: 0.966741 cumulative IPC: 0.972392 (Simulation time: 0 hr 4 min 26 sec) 
Heartbeat CPU 0 instructions: 200000000 cycles: 146215674 heartbeat IPC: 0.936335 cumulative IPC: 0.968661 (Simulation time: 0 hr 4 min 43 sec) 
Heartbeat CPU 0 instructions: 210000002 cycles: 158815291 heartbeat IPC: 0.793675 cumulative IPC: 0.949628 (Simulation time: 0 hr 5 min 2 sec) 
Heartbeat CPU 0 instructions: 220000000 cycles: 171507300 heartbeat IPC: 0.787897 cumulative IPC: 0.933657 (Simulation time: 0 hr 5 min 20 sec) 
Heartbeat CPU 0 instructions: 230000000 cycles: 183829980 heartbeat IPC: 0.811512 cumulative IPC: 0.922971 (Simulation time: 0 hr 5 min 38 sec) 
Heartbeat CPU 0 instructions: 240000000 cycles: 196127657 heartbeat IPC: 0.813162 cumulative IPC: 0.914153 (Simulation time: 0 hr 5 min 57 sec) 
Heartbeat CPU 0 instructions: 250000000 cycles: 208257073 heartbeat IPC: 0.824442 cumulative IPC: 0.907569 (Simulation time: 0 hr 6 min 15 sec) 
Heartbeat CPU 0 instructions: 260000000 cycles: 219944379 heartbeat IPC: 0.855629 cumulative IPC: 0.904139 (Simulation time: 0 hr 6 min 33 sec) 
Heartbeat CPU 0 instructions: 270000003 cycles: 231987467 heartbeat IPC: 0.830352 cumulative IPC: 0.899437 (Simulation time: 0 hr 6 min 51 sec) 
Heartbeat CPU 0 instructions: 280000000 cycles: 243662654 heartbeat IPC: 0.856517 cumulative IPC: 0.89694 (Simulation time: 0 hr 7 min 9 sec) 
Heartbeat CPU 0 instructions: 290000002 cycles: 255367261 heartbeat IPC: 0.854365 cumulative IPC: 0.894594 (Simulation time: 0 hr 7 min 27 sec) 
Heartbeat CPU 0 instructions: 300000000 cycles: 267990409 heartbeat IPC: 0.792195 cumulative IPC: 0.888849 (Simulation time: 0 hr 7 min 45 sec) 
Heartbeat CPU 0 instructions: 310000000 cycles: 280374019 heartbeat IPC: 0.807519 cumulative IPC: 0.884607 (Simulation time: 0 hr 8 min 3 sec) 
Heartbeat CPU 0 instructions: 320000000 cycles: 293232497 heartbeat IPC: 0.777697 cumulative IPC: 0.879114 (Simulation time: 0 hr 8 min 22 sec) 
Heartbeat CPU 0 instructions: 330000003 cycles: 305395160 heartbeat IPC: 0.822189 cumulative IPC: 0.876475 (Simulation time: 0 hr 8 min 40 sec) 
Heartbeat CPU 0 instructions: 340000000 cycles: 317733192 heartbeat IPC: 0.810502 cumulative IPC: 0.873513 (Simulation time: 0 hr 8 min 58 sec) 
Heartbeat CPU 0 instructions: 350000001 cycles: 328840281 heartbeat IPC: 0.900326 cumulative IPC: 0.874554 (Simulation time: 0 hr 9 min 15 sec) 
Heartbeat CPU 0 instructions: 360000000 cycles: 340817471 heartbeat IPC: 0.83492 cumulative IPC: 0.872961 (Simulation time: 0 hr 9 min 33 sec) 
Heartbeat CPU 0 instructions: 370000001 cycles: 352320693 heartbeat IPC: 0.869322 cumulative IPC: 0.872825 (Simulation time: 0 hr 9 min 51 sec) 
Heartbeat CPU 0 instructions: 380000000 cycles: 363401892 heartbeat IPC: 0.902429 cumulative IPC: 0.873849 (Simulation time: 0 hr 10 min 8 sec) 
Heartbeat CPU 0 instructions: 390000003 cycles: 374133797 heartbeat IPC: 0.931801 cumulative IPC: 0.875727 (Simulation time: 0 hr 10 min 26 sec) 
Heartbeat CPU 0 instructions: 400000000 cycles: 384426363 heartbeat IPC: 0.971575 cumulative IPC: 0.878616 (Simulation time: 0 hr 10 min 43 sec) 
Heartbeat CPU 0 instructions: 410000000 cycles: 395035222 heartbeat IPC: 0.942608 cumulative IPC: 0.880545 (Simulation time: 0 hr 11 min 0 sec) 
Heartbeat CPU 0 instructions: 420000000 cycles: 404452374 heartbeat IPC: 1.06189 cumulative IPC: 0.885269 (Simulation time: 0 hr 11 min 17 sec) 
Heartbeat CPU 0 instructions: 430000002 cycles: 413549828 heartbeat IPC: 1.09921 cumulative IPC: 0.890521 (Simulation time: 0 hr 11 min 34 sec) 
Heartbeat CPU 0 instructions: 440000000 cycles: 423907016 heartbeat IPC: 0.965513 cumulative IPC: 0.89256 (Simulation time: 0 hr 11 min 51 sec) 
Heartbeat CPU 0 instructions: 450000002 cycles: 435097679 heartbeat IPC: 0.893602 cumulative IPC: 0.89259 (Simulation time: 0 hr 12 min 8 sec) 
Heartbeat CPU 0 instructions: 460000000 cycles: 446761824 heartbeat IPC: 0.857328 cumulative IPC: 0.891572 (Simulation time: 0 hr 12 min 26 sec) 
Heartbeat CPU 0 instructions: 470000003 cycles: 457013503 heartbeat IPC: 0.97545 cumulative IPC: 0.893648 (Simulation time: 0 hr 12 min 43 sec) 
Heartbeat CPU 0 instructions: 480000000 cycles: 467623234 heartbeat IPC: 0.942531 cumulative IPC: 0.89487 (Simulation time: 0 hr 13 min 0 sec) 
Heartbeat CPU 0 instructions: 490000000 cycles: 477629142 heartbeat IPC: 0.99941 cumulative IPC: 0.897276 (Simulation time: 0 hr 13 min 17 sec) 
Heartbeat CPU 0 instructions: 500000000 cycles: 489550595 heartbeat IPC: 0.838824 cumulative IPC: 0.895716 (Simulation time: 0 hr 13 min 34 sec) 
Heartbeat CPU 0 instructions: 510000002 cycles: 502040522 heartbeat IPC: 0.800645 cumulative IPC: 0.893129 (Simulation time: 0 hr 13 min 52 sec) 
Heartbeat CPU 0 instructions: 520000000 cycles: 513977473 heartbeat IPC: 0.837735 cumulative IPC: 0.891725 (Simulation time: 0 hr 14 min 10 sec) 
Heartbeat CPU 0 instructions: 530000001 cycles: 525909316 heartbeat IPC: 0.838094 cumulative IPC: 0.8904 (Simulation time: 0 hr 14 min 28 sec) 
Heartbeat CPU 0 instructions: 540000000 cycles: 537621315 heartbeat IPC: 0.853825 cumulative IPC: 0.889534 (Simulation time: 0 hr 14 min 45 sec) 
Heartbeat CPU 0 instructions: 550000001 cycles: 549120828 heartbeat IPC: 0.869602 cumulative IPC: 0.889081 (Simulation time: 0 hr 15 min 3 sec) 
Heartbeat CPU 0 instructions: 560000000 cycles: 560787576 heartbeat IPC: 0.857137 cumulative IPC: 0.888362 (Simulation time: 0 hr 15 min 20 sec) 
Heartbeat CPU 0 instructions: 570000000 cycles: 572307196 heartbeat IPC: 0.868084 cumulative IPC: 0.88792 (Simulation time: 0 hr 15 min 38 sec) 
Heartbeat CPU 0 instructions: 580000000 cycles: 583143816 heartbeat IPC: 0.922797 cumulative IPC: 0.88862 (Simulation time: 0 hr 15 min 55 sec) 
Heartbeat CPU 0 instructions: 590000003 cycles: 594670323 heartbeat IPC: 0.867566 cumulative IPC: 0.88818 (Simulation time: 0 hr 16 min 12 sec) 
Heartbeat CPU 0 instructions: 600000000 cycles: 605336616 heartbeat IPC: 0.937533 cumulative IPC: 0.889116 (Simulation time: 0 hr 16 min 29 sec) 
Finished CPU 0 instructions: 500000001 cycles: 562356186 cumulative IPC: 0.889116 (Simulation time: 0 hr 16 min 29 sec) 

CPU 0 Branch Prediction Accuracy: 93.0095% MPKI: 10.0046
Number of Branches: 71558147 Number of Mispredictions: 5002285
Number of LOAD Instructions: 145708893
Number of LOAD Instructions (ROI): 145708893
Number of STORE Instructions: 40463820
Number of STORE Instructions (ROI): 40463820
Total Destination Memory Operands: 45240498
Total Destination Memory Operands (ROI): 45240498
Total Source Memory Operands: 145708893
Total Source Memory Operands (ROI): 145708893
Number of DEPENDED LOADS: 10670448
Number of DEPENDED LOADS (ROI): 10670448
Number of SQ_ADDED: 45240498
Number of SQ_ADDED (ROI): 45240498
Number of LQ_ADDED: 193325718
Number of LQ_ADDED (ROI): 193325718
Number of Instructions read from trace: 600000002

ChampSim completed all CPUs

Region of Interest Statistics

CPU 0 cumulative IPC: 0.889116 instructions: 500000001 cycles: 562356186
ITLB TOTAL     ACCESS:   77992161  HIT:   77992160  MISS:          1
ITLB LOAD      ACCESS:   77992161  HIT:   77992160  MISS:          1
ITLB RFO       ACCESS:          0  HIT:          0  MISS:          0
ITLB PREFETCH  ACCESS:          0  HIT:          0  MISS:          0
ITLB WRITEBACK ACCESS:          0  HIT:          0  MISS:          0
ITLB PREFETCH  REQUESTED:          0  ISSUED:          0  USEFUL:          0  USELESS:          0
ITLB TOTAL MSHR MERGED:          0
ITLB LOAD MSHR MERGED:          0
ITLB RFO MSHR MERGED:          0
ITLB PREFETCH MSHR MERGED:          0
ITLB WRITEBACK MSHR MERGED:          0
ITLB TOTAL ACCESSES:   77992161 HITS:   77992160 MISSES:          1
ITLB LOAD ACCESSES:   77992161 HITS:   77992160 MISSES:          1
ITLB RFO ACCESSES:          0 HITS:          0 MISSES:          0
ITLB PREFETCH ACCESSES:          0 HITS:          0 MISSES:          0
ITLB WRITEBACK ACCESSES:          0 HITS:          0 MISSES:          0
ITLB RQ ACCESS:  499999995
ITLB RQ TO_CACHE:   77992161
ITLB RQ MERGED:  422007834
ITLB RQ FORWARD:          0
ITLB WQ ACCESS:          0
ITLB WQ TO_CACHE:          0
ITLB WQ MERGED:          0
ITLB WQ FORWARD:          0
DTLB TOTAL     ACCESS:   98674864  HIT:   97793527  MISS:     881337
DTLB LOAD      ACCESS:   70895366  HIT:   70033832  MISS:     861534
DTLB RFO       ACCESS:   27779498  HIT:   27759695  MISS:      19803
DTLB PREFETCH  ACCESS:          0  HIT:          0  MISS:          0
DTLB WRITEBACK ACCESS:          0  HIT:          0  MISS:          0
DTLB PREFETCH  REQUESTED:          0  ISSUED:          0  USEFUL:          0  USELESS:          0
DTLB TOTAL MSHR MERGED:      87340
DTLB LOAD MSHR MERGED:      65598
DTLB RFO MSHR MERGED:      21742
DTLB PREFETCH MSHR MERGED:          0
DTLB WRITEBACK MSHR MERGED:          0
DTLB TOTAL ACCESSES:   98762204 HITS:   97793527 MISSES:     968677
DTLB LOAD ACCESSES:   70960964 HITS:   70033832 MISSES:     927132
DTLB RFO ACCESSES:   27801240 HITS:   27759695 MISSES:      41545
DTLB PREFETCH ACCESSES:          0 HITS:          0 MISSES:          0
DTLB WRITEBACK ACCESSES:          0 HITS:          0 MISSES:          0
DTLB RQ ACCESS:  150274602
DTLB RQ TO_CACHE:   98762204
DTLB RQ MERGED:   51512398
DTLB RQ FORWARD:          0
DTLB WQ ACCESS:          0
DTLB WQ TO_CACHE:          0
DTLB WQ MERGED:          0
DTLB WQ FORWARD:          0
L1D TOTAL     ACCESS:  173333151  HIT:  169164548  MISS:    4168603
L1D LOAD      ACCESS:   75284629  HIT:   73403303  MISS:    1881326
L1D RFO       ACCESS:   36778091  HIT:   36571464  MISS:     206627
L1D PREFETCH  ACCESS:   61270431  HIT:   59189781  MISS:    2080650
L1D WRITEBACK ACCESS:          0  HIT:          0  MISS:          0
L1D PREFETCH  REQUESTED:   75387649  ISSUED:   74823404  USEFUL:     415107  USELESS:    1665532
L1D TOTAL MSHR MERGED:     373994
L1D LOAD MSHR MERGED:     111801
L1D RFO MSHR MERGED:     133211
L1D PREFETCH MSHR MERGED:     128982
L1D WRITEBACK MSHR MERGED:          0
L1D TOTAL ACCESSES:  173858846 HITS:  169316249 MISSES:    4542597
L1D LOAD ACCESSES:   75390651 HITS:   73406305 MISSES:    1984346
L1D RFO ACCESSES:   36909885 HITS:   36571464 MISSES:     338421
L1D PREFETCH ACCESSES:   61558310 HITS:   59338480 MISSES:    2219830
L1D WRITEBACK ACCESSES:          0 HITS:          0 MISSES:          0
L1D RQ ACCESS:  112612199
L1D RQ TO_CACHE:   75387649
L1D RQ MERGED:   37221548
L1D RQ FORWARD:          0
L1D WQ ACCESS:   37662403
L1D WQ TO_CACHE:   36909885
L1D WQ MERGED:     752518
L1D WQ FORWARD:     151701
L1I TOTAL     ACCESS:  100700064  HIT:  100700039  MISS:         25
L1I LOAD      ACCESS:  100700064  HIT:  100700039  MISS:         25
L1I RFO       ACCESS:          0  HIT:          0  MISS:          0
L1I PREFETCH  ACCESS:          0  HIT:          0  MISS:          0
L1I WRITEBACK ACCESS:          0  HIT:          0  MISS:          0
L1I PREFETCH  REQUESTED:          0  ISSUED:          0  USEFUL:          0  USELESS:          0
L1I TOTAL MSHR MERGED:         10
L1I LOAD MSHR MERGED:         10
L1I RFO MSHR MERGED:          0
L1I PREFETCH MSHR MERGED:          0
L1I WRITEBACK MSHR MERGED:          0
L1I TOTAL ACCESSES:  100700074 HITS:  100700039 MISSES:         35
L1I LOAD ACCESSES:  100700074 HITS:  100700039 MISSES:         35
L1I RFO ACCESSES:          0 HITS:          0 MISSES:          0
L1I PREFETCH ACCESSES:          0 HITS:          0 MISSES:          0
L1I WRITEBACK ACCESSES:          0 HITS:          0 MISSES:          0
L1I RQ ACCESS:  499999995
L1I RQ TO_CACHE:  100700074
L1I RQ MERGED:  399299921
L1I RQ FORWARD:          0
L1I WQ ACCESS:          0
L1I WQ TO_CACHE:          0
L1I WQ MERGED:          0
L1I WQ FORWARD:          0
L2C TOTAL     ACCESS:    5852552  HIT:    4009370  MISS:    1843182
L2C LOAD      ACCESS:    1872442  HIT:    1061490  MISS:     810952
L2C RFO       ACCESS:     205201  HIT:     100561  MISS:     104640
L2C PREFETCH  ACCESS:    2169278  HIT:    1246108  MISS:     923170
L2C WRITEBACK ACCESS:    1605631  HIT:    1601211  MISS:       4420
L2C PREFETCH  REQUESTED:      91706  ISSUED:      91706  USEFUL:      86451  USELESS:     836742
L2C TOTAL MSHR MERGED:       1033
L2C LOAD MSHR MERGED:        265
L2C RFO MSHR MERGED:          1
L2C PREFETCH MSHR MERGED:        767
L2C WRITEBACK MSHR MERGED:          0
L2C TOTAL ACCESSES:    5853912 HITS:    4009544 MISSES:    1844368
L2C LOAD ACCESSES:    1872570 HITS:    1061618 MISSES:     810952
L2C RFO ACCESSES:     205210 HITS:     100570 MISSES:     104640
L2C PREFETCH ACCESSES:    2170501 HITS:    1246145 MISSES:     924356
L2C WRITEBACK ACCESSES:    1605631 HITS:    1601211 MISSES:       4420
L2C RQ ACCESS:    2077780
L2C RQ TO_CACHE:    2077643
L2C RQ MERGED:          0
L2C RQ FORWARD:          0
L2C WQ ACCESS:    1605631
L2C WQ TO_CACHE:    1605631
L2C WQ MERGED:          0
L2C WQ FORWARD:        174
LLC TOTAL     ACCESS:    2673559  HIT:    2077473  MISS:     596086
LLC LOAD      ACCESS:     810677  HIT:     603694  MISS:     206983
LLC RFO       ACCESS:     104639  HIT:      58768  MISS:      45871
LLC PREFETCH  ACCESS:     923569  HIT:     624130  MISS:     299439
LLC WRITEBACK ACCESS:     834674  HIT:     790881  MISS:      43793
LLC PREFETCH  REQUESTED:          0  ISSUED:          0  USEFUL:      12688  USELESS:     286139
LLC TOTAL MSHR MERGED:         10
LLC LOAD MSHR MERGED:          1
LLC RFO MSHR MERGED:          0
LLC PREFETCH MSHR MERGED:          9
LLC WRITEBACK MSHR MERGED:          0
LLC TOTAL ACCESSES:    2673581 HITS:    2077485 MISSES:     596096
LLC LOAD ACCESSES:     810687 HITS:     603704 MISSES:     206983
LLC RFO ACCESSES:     104639 HITS:      58768 MISSES:      45871
LLC PREFETCH ACCESSES:     923581 HITS:     624132 MISSES:     299449
LLC WRITEBACK ACCESSES:     834674 HITS:     790881 MISSES:      43793
LLC 0 RQ ACCESS:     915326
LLC 0 RQ TO_CACHE:     915316
LLC 0 RQ MERGED:          0
LLC 0 RQ FORWARD:          0
LLC WQ ACCESS:     834674
LLC WQ TO_CACHE:     834674
LLC WQ MERGED:          0
LLC WQ FORWARD:         12
Major fault: 0 Minor fault: 11278
CPU 0 L1D next line prefetcher final stats
CPU 0 L2C PC-based stride prefetcher final stats
All Misses: 717191
All Hits: 2337386
SD Algo Stats - Switches: 0 SRR-Repls: 241451 BRR-Repls: 0

DRAM Statistics
 CHANNEL 0
 RQ ROW_BUFFER_HIT:      30423  ROW_BUFFER_MISS:     521128
 DBUS_CONGESTED:     432915
 WQ ROW_BUFFER_HIT:      21025  ROW_BUFFER_MISS:     259033  FULL:          0

 AVG_CONGESTED_CYCLE: 13
LOADS RETIRED: 121769268
INSTR RETIRED: 500000000
