
*** ChampSim Multicore Out-of-Order Simulator ***

Warmup Instructions: 100000000
Simulation Instructions: 500000000
Number of CPUs: 1
LLC sets: 2048
LLC ways: 16
Clean RRIP Policies: 1213231212132312 Dirty RRIP Policies: 2203130222031302 PSEL Width: 10 Track Set: 4294967295 PSEL Mask: 1 Demote Mask: 3010100030101000DS Algo: 0Window size: 0
Off-chip DRAM Size: 4096 MB Channels: 1 Width: 64-bit Data Rate: 1600 MT/s

CPU 0 runs /mnt/beegfs/iconst01/spec2017/cactuBSSN.trace.gz
NOT SORTED
TRACE STRING: /mnt/beegfs/iconst01/spec2017/cactuBSSN.trace.gz
SORTED
TRACE STRING: /mnt/beegfs/iconst01/spec2017/cactuBSSN.trace.gz
INITIAL
TRACE STRING: /mnt/beegfs/iconst01/spec2017/cactuBSSN.trace.gz

champsim_seed used: 838

CPU 0 L1D next line prefetcher
CPU 0 L2C IP-based stride prefetcher
Initialize DRRIP state
Assign rand_sets[0]: 454  LLC: 2048
rand_sets[0]: 454
Assign rand_sets[1]: 1662  LLC: 2048
rand_sets[1]: 1662
Assign rand_sets[2]: 1921  LLC: 2048
rand_sets[2]: 1921
Assign rand_sets[3]: 1131  LLC: 2048
rand_sets[3]: 1131
Assign rand_sets[4]: 331  LLC: 2048
rand_sets[4]: 331
Assign rand_sets[5]: 1531  LLC: 2048
rand_sets[5]: 1531
Assign rand_sets[6]: 482  LLC: 2048
rand_sets[6]: 482
Assign rand_sets[7]: 1275  LLC: 2048
rand_sets[7]: 1275
Assign rand_sets[8]: 1876  LLC: 2048
rand_sets[8]: 1876
Assign rand_sets[9]: 2038  LLC: 2048
rand_sets[9]: 2038
Assign rand_sets[10]: 701  LLC: 2048
rand_sets[10]: 701
Assign rand_sets[11]: 479  LLC: 2048
rand_sets[11]: 479
Assign rand_sets[12]: 892  LLC: 2048
rand_sets[12]: 892
Assign rand_sets[13]: 1820  LLC: 2048
rand_sets[13]: 1820
Assign rand_sets[14]: 1505  LLC: 2048
rand_sets[14]: 1505
Assign rand_sets[15]: 1159  LLC: 2048
rand_sets[15]: 1159
Assign rand_sets[16]: 513  LLC: 2048
rand_sets[16]: 513
Assign rand_sets[17]: 703  LLC: 2048
rand_sets[17]: 703
Assign rand_sets[18]: 561  LLC: 2048
rand_sets[18]: 561
Assign rand_sets[19]: 990  LLC: 2048
rand_sets[19]: 990
Assign rand_sets[20]: 342  LLC: 2048
rand_sets[20]: 342
Assign rand_sets[21]: 882  LLC: 2048
rand_sets[21]: 882
Assign rand_sets[22]: 15  LLC: 2048
rand_sets[22]: 15
Assign rand_sets[23]: 71  LLC: 2048
rand_sets[23]: 71
Assign rand_sets[24]: 1127  LLC: 2048
rand_sets[24]: 1127
Assign rand_sets[25]: 1382  LLC: 2048
rand_sets[25]: 1382
Assign rand_sets[26]: 647  LLC: 2048
rand_sets[26]: 647
Assign rand_sets[27]: 857  LLC: 2048
rand_sets[27]: 857
Assign rand_sets[28]: 1450  LLC: 2048
rand_sets[28]: 1450
Assign rand_sets[29]: 1160  LLC: 2048
rand_sets[29]: 1160
Assign rand_sets[30]: 1852  LLC: 2048
rand_sets[30]: 1852
Assign rand_sets[31]: 1881  LLC: 2048
rand_sets[31]: 1881
Assign rand_sets[32]: 1770  LLC: 2048
rand_sets[32]: 1770
Assign rand_sets[33]: 1622  LLC: 2048
rand_sets[33]: 1622
Assign rand_sets[34]: 275  LLC: 2048
rand_sets[34]: 275
Assign rand_sets[35]: 635  LLC: 2048
rand_sets[35]: 635
Assign rand_sets[36]: 466  LLC: 2048
rand_sets[36]: 466
Assign rand_sets[37]: 1413  LLC: 2048
rand_sets[37]: 1413
Assign rand_sets[38]: 417  LLC: 2048
rand_sets[38]: 417
Assign rand_sets[39]: 472  LLC: 2048
rand_sets[39]: 472
Assign rand_sets[40]: 1340  LLC: 2048
rand_sets[40]: 1340
Assign rand_sets[41]: 852  LLC: 2048
rand_sets[41]: 852
Assign rand_sets[42]: 1365  LLC: 2048
rand_sets[42]: 1365
Assign rand_sets[43]: 47  LLC: 2048
rand_sets[43]: 47
Assign rand_sets[44]: 823  LLC: 2048
rand_sets[44]: 823
Assign rand_sets[45]: 686  LLC: 2048
rand_sets[45]: 686
Assign rand_sets[46]: 1637  LLC: 2048
rand_sets[46]: 1637
Assign rand_sets[47]: 1115  LLC: 2048
rand_sets[47]: 1115
Assign rand_sets[48]: 986  LLC: 2048
rand_sets[48]: 986
Assign rand_sets[49]: 258  LLC: 2048
rand_sets[49]: 258
Assign rand_sets[50]: 633  LLC: 2048
rand_sets[50]: 633
Assign rand_sets[51]: 920  LLC: 2048
rand_sets[51]: 920
Assign rand_sets[52]: 204  LLC: 2048
rand_sets[52]: 204
Assign rand_sets[53]: 227  LLC: 2048
rand_sets[53]: 227
Assign rand_sets[54]: 1818  LLC: 2048
rand_sets[54]: 1818
Assign rand_sets[55]: 886  LLC: 2048
rand_sets[55]: 886
Assign rand_sets[56]: 1422  LLC: 2048
rand_sets[56]: 1422
Assign rand_sets[57]: 607  LLC: 2048
rand_sets[57]: 607
Assign rand_sets[58]: 217  LLC: 2048
rand_sets[58]: 217
Assign rand_sets[59]: 1945  LLC: 2048
rand_sets[59]: 1945
Assign rand_sets[60]: 143  LLC: 2048
rand_sets[60]: 143
Assign rand_sets[61]: 1311  LLC: 2048
rand_sets[61]: 1311
Assign rand_sets[62]: 319  LLC: 2048
rand_sets[62]: 319
Assign rand_sets[63]: 1846  LLC: 2048
rand_sets[63]: 1846
 CLEAN-RRIP-POLICY-1: 1-2-1-3-2-3-1-2- CLEAN-RRIP-POLICY-2: 1-2-1-3-2-3-1-2-
 DIRTY-RRIP-POLICY-1: 2-2-0-3-1-3-0-2- DIRTY-RRIP-POLICY-2: 2-2-0-3-1-3-0-2-
 PSEL width: 10
Heartbeat CPU 0 instructions: 10000000 cycles: 6588002 heartbeat IPC: 1.51791 cumulative IPC: 1.51791 (Simulation time: 0 hr 0 min 24 sec) 
Heartbeat CPU 0 instructions: 20000000 cycles: 13179595 heartbeat IPC: 1.51708 cumulative IPC: 1.5175 (Simulation time: 0 hr 0 min 49 sec) 
Heartbeat CPU 0 instructions: 30000003 cycles: 19772915 heartbeat IPC: 1.51669 cumulative IPC: 1.51723 (Simulation time: 0 hr 1 min 14 sec) 
Heartbeat CPU 0 instructions: 40000000 cycles: 26364661 heartbeat IPC: 1.51705 cumulative IPC: 1.51718 (Simulation time: 0 hr 1 min 39 sec) 
Heartbeat CPU 0 instructions: 50000001 cycles: 32957332 heartbeat IPC: 1.51684 cumulative IPC: 1.51711 (Simulation time: 0 hr 2 min 4 sec) 
Heartbeat CPU 0 instructions: 60000000 cycles: 39556147 heartbeat IPC: 1.51542 cumulative IPC: 1.51683 (Simulation time: 0 hr 2 min 29 sec) 
Heartbeat CPU 0 instructions: 70000003 cycles: 46154509 heartbeat IPC: 1.51553 cumulative IPC: 1.51664 (Simulation time: 0 hr 2 min 54 sec) 
Heartbeat CPU 0 instructions: 80000000 cycles: 52752561 heartbeat IPC: 1.5156 cumulative IPC: 1.51651 (Simulation time: 0 hr 3 min 19 sec) 
Heartbeat CPU 0 instructions: 90000002 cycles: 59348225 heartbeat IPC: 1.51615 cumulative IPC: 1.51647 (Simulation time: 0 hr 3 min 44 sec) 
Heartbeat CPU 0 instructions: 100000000 cycles: 65943268 heartbeat IPC: 1.51629 cumulative IPC: 1.51646 (Simulation time: 0 hr 4 min 10 sec) 

Warmup complete CPU 0 instructions: 100000002 cycles: 65943269 (Simulation time: 0 hr 4 min 10 sec) 

Heartbeat CPU 0 instructions: 110000000 cycles: 79181756 heartbeat IPC: 0.755373 cumulative IPC: 0.755373 (Simulation time: 0 hr 4 min 40 sec) 
Heartbeat CPU 0 instructions: 120000000 cycles: 92375071 heartbeat IPC: 0.75796 cumulative IPC: 0.756664 (Simulation time: 0 hr 5 min 11 sec) 
Heartbeat CPU 0 instructions: 130000001 cycles: 105648158 heartbeat IPC: 0.753404 cumulative IPC: 0.755574 (Simulation time: 0 hr 5 min 42 sec) 
Heartbeat CPU 0 instructions: 140000000 cycles: 118819546 heartbeat IPC: 0.759221 cumulative IPC: 0.756483 (Simulation time: 0 hr 6 min 13 sec) 
Heartbeat CPU 0 instructions: 150000001 cycles: 132004331 heartbeat IPC: 0.75845 cumulative IPC: 0.756876 (Simulation time: 0 hr 6 min 45 sec) 
Heartbeat CPU 0 instructions: 160000000 cycles: 145231991 heartbeat IPC: 0.755992 cumulative IPC: 0.756728 (Simulation time: 0 hr 7 min 16 sec) 
Heartbeat CPU 0 instructions: 170000000 cycles: 158438828 heartbeat IPC: 0.757184 cumulative IPC: 0.756793 (Simulation time: 0 hr 7 min 47 sec) 
Heartbeat CPU 0 instructions: 180000000 cycles: 171638979 heartbeat IPC: 0.757567 cumulative IPC: 0.75689 (Simulation time: 0 hr 8 min 18 sec) 
Heartbeat CPU 0 instructions: 190000000 cycles: 184803143 heartbeat IPC: 0.759638 cumulative IPC: 0.757194 (Simulation time: 0 hr 8 min 48 sec) 
Heartbeat CPU 0 instructions: 200000000 cycles: 198059325 heartbeat IPC: 0.754365 cumulative IPC: 0.75691 (Simulation time: 0 hr 9 min 19 sec) 
Heartbeat CPU 0 instructions: 210000002 cycles: 211265853 heartbeat IPC: 0.757201 cumulative IPC: 0.756937 (Simulation time: 0 hr 9 min 50 sec) 
Heartbeat CPU 0 instructions: 220000000 cycles: 224439647 heartbeat IPC: 0.759083 cumulative IPC: 0.757115 (Simulation time: 0 hr 10 min 21 sec) 
Heartbeat CPU 0 instructions: 230000003 cycles: 237687066 heartbeat IPC: 0.754864 cumulative IPC: 0.756941 (Simulation time: 0 hr 10 min 52 sec) 
Heartbeat CPU 0 instructions: 240000000 cycles: 250873781 heartbeat IPC: 0.758339 cumulative IPC: 0.757041 (Simulation time: 0 hr 11 min 23 sec) 
Heartbeat CPU 0 instructions: 250000001 cycles: 264091692 heartbeat IPC: 0.756549 cumulative IPC: 0.757008 (Simulation time: 0 hr 11 min 54 sec) 
Heartbeat CPU 0 instructions: 260000000 cycles: 277305518 heartbeat IPC: 0.756783 cumulative IPC: 0.756994 (Simulation time: 0 hr 12 min 24 sec) 
Heartbeat CPU 0 instructions: 270000003 cycles: 290545675 heartbeat IPC: 0.755278 cumulative IPC: 0.756893 (Simulation time: 0 hr 12 min 55 sec) 
Heartbeat CPU 0 instructions: 280000000 cycles: 303743988 heartbeat IPC: 0.757672 cumulative IPC: 0.756936 (Simulation time: 0 hr 13 min 25 sec) 
Heartbeat CPU 0 instructions: 290000000 cycles: 316919909 heartbeat IPC: 0.75896 cumulative IPC: 0.757043 (Simulation time: 0 hr 13 min 56 sec) 
Heartbeat CPU 0 instructions: 300000000 cycles: 330171537 heartbeat IPC: 0.754624 cumulative IPC: 0.756921 (Simulation time: 0 hr 14 min 26 sec) 
Heartbeat CPU 0 instructions: 310000001 cycles: 343346480 heartbeat IPC: 0.759017 cumulative IPC: 0.757021 (Simulation time: 0 hr 14 min 56 sec) 
Heartbeat CPU 0 instructions: 320000000 cycles: 356539245 heartbeat IPC: 0.757991 cumulative IPC: 0.757065 (Simulation time: 0 hr 15 min 27 sec) 
Heartbeat CPU 0 instructions: 330000002 cycles: 369734474 heartbeat IPC: 0.75785 cumulative IPC: 0.757099 (Simulation time: 0 hr 15 min 57 sec) 
Heartbeat CPU 0 instructions: 340000000 cycles: 382979359 heartbeat IPC: 0.755008 cumulative IPC: 0.757012 (Simulation time: 0 hr 16 min 27 sec) 
Heartbeat CPU 0 instructions: 350000000 cycles: 396235650 heartbeat IPC: 0.754359 cumulative IPC: 0.756905 (Simulation time: 0 hr 16 min 57 sec) 
Heartbeat CPU 0 instructions: 360000000 cycles: 409450703 heartbeat IPC: 0.756713 cumulative IPC: 0.756898 (Simulation time: 0 hr 17 min 27 sec) 
Heartbeat CPU 0 instructions: 370000002 cycles: 422722975 heartbeat IPC: 0.753451 cumulative IPC: 0.756769 (Simulation time: 0 hr 17 min 57 sec) 
Heartbeat CPU 0 instructions: 380000000 cycles: 435929932 heartbeat IPC: 0.757177 cumulative IPC: 0.756784 (Simulation time: 0 hr 18 min 27 sec) 
Heartbeat CPU 0 instructions: 390000000 cycles: 449103526 heartbeat IPC: 0.759094 cumulative IPC: 0.756863 (Simulation time: 0 hr 18 min 57 sec) 
Heartbeat CPU 0 instructions: 400000000 cycles: 462292796 heartbeat IPC: 0.758192 cumulative IPC: 0.756908 (Simulation time: 0 hr 19 min 27 sec) 
Heartbeat CPU 0 instructions: 410000001 cycles: 475550645 heartbeat IPC: 0.75427 cumulative IPC: 0.756822 (Simulation time: 0 hr 19 min 57 sec) 
Heartbeat CPU 0 instructions: 420000000 cycles: 488735861 heartbeat IPC: 0.758425 cumulative IPC: 0.756872 (Simulation time: 0 hr 20 min 26 sec) 
Heartbeat CPU 0 instructions: 430000001 cycles: 501924559 heartbeat IPC: 0.758225 cumulative IPC: 0.756913 (Simulation time: 0 hr 20 min 56 sec) 
Heartbeat CPU 0 instructions: 440000000 cycles: 515094819 heartbeat IPC: 0.759286 cumulative IPC: 0.756983 (Simulation time: 0 hr 21 min 26 sec) 
Heartbeat CPU 0 instructions: 450000002 cycles: 528405264 heartbeat IPC: 0.75129 cumulative IPC: 0.756819 (Simulation time: 0 hr 21 min 56 sec) 
Heartbeat CPU 0 instructions: 460000000 cycles: 541616820 heartbeat IPC: 0.756913 cumulative IPC: 0.756822 (Simulation time: 0 hr 22 min 26 sec) 
Heartbeat CPU 0 instructions: 470000003 cycles: 554808137 heartbeat IPC: 0.758075 cumulative IPC: 0.756855 (Simulation time: 0 hr 22 min 56 sec) 
Heartbeat CPU 0 instructions: 480000000 cycles: 568052539 heartbeat IPC: 0.755036 cumulative IPC: 0.756807 (Simulation time: 0 hr 23 min 25 sec) 
Heartbeat CPU 0 instructions: 490000000 cycles: 581267835 heartbeat IPC: 0.756699 cumulative IPC: 0.756805 (Simulation time: 0 hr 23 min 55 sec) 
Heartbeat CPU 0 instructions: 500000000 cycles: 594462303 heartbeat IPC: 0.757893 cumulative IPC: 0.756832 (Simulation time: 0 hr 24 min 25 sec) 
Heartbeat CPU 0 instructions: 510000001 cycles: 607634815 heartbeat IPC: 0.759157 cumulative IPC: 0.756888 (Simulation time: 0 hr 24 min 55 sec) 
Heartbeat CPU 0 instructions: 520000000 cycles: 620912938 heartbeat IPC: 0.753118 cumulative IPC: 0.756798 (Simulation time: 0 hr 25 min 25 sec) 
Heartbeat CPU 0 instructions: 530000000 cycles: 634158953 heartbeat IPC: 0.754944 cumulative IPC: 0.756755 (Simulation time: 0 hr 25 min 55 sec) 
Heartbeat CPU 0 instructions: 540000000 cycles: 647392666 heartbeat IPC: 0.755646 cumulative IPC: 0.75673 (Simulation time: 0 hr 26 min 25 sec) 
Heartbeat CPU 0 instructions: 550000002 cycles: 660650827 heartbeat IPC: 0.754253 cumulative IPC: 0.756674 (Simulation time: 0 hr 26 min 54 sec) 
Heartbeat CPU 0 instructions: 560000000 cycles: 673844191 heartbeat IPC: 0.757957 cumulative IPC: 0.756702 (Simulation time: 0 hr 27 min 24 sec) 
Heartbeat CPU 0 instructions: 570000001 cycles: 687048480 heartbeat IPC: 0.75733 cumulative IPC: 0.756716 (Simulation time: 0 hr 27 min 54 sec) 
Heartbeat CPU 0 instructions: 580000000 cycles: 700244502 heartbeat IPC: 0.757804 cumulative IPC: 0.756738 (Simulation time: 0 hr 28 min 24 sec) 
Heartbeat CPU 0 instructions: 590000003 cycles: 713478920 heartbeat IPC: 0.755606 cumulative IPC: 0.756715 (Simulation time: 0 hr 28 min 54 sec) 
Heartbeat CPU 0 instructions: 600000000 cycles: 726733977 heartbeat IPC: 0.754429 cumulative IPC: 0.756669 (Simulation time: 0 hr 29 min 23 sec) 
Finished CPU 0 instructions: 500000000 cycles: 660790718 cumulative IPC: 0.756669 (Simulation time: 0 hr 29 min 23 sec) 

CPU 0 Branch Prediction Accuracy: 99.968% MPKI: 0.002246
Number of Branches: 3513331 Number of Mispredictions: 1123
Number of LOAD Instructions: 287251172
Number of LOAD Instructions (ROI): 287251172
Number of STORE Instructions: 51060820
Number of STORE Instructions (ROI): 51060820
Total Destination Memory Operands: 51166221
Total Destination Memory Operands (ROI): 51166221
Total Source Memory Operands: 287251172
Total Source Memory Operands (ROI): 287251172
Number of DEPENDED LOADS: 9555468
Number of DEPENDED LOADS (ROI): 9555468
Number of SQ_ADDED: 51166208
Number of SQ_ADDED (ROI): 51166208
Number of LQ_ADDED: 290419970
Number of LQ_ADDED (ROI): 290419970
Number of Instructions read from trace: 600000257

ChampSim completed all CPUs

Region of Interest Statistics

CPU 0 cumulative IPC: 0.756669 instructions: 500000000 cycles: 660790718
ITLB TOTAL     ACCESS:  108949966  HIT:  108949966  MISS:          0
ITLB LOAD      ACCESS:  108949966  HIT:  108949966  MISS:          0
ITLB RFO       ACCESS:          0  HIT:          0  MISS:          0
ITLB PREFETCH  ACCESS:          0  HIT:          0  MISS:          0
ITLB WRITEBACK ACCESS:          0  HIT:          0  MISS:          0
ITLB PREFETCH  REQUESTED:          0  ISSUED:          0  USEFUL:          0  USELESS:          0
ITLB TOTAL MSHR MERGED:          0
ITLB LOAD MSHR MERGED:          0
ITLB RFO MSHR MERGED:          0
ITLB PREFETCH MSHR MERGED:          0
ITLB WRITEBACK MSHR MERGED:          0
ITLB TOTAL ACCESSES:  108949966 HITS:  108949966 MISSES:          0
ITLB LOAD ACCESSES:  108949966 HITS:  108949966 MISSES:          0
ITLB RFO ACCESSES:          0 HITS:          0 MISSES:          0
ITLB PREFETCH ACCESSES:          0 HITS:          0 MISSES:          0
ITLB WRITEBACK ACCESSES:          0 HITS:          0 MISSES:          0
ITLB RQ ACCESS:  500000001
ITLB RQ TO_CACHE:  108949966
ITLB RQ MERGED:  391050035
ITLB RQ FORWARD:          0
ITLB WQ ACCESS:          0
ITLB WQ TO_CACHE:          0
ITLB WQ MERGED:          0
ITLB WQ FORWARD:          0
DTLB TOTAL     ACCESS:  171131351  HIT:  161115011  MISS:   10016340
DTLB LOAD      ACCESS:  143472134  HIT:  135596044  MISS:    7876090
DTLB RFO       ACCESS:   27659217  HIT:   25518967  MISS:    2140250
DTLB PREFETCH  ACCESS:          0  HIT:          0  MISS:          0
DTLB WRITEBACK ACCESS:          0  HIT:          0  MISS:          0
DTLB PREFETCH  REQUESTED:          0  ISSUED:          0  USEFUL:          0  USELESS:          0
DTLB TOTAL MSHR MERGED:     360411
DTLB LOAD MSHR MERGED:     360411
DTLB RFO MSHR MERGED:          0
DTLB PREFETCH MSHR MERGED:          0
DTLB WRITEBACK MSHR MERGED:          0
DTLB TOTAL ACCESSES:  171491762 HITS:  161115011 MISSES:   10376751
DTLB LOAD ACCESSES:  143832545 HITS:  135596044 MISSES:    8236501
DTLB RFO ACCESSES:   27659217 HITS:   25518967 MISSES:    2140250
DTLB PREFETCH ACCESSES:          0 HITS:          0 MISSES:          0
DTLB WRITEBACK ACCESSES:          0 HITS:          0 MISSES:          0
DTLB RQ ACCESS:  274072349
DTLB RQ TO_CACHE:  171491762
DTLB RQ MERGED:  102580587
DTLB RQ FORWARD:          0
DTLB WQ ACCESS:          0
DTLB WQ TO_CACHE:          0
DTLB WQ MERGED:          0
DTLB WQ FORWARD:          0
L1D TOTAL     ACCESS:  350951413  HIT:  283752196  MISS:   67199217
L1D LOAD      ACCESS:  175627423  HIT:  142588278  MISS:   33039145
L1D RFO       ACCESS:   42020157  HIT:   39214623  MISS:    2805534
L1D PREFETCH  ACCESS:  133303833  HIT:  101949295  MISS:   31354538
L1D WRITEBACK ACCESS:          0  HIT:          0  MISS:          0
L1D PREFETCH  REQUESTED:  176231434  ISSUED:  175293321  USEFUL:    2180642  USELESS:   29173898
L1D TOTAL MSHR MERGED:    1482610
L1D LOAD MSHR MERGED:     703977
L1D RFO MSHR MERGED:     348931
L1D PREFETCH MSHR MERGED:     429702
L1D WRITEBACK MSHR MERGED:          0
L1D TOTAL ACCESSES:  352546416 HITS:  283864589 MISSES:   68681827
L1D LOAD ACCESSES:  176237894 HITS:  142594738 MISSES:   33643156
L1D RFO ACCESSES:   42368423 HITS:   39214623 MISSES:    3153800
L1D PREFETCH ACCESSES:  133940099 HITS:  102055228 MISSES:   31884871
L1D WRITEBACK ACCESSES:          0 HITS:          0 MISSES:          0
L1D RQ ACCESS:  231433876
L1D RQ TO_CACHE:  176231434
L1D RQ MERGED:   55195982
L1D RQ FORWARD:          0
L1D WQ ACCESS:   42638475
L1D WQ TO_CACHE:   42368423
L1D WQ MERGED:     270052
L1D WQ FORWARD:     112393
L1I TOTAL     ACCESS:  109343423  HIT:   77827719  MISS:   31515704
L1I LOAD      ACCESS:  109343423  HIT:   77827719  MISS:   31515704
L1I RFO       ACCESS:          0  HIT:          0  MISS:          0
L1I PREFETCH  ACCESS:          0  HIT:          0  MISS:          0
L1I WRITEBACK ACCESS:          0  HIT:          0  MISS:          0
L1I PREFETCH  REQUESTED:          0  ISSUED:          0  USEFUL:          0  USELESS:          0
L1I TOTAL MSHR MERGED:   30750531
L1I LOAD MSHR MERGED:   30750531
L1I RFO MSHR MERGED:          0
L1I PREFETCH MSHR MERGED:          0
L1I WRITEBACK MSHR MERGED:          0
L1I TOTAL ACCESSES:  140093956 HITS:   77827719 MISSES:   62266237
L1I LOAD ACCESSES:  140093956 HITS:   77827719 MISSES:   62266237
L1I RFO ACCESSES:          0 HITS:          0 MISSES:          0
L1I PREFETCH ACCESSES:          0 HITS:          0 MISSES:          0
L1I WRITEBACK ACCESSES:          0 HITS:          0 MISSES:          0
L1I RQ ACCESS:  500000003
L1I RQ TO_CACHE:  140093956
L1I RQ MERGED:  359906047
L1I RQ FORWARD:          0
L1I WQ ACCESS:          0
L1I WQ TO_CACHE:          0
L1I WQ MERGED:          0
L1I WQ FORWARD:          0
L2C TOTAL     ACCESS:  113700548  HIT:  110698109  MISS:    3002439
L2C LOAD      ACCESS:   64453000  HIT:   63892419  MISS:     560581
L2C RFO       ACCESS:    2802972  HIT:    2193477  MISS:     609495
L2C PREFETCH  ACCESS:   43283595  HIT:   41457515  MISS:    1826080
L2C WRITEBACK ACCESS:    3160981  HIT:    3154698  MISS:       6283
L2C PREFETCH  REQUESTED:   15134522  ISSUED:   14619871  USEFUL:    1701004  USELESS:     125082
L2C TOTAL MSHR MERGED:      12796
L2C LOAD MSHR MERGED:          0
L2C RFO MSHR MERGED:          0
L2C PREFETCH MSHR MERGED:      12796
L2C WRITEBACK MSHR MERGED:          0
L2C TOTAL ACCESSES:  113903552 HITS:  110703988 MISSES:    3199564
L2C LOAD ACCESSES:   64454884 HITS:   63894302 MISSES:     560582
L2C RFO ACCESSES:    2804869 HITS:    2195374 MISSES:     609495
L2C PREFETCH ACCESSES:   43482818 HITS:   41459614 MISSES:    2023204
L2C WRITEBACK ACCESSES:    3160981 HITS:    3154698 MISSES:       6283
L2C RQ ACCESS:   67259754
L2C RQ TO_CACHE:   67255974
L2C RQ MERGED:          0
L2C RQ FORWARD:          0
L2C WQ ACCESS:    3160981
L2C WQ TO_CACHE:    3160981
L2C WQ MERGED:          0
L2C WQ FORWARD:       5879
LLC TOTAL     ACCESS:    3711761  HIT:    1851817  MISS:    1859944
LLC LOAD      ACCESS:     560550  HIT:     496910  MISS:      63640
LLC RFO       ACCESS:     527396  HIT:     239272  MISS:     288124
LLC PREFETCH  ACCESS:    2005290  HIT:     645911  MISS:    1359379
LLC WRITEBACK ACCESS:     618525  HIT:     469724  MISS:     148801
LLC PREFETCH  REQUESTED:          0  ISSUED:          0  USEFUL:      44206  USELESS:    1309293
LLC TOTAL MSHR MERGED:       4430
LLC LOAD MSHR MERGED:          0
LLC RFO MSHR MERGED:          0
LLC PREFETCH MSHR MERGED:       4430
LLC WRITEBACK MSHR MERGED:          0
LLC TOTAL ACCESSES:    3798404 HITS:    1934030 MISSES:    1864374
LLC LOAD ACCESSES:     560581 HITS:     496941 MISSES:      63640
LLC RFO ACCESSES:     609495 HITS:     321371 MISSES:     288124
LLC PREFETCH ACCESSES:    2009803 HITS:     645994 MISSES:    1363809
LLC WRITEBACK ACCESSES:     618525 HITS:     469724 MISSES:     148801
LLC 0 RQ ACCESS:    1170077
LLC 0 RQ TO_CACHE:    1087947
LLC 0 RQ MERGED:          0
LLC 0 RQ FORWARD:          0
LLC WQ ACCESS:     618525
LLC WQ TO_CACHE:     618525
LLC WQ MERGED:          0
LLC WQ FORWARD:      82213
Major fault: 0 Minor fault: 12800
CPU 0 L1D next line prefetcher final stats
CPU 0 L2C PC-based stride prefetcher final stats
All Misses: 2257248
All Hits: 2305460
SD Algo Stats - Switches: 0 SRR-Repls: 80947 BRR-Repls: 0

DRAM Statistics
 CHANNEL 0
 RQ ROW_BUFFER_HIT:     843479  ROW_BUFFER_MISS:     867641
 DBUS_CONGESTED:     906967
 WQ ROW_BUFFER_HIT:      29881  ROW_BUFFER_MISS:     261471  FULL:          0

 AVG_CONGESTED_CYCLE: 13
LOADS RETIRED: 239375970
INSTR RETIRED: 500000000
