
*** ChampSim Multicore Out-of-Order Simulator ***

Warmup Instructions: 100000000
Simulation Instructions: 500000000
Number of CPUs: 1
LLC sets: 2048
LLC ways: 16
Clean RRIP Policies: 2212230222122302 Dirty RRIP Policies: 1202130212021302 PSEL Width: 10 Track Set: 4294967295 PSEL Mask: 1 Demote Mask: 1040100010401000DS Algo: 0Window size: 0
Off-chip DRAM Size: 4096 MB Channels: 1 Width: 64-bit Data Rate: 1600 MT/s

CPU 0 runs /mnt/beegfs/iconst01/spec2017/Wrf.trace.gz
NOT SORTED
TRACE STRING: /mnt/beegfs/iconst01/spec2017/Wrf.trace.gz
SORTED
TRACE STRING: /mnt/beegfs/iconst01/spec2017/Wrf.trace.gz
INITIAL
TRACE STRING: /mnt/beegfs/iconst01/spec2017/Wrf.trace.gz

champsim_seed used: 303

CPU 0 L1D next line prefetcher
CPU 0 L2C IP-based stride prefetcher
Initialize DRRIP state
Assign rand_sets[0]: 454  LLC: 2048
rand_sets[0]: 454
Assign rand_sets[1]: 1662  LLC: 2048
rand_sets[1]: 1662
Assign rand_sets[2]: 1921  LLC: 2048
rand_sets[2]: 1921
Assign rand_sets[3]: 1131  LLC: 2048
rand_sets[3]: 1131
Assign rand_sets[4]: 331  LLC: 2048
rand_sets[4]: 331
Assign rand_sets[5]: 1531  LLC: 2048
rand_sets[5]: 1531
Assign rand_sets[6]: 482  LLC: 2048
rand_sets[6]: 482
Assign rand_sets[7]: 1275  LLC: 2048
rand_sets[7]: 1275
Assign rand_sets[8]: 1876  LLC: 2048
rand_sets[8]: 1876
Assign rand_sets[9]: 2038  LLC: 2048
rand_sets[9]: 2038
Assign rand_sets[10]: 701  LLC: 2048
rand_sets[10]: 701
Assign rand_sets[11]: 479  LLC: 2048
rand_sets[11]: 479
Assign rand_sets[12]: 892  LLC: 2048
rand_sets[12]: 892
Assign rand_sets[13]: 1820  LLC: 2048
rand_sets[13]: 1820
Assign rand_sets[14]: 1505  LLC: 2048
rand_sets[14]: 1505
Assign rand_sets[15]: 1159  LLC: 2048
rand_sets[15]: 1159
Assign rand_sets[16]: 513  LLC: 2048
rand_sets[16]: 513
Assign rand_sets[17]: 703  LLC: 2048
rand_sets[17]: 703
Assign rand_sets[18]: 561  LLC: 2048
rand_sets[18]: 561
Assign rand_sets[19]: 990  LLC: 2048
rand_sets[19]: 990
Assign rand_sets[20]: 342  LLC: 2048
rand_sets[20]: 342
Assign rand_sets[21]: 882  LLC: 2048
rand_sets[21]: 882
Assign rand_sets[22]: 15  LLC: 2048
rand_sets[22]: 15
Assign rand_sets[23]: 71  LLC: 2048
rand_sets[23]: 71
Assign rand_sets[24]: 1127  LLC: 2048
rand_sets[24]: 1127
Assign rand_sets[25]: 1382  LLC: 2048
rand_sets[25]: 1382
Assign rand_sets[26]: 647  LLC: 2048
rand_sets[26]: 647
Assign rand_sets[27]: 857  LLC: 2048
rand_sets[27]: 857
Assign rand_sets[28]: 1450  LLC: 2048
rand_sets[28]: 1450
Assign rand_sets[29]: 1160  LLC: 2048
rand_sets[29]: 1160
Assign rand_sets[30]: 1852  LLC: 2048
rand_sets[30]: 1852
Assign rand_sets[31]: 1881  LLC: 2048
rand_sets[31]: 1881
Assign rand_sets[32]: 1770  LLC: 2048
rand_sets[32]: 1770
Assign rand_sets[33]: 1622  LLC: 2048
rand_sets[33]: 1622
Assign rand_sets[34]: 275  LLC: 2048
rand_sets[34]: 275
Assign rand_sets[35]: 635  LLC: 2048
rand_sets[35]: 635
Assign rand_sets[36]: 466  LLC: 2048
rand_sets[36]: 466
Assign rand_sets[37]: 1413  LLC: 2048
rand_sets[37]: 1413
Assign rand_sets[38]: 417  LLC: 2048
rand_sets[38]: 417
Assign rand_sets[39]: 472  LLC: 2048
rand_sets[39]: 472
Assign rand_sets[40]: 1340  LLC: 2048
rand_sets[40]: 1340
Assign rand_sets[41]: 852  LLC: 2048
rand_sets[41]: 852
Assign rand_sets[42]: 1365  LLC: 2048
rand_sets[42]: 1365
Assign rand_sets[43]: 47  LLC: 2048
rand_sets[43]: 47
Assign rand_sets[44]: 823  LLC: 2048
rand_sets[44]: 823
Assign rand_sets[45]: 686  LLC: 2048
rand_sets[45]: 686
Assign rand_sets[46]: 1637  LLC: 2048
rand_sets[46]: 1637
Assign rand_sets[47]: 1115  LLC: 2048
rand_sets[47]: 1115
Assign rand_sets[48]: 986  LLC: 2048
rand_sets[48]: 986
Assign rand_sets[49]: 258  LLC: 2048
rand_sets[49]: 258
Assign rand_sets[50]: 633  LLC: 2048
rand_sets[50]: 633
Assign rand_sets[51]: 920  LLC: 2048
rand_sets[51]: 920
Assign rand_sets[52]: 204  LLC: 2048
rand_sets[52]: 204
Assign rand_sets[53]: 227  LLC: 2048
rand_sets[53]: 227
Assign rand_sets[54]: 1818  LLC: 2048
rand_sets[54]: 1818
Assign rand_sets[55]: 886  LLC: 2048
rand_sets[55]: 886
Assign rand_sets[56]: 1422  LLC: 2048
rand_sets[56]: 1422
Assign rand_sets[57]: 607  LLC: 2048
rand_sets[57]: 607
Assign rand_sets[58]: 217  LLC: 2048
rand_sets[58]: 217
Assign rand_sets[59]: 1945  LLC: 2048
rand_sets[59]: 1945
Assign rand_sets[60]: 143  LLC: 2048
rand_sets[60]: 143
Assign rand_sets[61]: 1311  LLC: 2048
rand_sets[61]: 1311
Assign rand_sets[62]: 319  LLC: 2048
rand_sets[62]: 319
Assign rand_sets[63]: 1846  LLC: 2048
rand_sets[63]: 1846
 CLEAN-RRIP-POLICY-1: 2-2-1-2-2-3-0-2- CLEAN-RRIP-POLICY-2: 2-2-1-2-2-3-0-2-
 DIRTY-RRIP-POLICY-1: 1-2-0-2-1-3-0-2- DIRTY-RRIP-POLICY-2: 1-2-0-2-1-3-0-2-
 PSEL width: 10
Heartbeat CPU 0 instructions: 10000002 cycles: 6559548 heartbeat IPC: 1.5245 cumulative IPC: 1.5245 (Simulation time: 0 hr 0 min 21 sec) 
Heartbeat CPU 0 instructions: 20000000 cycles: 12222223 heartbeat IPC: 1.76595 cumulative IPC: 1.63636 (Simulation time: 0 hr 0 min 41 sec) 
Heartbeat CPU 0 instructions: 30000003 cycles: 18204082 heartbeat IPC: 1.67172 cumulative IPC: 1.64798 (Simulation time: 0 hr 1 min 1 sec) 
Heartbeat CPU 0 instructions: 40000000 cycles: 24059403 heartbeat IPC: 1.70785 cumulative IPC: 1.66255 (Simulation time: 0 hr 1 min 21 sec) 
Heartbeat CPU 0 instructions: 50000000 cycles: 29527760 heartbeat IPC: 1.8287 cumulative IPC: 1.69332 (Simulation time: 0 hr 1 min 41 sec) 
Heartbeat CPU 0 instructions: 60000000 cycles: 35640547 heartbeat IPC: 1.63592 cumulative IPC: 1.68348 (Simulation time: 0 hr 2 min 2 sec) 
Heartbeat CPU 0 instructions: 70000000 cycles: 41360224 heartbeat IPC: 1.74835 cumulative IPC: 1.69245 (Simulation time: 0 hr 2 min 22 sec) 
Heartbeat CPU 0 instructions: 80000000 cycles: 47231189 heartbeat IPC: 1.7033 cumulative IPC: 1.6938 (Simulation time: 0 hr 2 min 43 sec) 
Heartbeat CPU 0 instructions: 90000000 cycles: 52984712 heartbeat IPC: 1.73807 cumulative IPC: 1.6986 (Simulation time: 0 hr 3 min 3 sec) 
Heartbeat CPU 0 instructions: 100000000 cycles: 58537240 heartbeat IPC: 1.80098 cumulative IPC: 1.70831 (Simulation time: 0 hr 3 min 23 sec) 

Warmup complete CPU 0 instructions: 100000004 cycles: 58537242 (Simulation time: 0 hr 3 min 23 sec) 

Heartbeat CPU 0 instructions: 110000001 cycles: 72770183 heartbeat IPC: 0.702595 cumulative IPC: 0.702595 (Simulation time: 0 hr 3 min 48 sec) 
Heartbeat CPU 0 instructions: 120000000 cycles: 82874819 heartbeat IPC: 0.989645 cumulative IPC: 0.821774 (Simulation time: 0 hr 4 min 11 sec) 
Heartbeat CPU 0 instructions: 130000000 cycles: 93145573 heartbeat IPC: 0.973638 cumulative IPC: 0.866843 (Simulation time: 0 hr 4 min 34 sec) 
Heartbeat CPU 0 instructions: 140000000 cycles: 103928791 heartbeat IPC: 0.927367 cumulative IPC: 0.881221 (Simulation time: 0 hr 4 min 57 sec) 
Heartbeat CPU 0 instructions: 150000002 cycles: 114674710 heartbeat IPC: 0.930586 cumulative IPC: 0.890671 (Simulation time: 0 hr 5 min 20 sec) 
Heartbeat CPU 0 instructions: 160000000 cycles: 123911260 heartbeat IPC: 1.08266 cumulative IPC: 0.917796 (Simulation time: 0 hr 5 min 42 sec) 
Heartbeat CPU 0 instructions: 170000003 cycles: 134485935 heartbeat IPC: 0.945656 cumulative IPC: 0.921675 (Simulation time: 0 hr 6 min 4 sec) 
Heartbeat CPU 0 instructions: 180000000 cycles: 146999277 heartbeat IPC: 0.799147 cumulative IPC: 0.904343 (Simulation time: 0 hr 6 min 29 sec) 
Heartbeat CPU 0 instructions: 190000000 cycles: 162200052 heartbeat IPC: 0.657861 cumulative IPC: 0.868199 (Simulation time: 0 hr 6 min 53 sec) 
Heartbeat CPU 0 instructions: 200000000 cycles: 177411197 heartbeat IPC: 0.657413 cumulative IPC: 0.841227 (Simulation time: 0 hr 7 min 17 sec) 
Heartbeat CPU 0 instructions: 210000000 cycles: 192530568 heartbeat IPC: 0.661403 cumulative IPC: 0.820936 (Simulation time: 0 hr 7 min 41 sec) 
Heartbeat CPU 0 instructions: 220000000 cycles: 208418340 heartbeat IPC: 0.629415 cumulative IPC: 0.800635 (Simulation time: 0 hr 8 min 6 sec) 
Heartbeat CPU 0 instructions: 230000003 cycles: 227055663 heartbeat IPC: 0.536558 cumulative IPC: 0.771429 (Simulation time: 0 hr 8 min 34 sec) 
Heartbeat CPU 0 instructions: 240000000 cycles: 236840470 heartbeat IPC: 1.02199 cumulative IPC: 0.785179 (Simulation time: 0 hr 8 min 56 sec) 
Heartbeat CPU 0 instructions: 250000000 cycles: 245959774 heartbeat IPC: 1.09657 cumulative IPC: 0.800331 (Simulation time: 0 hr 9 min 18 sec) 
Heartbeat CPU 0 instructions: 260000000 cycles: 255248320 heartbeat IPC: 1.07659 cumulative IPC: 0.813376 (Simulation time: 0 hr 9 min 39 sec) 
Heartbeat CPU 0 instructions: 270000000 cycles: 264884079 heartbeat IPC: 1.0378 cumulative IPC: 0.823856 (Simulation time: 0 hr 10 min 2 sec) 
Heartbeat CPU 0 instructions: 280000000 cycles: 274508361 heartbeat IPC: 1.03904 cumulative IPC: 0.833445 (Simulation time: 0 hr 10 min 25 sec) 
Heartbeat CPU 0 instructions: 290000000 cycles: 284517257 heartbeat IPC: 0.999111 cumulative IPC: 0.840782 (Simulation time: 0 hr 10 min 50 sec) 
Heartbeat CPU 0 instructions: 300000000 cycles: 293502382 heartbeat IPC: 1.11295 cumulative IPC: 0.85119 (Simulation time: 0 hr 11 min 12 sec) 
Heartbeat CPU 0 instructions: 310000002 cycles: 308374697 heartbeat IPC: 0.67239 cumulative IPC: 0.840546 (Simulation time: 0 hr 11 min 38 sec) 
Heartbeat CPU 0 instructions: 320000000 cycles: 324917897 heartbeat IPC: 0.604478 cumulative IPC: 0.825886 (Simulation time: 0 hr 12 min 6 sec) 
Heartbeat CPU 0 instructions: 330000002 cycles: 335727130 heartbeat IPC: 0.925135 cumulative IPC: 0.829756 (Simulation time: 0 hr 12 min 30 sec) 
Heartbeat CPU 0 instructions: 340000000 cycles: 346451816 heartbeat IPC: 0.932428 cumulative IPC: 0.833581 (Simulation time: 0 hr 12 min 53 sec) 
Heartbeat CPU 0 instructions: 350000002 cycles: 359823362 heartbeat IPC: 0.747857 cumulative IPC: 0.829776 (Simulation time: 0 hr 13 min 19 sec) 
Heartbeat CPU 0 instructions: 360000000 cycles: 371293256 heartbeat IPC: 0.871847 cumulative IPC: 0.831319 (Simulation time: 0 hr 13 min 42 sec) 
Heartbeat CPU 0 instructions: 370000000 cycles: 382219171 heartbeat IPC: 0.915255 cumulative IPC: 0.834152 (Simulation time: 0 hr 14 min 6 sec) 
Heartbeat CPU 0 instructions: 380000000 cycles: 393027686 heartbeat IPC: 0.925196 cumulative IPC: 0.837094 (Simulation time: 0 hr 14 min 30 sec) 
Heartbeat CPU 0 instructions: 390000003 cycles: 410576071 heartbeat IPC: 0.569853 cumulative IPC: 0.823773 (Simulation time: 0 hr 14 min 58 sec) 
Heartbeat CPU 0 instructions: 400000000 cycles: 421020045 heartbeat IPC: 0.95749 cumulative IPC: 0.827625 (Simulation time: 0 hr 15 min 20 sec) 
Heartbeat CPU 0 instructions: 410000002 cycles: 430954399 heartbeat IPC: 1.00661 cumulative IPC: 0.8324 (Simulation time: 0 hr 15 min 41 sec) 
Heartbeat CPU 0 instructions: 420000000 cycles: 440822996 heartbeat IPC: 1.01332 cumulative IPC: 0.83707 (Simulation time: 0 hr 16 min 3 sec) 
Heartbeat CPU 0 instructions: 430000001 cycles: 450736424 heartbeat IPC: 1.00873 cumulative IPC: 0.841409 (Simulation time: 0 hr 16 min 24 sec) 
Heartbeat CPU 0 instructions: 440000000 cycles: 462242232 heartbeat IPC: 0.869126 cumulative IPC: 0.842199 (Simulation time: 0 hr 16 min 46 sec) 
Heartbeat CPU 0 instructions: 450000002 cycles: 477443099 heartbeat IPC: 0.657857 cumulative IPC: 0.83551 (Simulation time: 0 hr 17 min 10 sec) 
Heartbeat CPU 0 instructions: 460000000 cycles: 492659984 heartbeat IPC: 0.657165 cumulative IPC: 0.829259 (Simulation time: 0 hr 17 min 33 sec) 
Heartbeat CPU 0 instructions: 470000003 cycles: 507795006 heartbeat IPC: 0.660719 cumulative IPC: 0.823581 (Simulation time: 0 hr 17 min 57 sec) 
Heartbeat CPU 0 instructions: 480000000 cycles: 523692352 heartbeat IPC: 0.629036 cumulative IPC: 0.816932 (Simulation time: 0 hr 18 min 22 sec) 
Heartbeat CPU 0 instructions: 490000002 cycles: 542417052 heartbeat IPC: 0.534054 cumulative IPC: 0.805985 (Simulation time: 0 hr 18 min 50 sec) 
Heartbeat CPU 0 instructions: 500000000 cycles: 552152477 heartbeat IPC: 1.02718 cumulative IPC: 0.810348 (Simulation time: 0 hr 19 min 11 sec) 
Heartbeat CPU 0 instructions: 510000002 cycles: 561334169 heartbeat IPC: 1.08912 cumulative IPC: 0.815439 (Simulation time: 0 hr 19 min 32 sec) 
Heartbeat CPU 0 instructions: 520000000 cycles: 570628912 heartbeat IPC: 1.07588 cumulative IPC: 0.820166 (Simulation time: 0 hr 19 min 53 sec) 
Heartbeat CPU 0 instructions: 530000002 cycles: 580264155 heartbeat IPC: 1.03786 cumulative IPC: 0.824186 (Simulation time: 0 hr 20 min 15 sec) 
Heartbeat CPU 0 instructions: 540000000 cycles: 589834671 heartbeat IPC: 1.04488 cumulative IPC: 0.828161 (Simulation time: 0 hr 20 min 38 sec) 
Heartbeat CPU 0 instructions: 550000002 cycles: 599876445 heartbeat IPC: 0.99584 cumulative IPC: 0.831272 (Simulation time: 0 hr 21 min 2 sec) 
Heartbeat CPU 0 instructions: 560000000 cycles: 608856536 heartbeat IPC: 1.11357 cumulative IPC: 0.835878 (Simulation time: 0 hr 21 min 24 sec) 
Heartbeat CPU 0 instructions: 570000001 cycles: 623571296 heartbeat IPC: 0.67959 cumulative IPC: 0.831808 (Simulation time: 0 hr 21 min 50 sec) 
Heartbeat CPU 0 instructions: 580000000 cycles: 640191735 heartbeat IPC: 0.601669 cumulative IPC: 0.825232 (Simulation time: 0 hr 22 min 17 sec) 
Heartbeat CPU 0 instructions: 590000002 cycles: 650597086 heartbeat IPC: 0.961044 cumulative IPC: 0.827619 (Simulation time: 0 hr 22 min 40 sec) 
Heartbeat CPU 0 instructions: 600000000 cycles: 661743756 heartbeat IPC: 0.897129 cumulative IPC: 0.828903 (Simulation time: 0 hr 23 min 4 sec) 
Finished CPU 0 instructions: 500000000 cycles: 603206533 cumulative IPC: 0.828903 (Simulation time: 0 hr 23 min 4 sec) 

CPU 0 Branch Prediction Accuracy: 99.5219% MPKI: 0.251582
Number of Branches: 26312578 Number of Mispredictions: 125791
Number of LOAD Instructions: 235643083
Number of LOAD Instructions (ROI): 235643083
Number of STORE Instructions: 37593550
Number of STORE Instructions (ROI): 37593550
Total Destination Memory Operands: 40480968
Total Destination Memory Operands (ROI): 40480968
Total Source Memory Operands: 235643083
Total Source Memory Operands (ROI): 235643083
Number of DEPENDED LOADS: 6700087
Number of DEPENDED LOADS (ROI): 6700087
Number of SQ_ADDED: 40480950
Number of SQ_ADDED (ROI): 40480950
Number of LQ_ADDED: 394040928
Number of LQ_ADDED (ROI): 394040928
Number of Instructions read from trace: 600000259

ChampSim completed all CPUs

Region of Interest Statistics

CPU 0 cumulative IPC: 0.828903 instructions: 500000000 cycles: 603206533
ITLB TOTAL     ACCESS:  109349248  HIT:  109348735  MISS:        513
ITLB LOAD      ACCESS:  109349248  HIT:  109348735  MISS:        513
ITLB RFO       ACCESS:          0  HIT:          0  MISS:          0
ITLB PREFETCH  ACCESS:          0  HIT:          0  MISS:          0
ITLB WRITEBACK ACCESS:          0  HIT:          0  MISS:          0
ITLB PREFETCH  REQUESTED:          0  ISSUED:          0  USEFUL:          0  USELESS:          0
ITLB TOTAL MSHR MERGED:        974
ITLB LOAD MSHR MERGED:        974
ITLB RFO MSHR MERGED:          0
ITLB PREFETCH MSHR MERGED:          0
ITLB WRITEBACK MSHR MERGED:          0
ITLB TOTAL ACCESSES:  109350222 HITS:  109348735 MISSES:       1487
ITLB LOAD ACCESSES:  109350222 HITS:  109348735 MISSES:       1487
ITLB RFO ACCESSES:          0 HITS:          0 MISSES:          0
ITLB PREFETCH ACCESSES:          0 HITS:          0 MISSES:          0
ITLB WRITEBACK ACCESSES:          0 HITS:          0 MISSES:          0
ITLB RQ ACCESS:  500000003
ITLB RQ TO_CACHE:  109350222
ITLB RQ MERGED:  390649781
ITLB RQ FORWARD:          0
ITLB WQ ACCESS:          0
ITLB WQ TO_CACHE:          0
ITLB WQ MERGED:          0
ITLB WQ FORWARD:          0
DTLB TOTAL     ACCESS:  130407458  HIT:  130149778  MISS:     257680
DTLB LOAD      ACCESS:  109031195  HIT:  108810356  MISS:     220839
DTLB RFO       ACCESS:   21376263  HIT:   21339422  MISS:      36841
DTLB PREFETCH  ACCESS:          0  HIT:          0  MISS:          0
DTLB WRITEBACK ACCESS:          0  HIT:          0  MISS:          0
DTLB PREFETCH  REQUESTED:          0  ISSUED:          0  USEFUL:          0  USELESS:          0
DTLB TOTAL MSHR MERGED:     122677
DTLB LOAD MSHR MERGED:      84695
DTLB RFO MSHR MERGED:      37982
DTLB PREFETCH MSHR MERGED:          0
DTLB WRITEBACK MSHR MERGED:          0
DTLB TOTAL ACCESSES:  130530135 HITS:  130149778 MISSES:     380357
DTLB LOAD ACCESSES:  109115890 HITS:  108810356 MISSES:     305534
DTLB RFO ACCESSES:   21414245 HITS:   21339422 MISSES:      74823
DTLB PREFETCH ACCESSES:          0 HITS:          0 MISSES:          0
DTLB WRITEBACK ACCESSES:          0 HITS:          0 MISSES:          0
DTLB RQ ACCESS:  218634321
DTLB RQ TO_CACHE:  130530136
DTLB RQ MERGED:   88104185
DTLB RQ FORWARD:          0
DTLB WQ ACCESS:          0
DTLB WQ TO_CACHE:          0
DTLB WQ MERGED:          0
DTLB WQ FORWARD:          0
L1D TOTAL     ACCESS:  204647191  HIT:  193577119  MISS:   11070072
L1D LOAD      ACCESS:  106227755  HIT:  103020942  MISS:    3206813
L1D RFO       ACCESS:   26945525  HIT:   25193947  MISS:    1751578
L1D PREFETCH  ACCESS:   71473911  HIT:   65362230  MISS:    6111681
L1D WRITEBACK ACCESS:          0  HIT:          0  MISS:          0
L1D PREFETCH  REQUESTED:  108931053  ISSUED:  107276815  USEFUL:    5660446  USELESS:     451229
L1D TOTAL MSHR MERGED:   18355071
L1D LOAD MSHR MERGED:    4750182
L1D RFO MSHR MERGED:    6488387
L1D PREFETCH MSHR MERGED:    7116502
L1D WRITEBACK MSHR MERGED:          0
L1D TOTAL ACCESSES:  223065277 HITS:  193640134 MISSES:   29425143
L1D LOAD ACCESSES:  108958266 HITS:  103048155 MISSES:    5910111
L1D RFO ACCESSES:   33431078 HITS:   25193947 MISSES:    8237131
L1D PREFETCH ACCESSES:   80675933 HITS:   65398032 MISSES:   15277901
L1D WRITEBACK ACCESSES:          0 HITS:          0 MISSES:          0
L1D RQ ACCESS:  184990883
L1D RQ TO_CACHE:  108931053
L1D RQ MERGED:   76032617
L1D RQ FORWARD:          0
L1D WQ ACCESS:   33643426
L1D WQ TO_CACHE:   33431077
L1D WQ MERGED:     212349
L1D WQ FORWARD:      63015
L1I TOTAL     ACCESS:  134027136  HIT:  134002558  MISS:      24578
L1I LOAD      ACCESS:  134027136  HIT:  134002558  MISS:      24578
L1I RFO       ACCESS:          0  HIT:          0  MISS:          0
L1I PREFETCH  ACCESS:          0  HIT:          0  MISS:          0
L1I WRITEBACK ACCESS:          0  HIT:          0  MISS:          0
L1I PREFETCH  REQUESTED:          0  ISSUED:          0  USEFUL:          0  USELESS:          0
L1I TOTAL MSHR MERGED:      30583
L1I LOAD MSHR MERGED:      30583
L1I RFO MSHR MERGED:          0
L1I PREFETCH MSHR MERGED:          0
L1I WRITEBACK MSHR MERGED:          0
L1I TOTAL ACCESSES:  134057719 HITS:  134002558 MISSES:      55161
L1I LOAD ACCESSES:  134057719 HITS:  134002558 MISSES:      55161
L1I RFO ACCESSES:          0 HITS:          0 MISSES:          0
L1I PREFETCH ACCESSES:          0 HITS:          0 MISSES:          0
L1I WRITEBACK ACCESSES:          0 HITS:          0 MISSES:          0
L1I RQ ACCESS:  500000005
L1I RQ TO_CACHE:  134057719
L1I RQ MERGED:  365942286
L1I RQ FORWARD:          0
L1I WQ ACCESS:          0
L1I WQ TO_CACHE:          0
L1I WQ MERGED:          0
L1I WQ FORWARD:          0
L2C TOTAL     ACCESS:   14942895  HIT:    6948154  MISS:    7994741
L2C LOAD      ACCESS:    1184316  HIT:     299384  MISS:     884932
L2C RFO       ACCESS:    1748539  HIT:     369437  MISS:    1379102
L2C PREFETCH  ACCESS:    8328137  HIT:    2606114  MISS:    5722023
L2C WRITEBACK ACCESS:    3681903  HIT:    3673219  MISS:       8684
L2C PREFETCH  REQUESTED:     387755  ISSUED:     387752  USEFUL:     114067  USELESS:    5608792
L2C TOTAL MSHR MERGED:      42614
L2C LOAD MSHR MERGED:       2221
L2C RFO MSHR MERGED:       1353
L2C PREFETCH MSHR MERGED:      39040
L2C WRITEBACK MSHR MERGED:          0
L2C TOTAL ACCESSES:   15098638 HITS:    6948824 MISSES:    8149814
L2C LOAD ACCESSES:    1184507 HITS:     299575 MISSES:     884932
L2C RFO ACCESSES:    1748744 HITS:     369642 MISSES:    1379102
L2C PREFETCH ACCESSES:    8483484 HITS:    2606388 MISSES:    5877096
L2C WRITEBACK ACCESSES:    3681903 HITS:    3673219 MISSES:       8684
L2C RQ ACCESS:    2933251
L2C RQ TO_CACHE:    2932855
L2C RQ MERGED:          0
L2C RQ FORWARD:          0
L2C WQ ACCESS:    3681903
L2C WQ TO_CACHE:    3681903
L2C WQ MERGED:          0
L2C WQ FORWARD:        670
LLC TOTAL     ACCESS:   11176876  HIT:    3724952  MISS:    7451924
LLC LOAD      ACCESS:     882708  HIT:     285526  MISS:     597182
LLC RFO       ACCESS:    1377746  HIT:     208556  MISS:    1169190
LLC PREFETCH  ACCESS:    5813108  HIT:    1235943  MISS:    4577165
LLC WRITEBACK ACCESS:    3103314  HIT:    1994927  MISS:    1108387
LLC PREFETCH  REQUESTED:          0  ISSUED:          0  USEFUL:     153047  USELESS:    4420398
LLC TOTAL MSHR MERGED:      17612
LLC LOAD MSHR MERGED:       4975
LLC RFO MSHR MERGED:        711
LLC PREFETCH MSHR MERGED:      11926
LLC WRITEBACK MSHR MERGED:          0
LLC TOTAL ACCESSES:   11194503 HITS:    3724967 MISSES:    7469536
LLC LOAD ACCESSES:     882711 HITS:     285529 MISSES:     597182
LLC RFO ACCESSES:    1377749 HITS:     208559 MISSES:    1169190
LLC PREFETCH ACCESSES:    5830729 HITS:    1235952 MISSES:    4594777
LLC WRITEBACK ACCESSES:    3103314 HITS:    1994927 MISSES:    1108387
LLC 0 RQ ACCESS:    2260460
LLC 0 RQ TO_CACHE:    2260454
LLC 0 RQ MERGED:          0
LLC 0 RQ FORWARD:          0
LLC WQ ACCESS:    3103314
LLC WQ TO_CACHE:    3103314
LLC WQ MERGED:          0
LLC WQ FORWARD:         15
Major fault: 0 Minor fault: 11519
CPU 0 L1D next line prefetcher final stats
CPU 0 L2C PC-based stride prefetcher final stats
All Misses: 9326763
All Hits: 4461403
SD Algo Stats - Switches: 0 SRR-Repls: 672310 BRR-Repls: 0

DRAM Statistics
 CHANNEL 0
 RQ ROW_BUFFER_HIT:    3710577  ROW_BUFFER_MISS:    2631773
 DBUS_CONGESTED:    4631427
 WQ ROW_BUFFER_HIT:     438361  ROW_BUFFER_MISS:    1899017  FULL:          7

 AVG_CONGESTED_CYCLE: 13
LOADS RETIRED: 190375692
INSTR RETIRED: 500000000
