
*** ChampSim Multicore Out-of-Order Simulator ***

Warmup Instructions: 100000000
Simulation Instructions: 500000000
Number of CPUs: 1
LLC sets: 2048
LLC ways: 16
Clean RRIP Policies: 2213230222132302 Dirty RRIP Policies: 1203130212031302 PSEL Width: 10 Track Set: 4294967295 PSEL Mask: 1 Demote Mask: 1040104010401040DS Algo: 0Window size: 0
Off-chip DRAM Size: 4096 MB Channels: 1 Width: 64-bit Data Rate: 1600 MT/s

CPU 0 runs /mnt/beegfs/iconst01/spec2017/cactuBSSN.trace.gz
NOT SORTED
TRACE STRING: /mnt/beegfs/iconst01/spec2017/cactuBSSN.trace.gz
SORTED
TRACE STRING: /mnt/beegfs/iconst01/spec2017/cactuBSSN.trace.gz
INITIAL
TRACE STRING: /mnt/beegfs/iconst01/spec2017/cactuBSSN.trace.gz

champsim_seed used: 838

CPU 0 L1D next line prefetcher
CPU 0 L2C IP-based stride prefetcher
Initialize DRRIP state
Assign rand_sets[0]: 454  LLC: 2048
rand_sets[0]: 454
Assign rand_sets[1]: 1662  LLC: 2048
rand_sets[1]: 1662
Assign rand_sets[2]: 1921  LLC: 2048
rand_sets[2]: 1921
Assign rand_sets[3]: 1131  LLC: 2048
rand_sets[3]: 1131
Assign rand_sets[4]: 331  LLC: 2048
rand_sets[4]: 331
Assign rand_sets[5]: 1531  LLC: 2048
rand_sets[5]: 1531
Assign rand_sets[6]: 482  LLC: 2048
rand_sets[6]: 482
Assign rand_sets[7]: 1275  LLC: 2048
rand_sets[7]: 1275
Assign rand_sets[8]: 1876  LLC: 2048
rand_sets[8]: 1876
Assign rand_sets[9]: 2038  LLC: 2048
rand_sets[9]: 2038
Assign rand_sets[10]: 701  LLC: 2048
rand_sets[10]: 701
Assign rand_sets[11]: 479  LLC: 2048
rand_sets[11]: 479
Assign rand_sets[12]: 892  LLC: 2048
rand_sets[12]: 892
Assign rand_sets[13]: 1820  LLC: 2048
rand_sets[13]: 1820
Assign rand_sets[14]: 1505  LLC: 2048
rand_sets[14]: 1505
Assign rand_sets[15]: 1159  LLC: 2048
rand_sets[15]: 1159
Assign rand_sets[16]: 513  LLC: 2048
rand_sets[16]: 513
Assign rand_sets[17]: 703  LLC: 2048
rand_sets[17]: 703
Assign rand_sets[18]: 561  LLC: 2048
rand_sets[18]: 561
Assign rand_sets[19]: 990  LLC: 2048
rand_sets[19]: 990
Assign rand_sets[20]: 342  LLC: 2048
rand_sets[20]: 342
Assign rand_sets[21]: 882  LLC: 2048
rand_sets[21]: 882
Assign rand_sets[22]: 15  LLC: 2048
rand_sets[22]: 15
Assign rand_sets[23]: 71  LLC: 2048
rand_sets[23]: 71
Assign rand_sets[24]: 1127  LLC: 2048
rand_sets[24]: 1127
Assign rand_sets[25]: 1382  LLC: 2048
rand_sets[25]: 1382
Assign rand_sets[26]: 647  LLC: 2048
rand_sets[26]: 647
Assign rand_sets[27]: 857  LLC: 2048
rand_sets[27]: 857
Assign rand_sets[28]: 1450  LLC: 2048
rand_sets[28]: 1450
Assign rand_sets[29]: 1160  LLC: 2048
rand_sets[29]: 1160
Assign rand_sets[30]: 1852  LLC: 2048
rand_sets[30]: 1852
Assign rand_sets[31]: 1881  LLC: 2048
rand_sets[31]: 1881
Assign rand_sets[32]: 1770  LLC: 2048
rand_sets[32]: 1770
Assign rand_sets[33]: 1622  LLC: 2048
rand_sets[33]: 1622
Assign rand_sets[34]: 275  LLC: 2048
rand_sets[34]: 275
Assign rand_sets[35]: 635  LLC: 2048
rand_sets[35]: 635
Assign rand_sets[36]: 466  LLC: 2048
rand_sets[36]: 466
Assign rand_sets[37]: 1413  LLC: 2048
rand_sets[37]: 1413
Assign rand_sets[38]: 417  LLC: 2048
rand_sets[38]: 417
Assign rand_sets[39]: 472  LLC: 2048
rand_sets[39]: 472
Assign rand_sets[40]: 1340  LLC: 2048
rand_sets[40]: 1340
Assign rand_sets[41]: 852  LLC: 2048
rand_sets[41]: 852
Assign rand_sets[42]: 1365  LLC: 2048
rand_sets[42]: 1365
Assign rand_sets[43]: 47  LLC: 2048
rand_sets[43]: 47
Assign rand_sets[44]: 823  LLC: 2048
rand_sets[44]: 823
Assign rand_sets[45]: 686  LLC: 2048
rand_sets[45]: 686
Assign rand_sets[46]: 1637  LLC: 2048
rand_sets[46]: 1637
Assign rand_sets[47]: 1115  LLC: 2048
rand_sets[47]: 1115
Assign rand_sets[48]: 986  LLC: 2048
rand_sets[48]: 986
Assign rand_sets[49]: 258  LLC: 2048
rand_sets[49]: 258
Assign rand_sets[50]: 633  LLC: 2048
rand_sets[50]: 633
Assign rand_sets[51]: 920  LLC: 2048
rand_sets[51]: 920
Assign rand_sets[52]: 204  LLC: 2048
rand_sets[52]: 204
Assign rand_sets[53]: 227  LLC: 2048
rand_sets[53]: 227
Assign rand_sets[54]: 1818  LLC: 2048
rand_sets[54]: 1818
Assign rand_sets[55]: 886  LLC: 2048
rand_sets[55]: 886
Assign rand_sets[56]: 1422  LLC: 2048
rand_sets[56]: 1422
Assign rand_sets[57]: 607  LLC: 2048
rand_sets[57]: 607
Assign rand_sets[58]: 217  LLC: 2048
rand_sets[58]: 217
Assign rand_sets[59]: 1945  LLC: 2048
rand_sets[59]: 1945
Assign rand_sets[60]: 143  LLC: 2048
rand_sets[60]: 143
Assign rand_sets[61]: 1311  LLC: 2048
rand_sets[61]: 1311
Assign rand_sets[62]: 319  LLC: 2048
rand_sets[62]: 319
Assign rand_sets[63]: 1846  LLC: 2048
rand_sets[63]: 1846
 CLEAN-RRIP-POLICY-1: 2-2-1-3-2-3-0-2- CLEAN-RRIP-POLICY-2: 2-2-1-3-2-3-0-2-
 DIRTY-RRIP-POLICY-1: 1-2-0-3-1-3-0-2- DIRTY-RRIP-POLICY-2: 1-2-0-3-1-3-0-2-
 PSEL width: 10
Heartbeat CPU 0 instructions: 10000000 cycles: 6588002 heartbeat IPC: 1.51791 cumulative IPC: 1.51791 (Simulation time: 0 hr 0 min 24 sec) 
Heartbeat CPU 0 instructions: 20000000 cycles: 13179590 heartbeat IPC: 1.51709 cumulative IPC: 1.5175 (Simulation time: 0 hr 0 min 48 sec) 
Heartbeat CPU 0 instructions: 30000003 cycles: 19772908 heartbeat IPC: 1.51669 cumulative IPC: 1.51723 (Simulation time: 0 hr 1 min 13 sec) 
Heartbeat CPU 0 instructions: 40000000 cycles: 26364656 heartbeat IPC: 1.51705 cumulative IPC: 1.51718 (Simulation time: 0 hr 1 min 37 sec) 
Heartbeat CPU 0 instructions: 50000001 cycles: 32957329 heartbeat IPC: 1.51684 cumulative IPC: 1.51711 (Simulation time: 0 hr 2 min 2 sec) 
Heartbeat CPU 0 instructions: 60000000 cycles: 39556142 heartbeat IPC: 1.51542 cumulative IPC: 1.51683 (Simulation time: 0 hr 2 min 26 sec) 
Heartbeat CPU 0 instructions: 70000003 cycles: 46154517 heartbeat IPC: 1.51553 cumulative IPC: 1.51664 (Simulation time: 0 hr 2 min 51 sec) 
Heartbeat CPU 0 instructions: 80000000 cycles: 52752567 heartbeat IPC: 1.5156 cumulative IPC: 1.51651 (Simulation time: 0 hr 3 min 15 sec) 
Heartbeat CPU 0 instructions: 90000002 cycles: 59348240 heartbeat IPC: 1.51615 cumulative IPC: 1.51647 (Simulation time: 0 hr 3 min 40 sec) 
Heartbeat CPU 0 instructions: 100000000 cycles: 65943299 heartbeat IPC: 1.51629 cumulative IPC: 1.51645 (Simulation time: 0 hr 4 min 4 sec) 

Warmup complete CPU 0 instructions: 100000002 cycles: 65943300 (Simulation time: 0 hr 4 min 4 sec) 

Heartbeat CPU 0 instructions: 110000000 cycles: 79179615 heartbeat IPC: 0.755497 cumulative IPC: 0.755497 (Simulation time: 0 hr 4 min 34 sec) 
Heartbeat CPU 0 instructions: 120000000 cycles: 92380921 heartbeat IPC: 0.757501 cumulative IPC: 0.756498 (Simulation time: 0 hr 5 min 3 sec) 
Heartbeat CPU 0 instructions: 130000001 cycles: 105655786 heartbeat IPC: 0.753303 cumulative IPC: 0.75543 (Simulation time: 0 hr 5 min 33 sec) 
Heartbeat CPU 0 instructions: 140000000 cycles: 118829635 heartbeat IPC: 0.75908 cumulative IPC: 0.756339 (Simulation time: 0 hr 6 min 3 sec) 
Heartbeat CPU 0 instructions: 150000001 cycles: 132014791 heartbeat IPC: 0.758429 cumulative IPC: 0.756756 (Simulation time: 0 hr 6 min 33 sec) 
Heartbeat CPU 0 instructions: 160000000 cycles: 145241789 heartbeat IPC: 0.756029 cumulative IPC: 0.756635 (Simulation time: 0 hr 7 min 2 sec) 
Heartbeat CPU 0 instructions: 170000000 cycles: 158457289 heartbeat IPC: 0.756687 cumulative IPC: 0.756642 (Simulation time: 0 hr 7 min 32 sec) 
Heartbeat CPU 0 instructions: 180000000 cycles: 171654634 heartbeat IPC: 0.757728 cumulative IPC: 0.756778 (Simulation time: 0 hr 8 min 2 sec) 
Heartbeat CPU 0 instructions: 190000000 cycles: 184814407 heartbeat IPC: 0.759892 cumulative IPC: 0.757123 (Simulation time: 0 hr 8 min 32 sec) 
Heartbeat CPU 0 instructions: 200000000 cycles: 198066876 heartbeat IPC: 0.754576 cumulative IPC: 0.756867 (Simulation time: 0 hr 9 min 1 sec) 
Heartbeat CPU 0 instructions: 210000002 cycles: 211275189 heartbeat IPC: 0.757099 cumulative IPC: 0.756888 (Simulation time: 0 hr 9 min 31 sec) 
Heartbeat CPU 0 instructions: 220000000 cycles: 224445932 heartbeat IPC: 0.759258 cumulative IPC: 0.757085 (Simulation time: 0 hr 10 min 1 sec) 
Heartbeat CPU 0 instructions: 230000003 cycles: 237690698 heartbeat IPC: 0.755015 cumulative IPC: 0.756926 (Simulation time: 0 hr 10 min 31 sec) 
Heartbeat CPU 0 instructions: 240000000 cycles: 250877126 heartbeat IPC: 0.758355 cumulative IPC: 0.757028 (Simulation time: 0 hr 11 min 0 sec) 
Heartbeat CPU 0 instructions: 250000001 cycles: 264088783 heartbeat IPC: 0.756907 cumulative IPC: 0.75702 (Simulation time: 0 hr 11 min 30 sec) 
Heartbeat CPU 0 instructions: 260000000 cycles: 277298805 heartbeat IPC: 0.757001 cumulative IPC: 0.757018 (Simulation time: 0 hr 12 min 0 sec) 
Heartbeat CPU 0 instructions: 270000003 cycles: 290535712 heartbeat IPC: 0.755464 cumulative IPC: 0.756927 (Simulation time: 0 hr 12 min 29 sec) 
Heartbeat CPU 0 instructions: 280000000 cycles: 303734848 heartbeat IPC: 0.757625 cumulative IPC: 0.756966 (Simulation time: 0 hr 12 min 58 sec) 
Heartbeat CPU 0 instructions: 290000000 cycles: 316901891 heartbeat IPC: 0.759472 cumulative IPC: 0.757097 (Simulation time: 0 hr 13 min 28 sec) 
Heartbeat CPU 0 instructions: 300000000 cycles: 330157057 heartbeat IPC: 0.754423 cumulative IPC: 0.756963 (Simulation time: 0 hr 13 min 57 sec) 
Heartbeat CPU 0 instructions: 310000001 cycles: 343330870 heartbeat IPC: 0.759082 cumulative IPC: 0.757064 (Simulation time: 0 hr 14 min 26 sec) 
Heartbeat CPU 0 instructions: 320000000 cycles: 356525922 heartbeat IPC: 0.75786 cumulative IPC: 0.7571 (Simulation time: 0 hr 14 min 55 sec) 
Heartbeat CPU 0 instructions: 330000002 cycles: 369720942 heartbeat IPC: 0.757862 cumulative IPC: 0.757133 (Simulation time: 0 hr 15 min 24 sec) 
Heartbeat CPU 0 instructions: 340000000 cycles: 382972066 heartbeat IPC: 0.754653 cumulative IPC: 0.757029 (Simulation time: 0 hr 15 min 53 sec) 
Heartbeat CPU 0 instructions: 350000000 cycles: 396227986 heartbeat IPC: 0.75438 cumulative IPC: 0.756923 (Simulation time: 0 hr 16 min 22 sec) 
Heartbeat CPU 0 instructions: 360000000 cycles: 409442653 heartbeat IPC: 0.756735 cumulative IPC: 0.756916 (Simulation time: 0 hr 16 min 51 sec) 
Heartbeat CPU 0 instructions: 370000002 cycles: 422713429 heartbeat IPC: 0.753536 cumulative IPC: 0.75679 (Simulation time: 0 hr 17 min 20 sec) 
Heartbeat CPU 0 instructions: 380000000 cycles: 435922707 heartbeat IPC: 0.757043 cumulative IPC: 0.756799 (Simulation time: 0 hr 17 min 49 sec) 
Heartbeat CPU 0 instructions: 390000000 cycles: 449096316 heartbeat IPC: 0.759093 cumulative IPC: 0.756878 (Simulation time: 0 hr 18 min 17 sec) 
Heartbeat CPU 0 instructions: 400000000 cycles: 462291223 heartbeat IPC: 0.757868 cumulative IPC: 0.756911 (Simulation time: 0 hr 18 min 46 sec) 
Heartbeat CPU 0 instructions: 410000001 cycles: 475541875 heartbeat IPC: 0.75468 cumulative IPC: 0.756839 (Simulation time: 0 hr 19 min 15 sec) 
Heartbeat CPU 0 instructions: 420000000 cycles: 488719501 heartbeat IPC: 0.758862 cumulative IPC: 0.756902 (Simulation time: 0 hr 19 min 44 sec) 
Heartbeat CPU 0 instructions: 430000001 cycles: 501899330 heartbeat IPC: 0.758735 cumulative IPC: 0.756957 (Simulation time: 0 hr 20 min 12 sec) 
Heartbeat CPU 0 instructions: 440000000 cycles: 515068549 heartbeat IPC: 0.759346 cumulative IPC: 0.757027 (Simulation time: 0 hr 20 min 41 sec) 
Heartbeat CPU 0 instructions: 450000002 cycles: 528376662 heartbeat IPC: 0.751422 cumulative IPC: 0.756866 (Simulation time: 0 hr 21 min 10 sec) 
Heartbeat CPU 0 instructions: 460000000 cycles: 541594673 heartbeat IPC: 0.756543 cumulative IPC: 0.756857 (Simulation time: 0 hr 21 min 38 sec) 
Heartbeat CPU 0 instructions: 470000003 cycles: 554788373 heartbeat IPC: 0.757938 cumulative IPC: 0.756886 (Simulation time: 0 hr 22 min 7 sec) 
Heartbeat CPU 0 instructions: 480000000 cycles: 568030748 heartbeat IPC: 0.755151 cumulative IPC: 0.75684 (Simulation time: 0 hr 22 min 36 sec) 
Heartbeat CPU 0 instructions: 490000000 cycles: 581237260 heartbeat IPC: 0.757202 cumulative IPC: 0.75685 (Simulation time: 0 hr 23 min 4 sec) 
Heartbeat CPU 0 instructions: 500000000 cycles: 594433245 heartbeat IPC: 0.757806 cumulative IPC: 0.756873 (Simulation time: 0 hr 23 min 33 sec) 
Heartbeat CPU 0 instructions: 510000001 cycles: 607605316 heartbeat IPC: 0.759182 cumulative IPC: 0.75693 (Simulation time: 0 hr 24 min 2 sec) 
Heartbeat CPU 0 instructions: 520000000 cycles: 620882900 heartbeat IPC: 0.753149 cumulative IPC: 0.756839 (Simulation time: 0 hr 24 min 30 sec) 
Heartbeat CPU 0 instructions: 530000000 cycles: 634125502 heartbeat IPC: 0.755139 cumulative IPC: 0.756799 (Simulation time: 0 hr 24 min 59 sec) 
Heartbeat CPU 0 instructions: 540000000 cycles: 647350176 heartbeat IPC: 0.756162 cumulative IPC: 0.756785 (Simulation time: 0 hr 25 min 27 sec) 
Heartbeat CPU 0 instructions: 550000002 cycles: 660612579 heartbeat IPC: 0.754011 cumulative IPC: 0.756723 (Simulation time: 0 hr 25 min 56 sec) 
Heartbeat CPU 0 instructions: 560000000 cycles: 673799519 heartbeat IPC: 0.758326 cumulative IPC: 0.756758 (Simulation time: 0 hr 26 min 25 sec) 
Heartbeat CPU 0 instructions: 570000001 cycles: 687006651 heartbeat IPC: 0.757167 cumulative IPC: 0.756767 (Simulation time: 0 hr 26 min 53 sec) 
Heartbeat CPU 0 instructions: 580000000 cycles: 700215690 heartbeat IPC: 0.757057 cumulative IPC: 0.756773 (Simulation time: 0 hr 27 min 22 sec) 
Heartbeat CPU 0 instructions: 590000003 cycles: 713452322 heartbeat IPC: 0.755479 cumulative IPC: 0.756746 (Simulation time: 0 hr 27 min 50 sec) 
Heartbeat CPU 0 instructions: 600000000 cycles: 726707389 heartbeat IPC: 0.754428 cumulative IPC: 0.7567 (Simulation time: 0 hr 28 min 18 sec) 
Finished CPU 0 instructions: 500000000 cycles: 660764099 cumulative IPC: 0.7567 (Simulation time: 0 hr 28 min 18 sec) 

CPU 0 Branch Prediction Accuracy: 99.968% MPKI: 0.002246
Number of Branches: 3513331 Number of Mispredictions: 1123
Number of LOAD Instructions: 287251172
Number of LOAD Instructions (ROI): 287251172
Number of STORE Instructions: 51060820
Number of STORE Instructions (ROI): 51060820
Total Destination Memory Operands: 51166221
Total Destination Memory Operands (ROI): 51166221
Total Source Memory Operands: 287251172
Total Source Memory Operands (ROI): 287251172
Number of DEPENDED LOADS: 9555435
Number of DEPENDED LOADS (ROI): 9555435
Number of SQ_ADDED: 51166208
Number of SQ_ADDED (ROI): 51166208
Number of LQ_ADDED: 290419878
Number of LQ_ADDED (ROI): 290419878
Number of Instructions read from trace: 600000257

ChampSim completed all CPUs

Region of Interest Statistics

CPU 0 cumulative IPC: 0.7567 instructions: 500000000 cycles: 660764099
ITLB TOTAL     ACCESS:  108950013  HIT:  108950013  MISS:          0
ITLB LOAD      ACCESS:  108950013  HIT:  108950013  MISS:          0
ITLB RFO       ACCESS:          0  HIT:          0  MISS:          0
ITLB PREFETCH  ACCESS:          0  HIT:          0  MISS:          0
ITLB WRITEBACK ACCESS:          0  HIT:          0  MISS:          0
ITLB PREFETCH  REQUESTED:          0  ISSUED:          0  USEFUL:          0  USELESS:          0
ITLB TOTAL MSHR MERGED:          0
ITLB LOAD MSHR MERGED:          0
ITLB RFO MSHR MERGED:          0
ITLB PREFETCH MSHR MERGED:          0
ITLB WRITEBACK MSHR MERGED:          0
ITLB TOTAL ACCESSES:  108950013 HITS:  108950013 MISSES:          0
ITLB LOAD ACCESSES:  108950013 HITS:  108950013 MISSES:          0
ITLB RFO ACCESSES:          0 HITS:          0 MISSES:          0
ITLB PREFETCH ACCESSES:          0 HITS:          0 MISSES:          0
ITLB WRITEBACK ACCESSES:          0 HITS:          0 MISSES:          0
ITLB RQ ACCESS:  500000001
ITLB RQ TO_CACHE:  108950013
ITLB RQ MERGED:  391049988
ITLB RQ FORWARD:          0
ITLB WQ ACCESS:          0
ITLB WQ TO_CACHE:          0
ITLB WQ MERGED:          0
ITLB WQ FORWARD:          0
DTLB TOTAL     ACCESS:  171131447  HIT:  161115126  MISS:   10016321
DTLB LOAD      ACCESS:  143472247  HIT:  135596176  MISS:    7876071
DTLB RFO       ACCESS:   27659200  HIT:   25518950  MISS:    2140250
DTLB PREFETCH  ACCESS:          0  HIT:          0  MISS:          0
DTLB WRITEBACK ACCESS:          0  HIT:          0  MISS:          0
DTLB PREFETCH  REQUESTED:          0  ISSUED:          0  USEFUL:          0  USELESS:          0
DTLB TOTAL MSHR MERGED:     360465
DTLB LOAD MSHR MERGED:     360465
DTLB RFO MSHR MERGED:          0
DTLB PREFETCH MSHR MERGED:          0
DTLB WRITEBACK MSHR MERGED:          0
DTLB TOTAL ACCESSES:  171491912 HITS:  161115126 MISSES:   10376786
DTLB LOAD ACCESSES:  143832712 HITS:  135596176 MISSES:    8236536
DTLB RFO ACCESSES:   27659200 HITS:   25518950 MISSES:    2140250
DTLB PREFETCH ACCESSES:          0 HITS:          0 MISSES:          0
DTLB WRITEBACK ACCESSES:          0 HITS:          0 MISSES:          0
DTLB RQ ACCESS:  274072382
DTLB RQ TO_CACHE:  171491912
DTLB RQ MERGED:  102580470
DTLB RQ FORWARD:          0
DTLB WQ ACCESS:          0
DTLB WQ TO_CACHE:          0
DTLB WQ MERGED:          0
DTLB WQ FORWARD:          0
L1D TOTAL     ACCESS:  350955716  HIT:  283756433  MISS:   67199283
L1D LOAD      ACCESS:  175627658  HIT:  142588452  MISS:   33039206
L1D RFO       ACCESS:   42020322  HIT:   39214810  MISS:    2805512
L1D PREFETCH  ACCESS:  133307736  HIT:  101953171  MISS:   31354565
L1D WRITEBACK ACCESS:          0  HIT:          0  MISS:          0
L1D PREFETCH  REQUESTED:  176231679  ISSUED:  175293366  USEFUL:    2180645  USELESS:   29173922
L1D TOTAL MSHR MERGED:    1482639
L1D LOAD MSHR MERGED:     704001
L1D RFO MSHR MERGED:     348804
L1D PREFETCH MSHR MERGED:     429834
L1D WRITEBACK MSHR MERGED:          0
L1D TOTAL ACCESSES:  352550277 HITS:  283868355 MISSES:   68681922
L1D LOAD ACCESSES:  176237724 HITS:  142594497 MISSES:   33643227
L1D RFO ACCESSES:   42368444 HITS:   39214810 MISSES:    3153634
L1D PREFETCH ACCESSES:  133944109 HITS:  102059048 MISSES:   31885061
L1D WRITEBACK ACCESSES:          0 HITS:          0 MISSES:          0
L1D RQ ACCESS:  231433909
L1D RQ TO_CACHE:  176231679
L1D RQ MERGED:   55196185
L1D RQ FORWARD:          0
L1D WQ ACCESS:   42638475
L1D WQ TO_CACHE:   42368444
L1D WQ MERGED:     270031
L1D WQ FORWARD:     111922
L1I TOTAL     ACCESS:  109343548  HIT:   77827844  MISS:   31515704
L1I LOAD      ACCESS:  109343548  HIT:   77827844  MISS:   31515704
L1I RFO       ACCESS:          0  HIT:          0  MISS:          0
L1I PREFETCH  ACCESS:          0  HIT:          0  MISS:          0
L1I WRITEBACK ACCESS:          0  HIT:          0  MISS:          0
L1I PREFETCH  REQUESTED:          0  ISSUED:          0  USEFUL:          0  USELESS:          0
L1I TOTAL MSHR MERGED:   30750254
L1I LOAD MSHR MERGED:   30750254
L1I RFO MSHR MERGED:          0
L1I PREFETCH MSHR MERGED:          0
L1I WRITEBACK MSHR MERGED:          0
L1I TOTAL ACCESSES:  140093804 HITS:   77827844 MISSES:   62265960
L1I LOAD ACCESSES:  140093804 HITS:   77827844 MISSES:   62265960
L1I RFO ACCESSES:          0 HITS:          0 MISSES:          0
L1I PREFETCH ACCESSES:          0 HITS:          0 MISSES:          0
L1I WRITEBACK ACCESSES:          0 HITS:          0 MISSES:          0
L1I RQ ACCESS:  500000003
L1I RQ TO_CACHE:  140093804
L1I RQ MERGED:  359906199
L1I RQ FORWARD:          0
L1I WQ ACCESS:          0
L1I WQ TO_CACHE:          0
L1I WQ MERGED:          0
L1I WQ FORWARD:          0
L2C TOTAL     ACCESS:  113698824  HIT:  110696517  MISS:    3002307
L2C LOAD      ACCESS:   64453068  HIT:   63892451  MISS:     560617
L2C RFO       ACCESS:    2802926  HIT:    2193394  MISS:     609532
L2C PREFETCH  ACCESS:   43281834  HIT:   41455950  MISS:    1825884
L2C WRITEBACK ACCESS:    3160996  HIT:    3154722  MISS:       6274
L2C PREFETCH  REQUESTED:   15134479  ISSUED:   14619687  USEFUL:    1700912  USELESS:     124980
L2C TOTAL MSHR MERGED:      12737
L2C LOAD MSHR MERGED:          0
L2C RFO MSHR MERGED:          0
L2C PREFETCH MSHR MERGED:      12737
L2C WRITEBACK MSHR MERGED:          0
L2C TOTAL ACCESSES:  113902652 HITS:  110702386 MISSES:    3200266
L2C LOAD ACCESSES:   64454931 HITS:   63894313 MISSES:     560618
L2C RFO ACCESSES:    2804830 HITS:    2195298 MISSES:     609532
L2C PREFETCH ACCESSES:   43481895 HITS:   41458053 MISSES:    2023842
L2C WRITEBACK ACCESSES:    3160996 HITS:    3154722 MISSES:       6274
L2C RQ ACCESS:   67259762
L2C RQ TO_CACHE:   67255996
L2C RQ MERGED:          0
L2C RQ FORWARD:          0
L2C WQ ACCESS:    3160996
L2C WQ TO_CACHE:    3160996
L2C WQ MERGED:          0
L2C WQ FORWARD:       5869
LLC TOTAL     ACCESS:    3712633  HIT:    1860713  MISS:    1851920
LLC LOAD      ACCESS:     560589  HIT:     496743  MISS:      63846
LLC RFO       ACCESS:     527420  HIT:     239314  MISS:     288106
LLC PREFETCH  ACCESS:    2006069  HIT:     653711  MISS:    1352358
LLC WRITEBACK ACCESS:     618555  HIT:     470945  MISS:     147610
LLC PREFETCH  REQUESTED:          0  ISSUED:          0  USEFUL:      43837  USELESS:    1301270
LLC TOTAL MSHR MERGED:       4374
LLC LOAD MSHR MERGED:          0
LLC RFO MSHR MERGED:          0
LLC PREFETCH MSHR MERGED:       4374
LLC WRITEBACK MSHR MERGED:          0
LLC TOTAL ACCESSES:    3799231 HITS:    1942937 MISSES:    1856294
LLC LOAD ACCESSES:     560617 HITS:     496771 MISSES:      63846
LLC RFO ACCESSES:     609532 HITS:     321426 MISSES:     288106
LLC PREFETCH ACCESSES:    2010527 HITS:     653795 MISSES:    1356732
LLC WRITEBACK ACCESSES:     618555 HITS:     470945 MISSES:     147610
LLC 0 RQ ACCESS:    1170150
LLC 0 RQ TO_CACHE:    1088010
LLC 0 RQ MERGED:          0
LLC 0 RQ FORWARD:          0
LLC WQ ACCESS:     618555
LLC WQ TO_CACHE:     618555
LLC WQ MERGED:          0
LLC WQ FORWARD:      82224
Major fault: 0 Minor fault: 12800
CPU 0 L1D next line prefetcher final stats
CPU 0 L2C PC-based stride prefetcher final stats
All Misses: 2251491
All Hits: 2312091
SD Algo Stats - Switches: 0 SRR-Repls: 81390 BRR-Repls: 0

DRAM Statistics
 CHANNEL 0
 RQ ROW_BUFFER_HIT:     839032  ROW_BUFFER_MISS:     865272
 DBUS_CONGESTED:     904151
 WQ ROW_BUFFER_HIT:      31912  ROW_BUFFER_MISS:     260625  FULL:          0

 AVG_CONGESTED_CYCLE: 13
LOADS RETIRED: 239375970
INSTR RETIRED: 500000000
