
*** ChampSim Multicore Out-of-Order Simulator ***

Warmup Instructions: 100000000
Simulation Instructions: 500000000
Number of CPUs: 1
LLC sets: 2048
LLC ways: 16
Clean RRIP Policies: 1122020011220200 Dirty RRIP Policies: 2112022021120220 PSEL Width: 10 Track Set: 4294967295 PSEL Mask: 1 Demote Mask: 230101302301013DS Algo: 0Window size: 0
Off-chip DRAM Size: 4096 MB Channels: 1 Width: 64-bit Data Rate: 1600 MT/s

CPU 0 runs /mnt/beegfs/iconst01/spec2017/Gcc.trace.gz
NOT SORTED
TRACE STRING: /mnt/beegfs/iconst01/spec2017/Gcc.trace.gz
SORTED
TRACE STRING: /mnt/beegfs/iconst01/spec2017/Gcc.trace.gz
INITIAL
TRACE STRING: /mnt/beegfs/iconst01/spec2017/Gcc.trace.gz

champsim_seed used: 269

CPU 0 L1D next line prefetcher
CPU 0 L2C IP-based stride prefetcher
Initialize DRRIP state
Assign rand_sets[0]: 454  LLC: 2048
rand_sets[0]: 454
Assign rand_sets[1]: 1662  LLC: 2048
rand_sets[1]: 1662
Assign rand_sets[2]: 1921  LLC: 2048
rand_sets[2]: 1921
Assign rand_sets[3]: 1131  LLC: 2048
rand_sets[3]: 1131
Assign rand_sets[4]: 331  LLC: 2048
rand_sets[4]: 331
Assign rand_sets[5]: 1531  LLC: 2048
rand_sets[5]: 1531
Assign rand_sets[6]: 482  LLC: 2048
rand_sets[6]: 482
Assign rand_sets[7]: 1275  LLC: 2048
rand_sets[7]: 1275
Assign rand_sets[8]: 1876  LLC: 2048
rand_sets[8]: 1876
Assign rand_sets[9]: 2038  LLC: 2048
rand_sets[9]: 2038
Assign rand_sets[10]: 701  LLC: 2048
rand_sets[10]: 701
Assign rand_sets[11]: 479  LLC: 2048
rand_sets[11]: 479
Assign rand_sets[12]: 892  LLC: 2048
rand_sets[12]: 892
Assign rand_sets[13]: 1820  LLC: 2048
rand_sets[13]: 1820
Assign rand_sets[14]: 1505  LLC: 2048
rand_sets[14]: 1505
Assign rand_sets[15]: 1159  LLC: 2048
rand_sets[15]: 1159
Assign rand_sets[16]: 513  LLC: 2048
rand_sets[16]: 513
Assign rand_sets[17]: 703  LLC: 2048
rand_sets[17]: 703
Assign rand_sets[18]: 561  LLC: 2048
rand_sets[18]: 561
Assign rand_sets[19]: 990  LLC: 2048
rand_sets[19]: 990
Assign rand_sets[20]: 342  LLC: 2048
rand_sets[20]: 342
Assign rand_sets[21]: 882  LLC: 2048
rand_sets[21]: 882
Assign rand_sets[22]: 15  LLC: 2048
rand_sets[22]: 15
Assign rand_sets[23]: 71  LLC: 2048
rand_sets[23]: 71
Assign rand_sets[24]: 1127  LLC: 2048
rand_sets[24]: 1127
Assign rand_sets[25]: 1382  LLC: 2048
rand_sets[25]: 1382
Assign rand_sets[26]: 647  LLC: 2048
rand_sets[26]: 647
Assign rand_sets[27]: 857  LLC: 2048
rand_sets[27]: 857
Assign rand_sets[28]: 1450  LLC: 2048
rand_sets[28]: 1450
Assign rand_sets[29]: 1160  LLC: 2048
rand_sets[29]: 1160
Assign rand_sets[30]: 1852  LLC: 2048
rand_sets[30]: 1852
Assign rand_sets[31]: 1881  LLC: 2048
rand_sets[31]: 1881
Assign rand_sets[32]: 1770  LLC: 2048
rand_sets[32]: 1770
Assign rand_sets[33]: 1622  LLC: 2048
rand_sets[33]: 1622
Assign rand_sets[34]: 275  LLC: 2048
rand_sets[34]: 275
Assign rand_sets[35]: 635  LLC: 2048
rand_sets[35]: 635
Assign rand_sets[36]: 466  LLC: 2048
rand_sets[36]: 466
Assign rand_sets[37]: 1413  LLC: 2048
rand_sets[37]: 1413
Assign rand_sets[38]: 417  LLC: 2048
rand_sets[38]: 417
Assign rand_sets[39]: 472  LLC: 2048
rand_sets[39]: 472
Assign rand_sets[40]: 1340  LLC: 2048
rand_sets[40]: 1340
Assign rand_sets[41]: 852  LLC: 2048
rand_sets[41]: 852
Assign rand_sets[42]: 1365  LLC: 2048
rand_sets[42]: 1365
Assign rand_sets[43]: 47  LLC: 2048
rand_sets[43]: 47
Assign rand_sets[44]: 823  LLC: 2048
rand_sets[44]: 823
Assign rand_sets[45]: 686  LLC: 2048
rand_sets[45]: 686
Assign rand_sets[46]: 1637  LLC: 2048
rand_sets[46]: 1637
Assign rand_sets[47]: 1115  LLC: 2048
rand_sets[47]: 1115
Assign rand_sets[48]: 986  LLC: 2048
rand_sets[48]: 986
Assign rand_sets[49]: 258  LLC: 2048
rand_sets[49]: 258
Assign rand_sets[50]: 633  LLC: 2048
rand_sets[50]: 633
Assign rand_sets[51]: 920  LLC: 2048
rand_sets[51]: 920
Assign rand_sets[52]: 204  LLC: 2048
rand_sets[52]: 204
Assign rand_sets[53]: 227  LLC: 2048
rand_sets[53]: 227
Assign rand_sets[54]: 1818  LLC: 2048
rand_sets[54]: 1818
Assign rand_sets[55]: 886  LLC: 2048
rand_sets[55]: 886
Assign rand_sets[56]: 1422  LLC: 2048
rand_sets[56]: 1422
Assign rand_sets[57]: 607  LLC: 2048
rand_sets[57]: 607
Assign rand_sets[58]: 217  LLC: 2048
rand_sets[58]: 217
Assign rand_sets[59]: 1945  LLC: 2048
rand_sets[59]: 1945
Assign rand_sets[60]: 143  LLC: 2048
rand_sets[60]: 143
Assign rand_sets[61]: 1311  LLC: 2048
rand_sets[61]: 1311
Assign rand_sets[62]: 319  LLC: 2048
rand_sets[62]: 319
Assign rand_sets[63]: 1846  LLC: 2048
rand_sets[63]: 1846
 CLEAN-RRIP-POLICY-1: 1-1-2-2-0-2-0-0- CLEAN-RRIP-POLICY-2: 1-1-2-2-0-2-0-0-
 DIRTY-RRIP-POLICY-1: 2-1-1-2-0-2-2-0- DIRTY-RRIP-POLICY-2: 2-1-1-2-0-2-2-0-
 PSEL width: 10
Heartbeat CPU 0 instructions: 10000001 cycles: 7315916 heartbeat IPC: 1.36688 cumulative IPC: 1.36688 (Simulation time: 0 hr 0 min 15 sec) 
Heartbeat CPU 0 instructions: 20000000 cycles: 14307514 heartbeat IPC: 1.43029 cumulative IPC: 1.39787 (Simulation time: 0 hr 0 min 29 sec) 
Heartbeat CPU 0 instructions: 30000001 cycles: 21020767 heartbeat IPC: 1.48959 cumulative IPC: 1.42716 (Simulation time: 0 hr 0 min 45 sec) 
Heartbeat CPU 0 instructions: 40000000 cycles: 27481709 heartbeat IPC: 1.54776 cumulative IPC: 1.45551 (Simulation time: 0 hr 1 min 1 sec) 
Heartbeat CPU 0 instructions: 50000001 cycles: 33583682 heartbeat IPC: 1.63881 cumulative IPC: 1.48882 (Simulation time: 0 hr 1 min 16 sec) 
Heartbeat CPU 0 instructions: 60000000 cycles: 40064967 heartbeat IPC: 1.5429 cumulative IPC: 1.49757 (Simulation time: 0 hr 1 min 32 sec) 
Heartbeat CPU 0 instructions: 70000000 cycles: 47103946 heartbeat IPC: 1.42066 cumulative IPC: 1.48608 (Simulation time: 0 hr 1 min 47 sec) 
Heartbeat CPU 0 instructions: 80000000 cycles: 54193835 heartbeat IPC: 1.41046 cumulative IPC: 1.47618 (Simulation time: 0 hr 2 min 1 sec) 
Heartbeat CPU 0 instructions: 90000003 cycles: 61198453 heartbeat IPC: 1.42763 cumulative IPC: 1.47063 (Simulation time: 0 hr 2 min 16 sec) 
Heartbeat CPU 0 instructions: 100000000 cycles: 68366188 heartbeat IPC: 1.39514 cumulative IPC: 1.46271 (Simulation time: 0 hr 2 min 30 sec) 

Warmup complete CPU 0 instructions: 100000004 cycles: 68366189 (Simulation time: 0 hr 2 min 30 sec) 

Heartbeat CPU 0 instructions: 110000003 cycles: 96102695 heartbeat IPC: 0.360536 cumulative IPC: 0.360536 (Simulation time: 0 hr 2 min 58 sec) 
Heartbeat CPU 0 instructions: 120000000 cycles: 123611268 heartbeat IPC: 0.363523 cumulative IPC: 0.362023 (Simulation time: 0 hr 3 min 27 sec) 
Heartbeat CPU 0 instructions: 130000000 cycles: 148659860 heartbeat IPC: 0.399224 cumulative IPC: 0.373628 (Simulation time: 0 hr 3 min 55 sec) 
Heartbeat CPU 0 instructions: 140000000 cycles: 178247284 heartbeat IPC: 0.337981 cumulative IPC: 0.36403 (Simulation time: 0 hr 4 min 22 sec) 
Heartbeat CPU 0 instructions: 150000000 cycles: 208171406 heartbeat IPC: 0.334179 cumulative IPC: 0.35764 (Simulation time: 0 hr 4 min 51 sec) 
Heartbeat CPU 0 instructions: 160000000 cycles: 235609421 heartbeat IPC: 0.364458 cumulative IPC: 0.358759 (Simulation time: 0 hr 5 min 18 sec) 
Heartbeat CPU 0 instructions: 170000001 cycles: 263734245 heartbeat IPC: 0.355558 cumulative IPC: 0.358298 (Simulation time: 0 hr 5 min 47 sec) 
Heartbeat CPU 0 instructions: 180000000 cycles: 292249869 heartbeat IPC: 0.350685 cumulative IPC: 0.357328 (Simulation time: 0 hr 6 min 16 sec) 
Heartbeat CPU 0 instructions: 190000002 cycles: 320398105 heartbeat IPC: 0.355262 cumulative IPC: 0.357098 (Simulation time: 0 hr 6 min 44 sec) 
Heartbeat CPU 0 instructions: 200000000 cycles: 348785186 heartbeat IPC: 0.352273 cumulative IPC: 0.356609 (Simulation time: 0 hr 7 min 12 sec) 
Heartbeat CPU 0 instructions: 210000002 cycles: 376686463 heartbeat IPC: 0.358407 cumulative IPC: 0.356772 (Simulation time: 0 hr 7 min 41 sec) 
Heartbeat CPU 0 instructions: 220000000 cycles: 405893024 heartbeat IPC: 0.342389 cumulative IPC: 0.355527 (Simulation time: 0 hr 8 min 8 sec) 
Heartbeat CPU 0 instructions: 230000000 cycles: 433502462 heartbeat IPC: 0.362195 cumulative IPC: 0.356031 (Simulation time: 0 hr 8 min 35 sec) 
Heartbeat CPU 0 instructions: 240000000 cycles: 459457006 heartbeat IPC: 0.385289 cumulative IPC: 0.357973 (Simulation time: 0 hr 9 min 2 sec) 
Heartbeat CPU 0 instructions: 250000000 cycles: 489647096 heartbeat IPC: 0.331235 cumulative IPC: 0.356057 (Simulation time: 0 hr 9 min 31 sec) 
Heartbeat CPU 0 instructions: 260000000 cycles: 516816681 heartbeat IPC: 0.368059 cumulative IPC: 0.356784 (Simulation time: 0 hr 9 min 59 sec) 
Heartbeat CPU 0 instructions: 270000003 cycles: 545384136 heartbeat IPC: 0.350049 cumulative IPC: 0.356381 (Simulation time: 0 hr 10 min 28 sec) 
Heartbeat CPU 0 instructions: 280000000 cycles: 573658294 heartbeat IPC: 0.35368 cumulative IPC: 0.35623 (Simulation time: 0 hr 10 min 57 sec) 
Heartbeat CPU 0 instructions: 290000000 cycles: 602598196 heartbeat IPC: 0.345544 cumulative IPC: 0.355651 (Simulation time: 0 hr 11 min 26 sec) 
Heartbeat CPU 0 instructions: 300000000 cycles: 632619776 heartbeat IPC: 0.333094 cumulative IPC: 0.354451 (Simulation time: 0 hr 11 min 54 sec) 
Heartbeat CPU 0 instructions: 310000001 cycles: 662063481 heartbeat IPC: 0.339631 cumulative IPC: 0.353716 (Simulation time: 0 hr 12 min 22 sec) 
Heartbeat CPU 0 instructions: 320000000 cycles: 690369032 heartbeat IPC: 0.353288 cumulative IPC: 0.353696 (Simulation time: 0 hr 12 min 49 sec) 
Heartbeat CPU 0 instructions: 330000000 cycles: 719069837 heartbeat IPC: 0.348422 cumulative IPC: 0.353464 (Simulation time: 0 hr 13 min 17 sec) 
Heartbeat CPU 0 instructions: 340000000 cycles: 748431811 heartbeat IPC: 0.340577 cumulative IPC: 0.352907 (Simulation time: 0 hr 13 min 45 sec) 
Heartbeat CPU 0 instructions: 350000003 cycles: 775519072 heartbeat IPC: 0.369177 cumulative IPC: 0.35353 (Simulation time: 0 hr 14 min 12 sec) 
Heartbeat CPU 0 instructions: 360000000 cycles: 803689161 heartbeat IPC: 0.354986 cumulative IPC: 0.353586 (Simulation time: 0 hr 14 min 39 sec) 
Heartbeat CPU 0 instructions: 370000000 cycles: 831856359 heartbeat IPC: 0.355023 cumulative IPC: 0.353639 (Simulation time: 0 hr 15 min 6 sec) 
Heartbeat CPU 0 instructions: 380000000 cycles: 860376409 heartbeat IPC: 0.350631 cumulative IPC: 0.353531 (Simulation time: 0 hr 15 min 33 sec) 
Heartbeat CPU 0 instructions: 390000001 cycles: 887973429 heartbeat IPC: 0.362358 cumulative IPC: 0.353828 (Simulation time: 0 hr 15 min 59 sec) 
Heartbeat CPU 0 instructions: 400000000 cycles: 916622966 heartbeat IPC: 0.349046 cumulative IPC: 0.353666 (Simulation time: 0 hr 16 min 26 sec) 
Heartbeat CPU 0 instructions: 410000001 cycles: 943885810 heartbeat IPC: 0.3668 cumulative IPC: 0.354075 (Simulation time: 0 hr 16 min 53 sec) 
Heartbeat CPU 0 instructions: 420000000 cycles: 971160129 heartbeat IPC: 0.366645 cumulative IPC: 0.354455 (Simulation time: 0 hr 17 min 19 sec) 
Heartbeat CPU 0 instructions: 430000002 cycles: 998863318 heartbeat IPC: 0.360969 cumulative IPC: 0.354649 (Simulation time: 0 hr 17 min 46 sec) 
Heartbeat CPU 0 instructions: 440000000 cycles: 1028520230 heartbeat IPC: 0.337189 cumulative IPC: 0.35411 (Simulation time: 0 hr 18 min 13 sec) 
Heartbeat CPU 0 instructions: 450000002 cycles: 1057789896 heartbeat IPC: 0.341651 cumulative IPC: 0.353741 (Simulation time: 0 hr 18 min 40 sec) 
Heartbeat CPU 0 instructions: 460000000 cycles: 1085479364 heartbeat IPC: 0.361148 cumulative IPC: 0.353943 (Simulation time: 0 hr 19 min 7 sec) 
Heartbeat CPU 0 instructions: 470000000 cycles: 1113087489 heartbeat IPC: 0.362212 cumulative IPC: 0.354161 (Simulation time: 0 hr 19 min 33 sec) 
Heartbeat CPU 0 instructions: 480000000 cycles: 1140947635 heartbeat IPC: 0.358936 cumulative IPC: 0.354285 (Simulation time: 0 hr 20 min 0 sec) 
Heartbeat CPU 0 instructions: 490000000 cycles: 1168511983 heartbeat IPC: 0.362787 cumulative IPC: 0.354498 (Simulation time: 0 hr 20 min 26 sec) 
Heartbeat CPU 0 instructions: 500000000 cycles: 1196844246 heartbeat IPC: 0.352955 cumulative IPC: 0.35446 (Simulation time: 0 hr 20 min 53 sec) 
Heartbeat CPU 0 instructions: 510000000 cycles: 1231386614 heartbeat IPC: 0.2895 cumulative IPC: 0.35253 (Simulation time: 0 hr 21 min 23 sec) 
Heartbeat CPU 0 instructions: 520000000 cycles: 1259462674 heartbeat IPC: 0.356175 cumulative IPC: 0.352616 (Simulation time: 0 hr 21 min 51 sec) 
Heartbeat CPU 0 instructions: 530000001 cycles: 1288887499 heartbeat IPC: 0.339849 cumulative IPC: 0.352308 (Simulation time: 0 hr 22 min 19 sec) 
Heartbeat CPU 0 instructions: 540000000 cycles: 1316980166 heartbeat IPC: 0.355965 cumulative IPC: 0.352391 (Simulation time: 0 hr 22 min 47 sec) 
Heartbeat CPU 0 instructions: 550000001 cycles: 1346212651 heartbeat IPC: 0.342085 cumulative IPC: 0.352155 (Simulation time: 0 hr 23 min 16 sec) 
Heartbeat CPU 0 instructions: 560000000 cycles: 1371644135 heartbeat IPC: 0.393213 cumulative IPC: 0.352956 (Simulation time: 0 hr 23 min 43 sec) 
Heartbeat CPU 0 instructions: 570000000 cycles: 1401281603 heartbeat IPC: 0.337411 cumulative IPC: 0.352611 (Simulation time: 0 hr 24 min 11 sec) 
Heartbeat CPU 0 instructions: 580000000 cycles: 1429271492 heartbeat IPC: 0.357272 cumulative IPC: 0.352706 (Simulation time: 0 hr 24 min 39 sec) 
Heartbeat CPU 0 instructions: 590000001 cycles: 1454033679 heartbeat IPC: 0.403842 cumulative IPC: 0.35362 (Simulation time: 0 hr 25 min 6 sec) 
Heartbeat CPU 0 instructions: 600000000 cycles: 1480142936 heartbeat IPC: 0.383006 cumulative IPC: 0.354164 (Simulation time: 0 hr 25 min 33 sec) 
Finished CPU 0 instructions: 500000000 cycles: 1411776769 cumulative IPC: 0.354164 (Simulation time: 0 hr 25 min 33 sec) 

CPU 0 Branch Prediction Accuracy: 86.4311% MPKI: 26.2662
Number of Branches: 96788573 Number of Mispredictions: 13133102
Number of LOAD Instructions: 164682285
Number of LOAD Instructions (ROI): 164682285
Number of STORE Instructions: 78194750
Number of STORE Instructions (ROI): 78194750
Total Destination Memory Operands: 83268534
Total Destination Memory Operands (ROI): 83268534
Total Source Memory Operands: 164712438
Total Source Memory Operands (ROI): 164712438
Number of DEPENDED LOADS: 7058943
Number of DEPENDED LOADS (ROI): 7058943
Number of SQ_ADDED: 83268522
Number of SQ_ADDED (ROI): 83268522
Number of LQ_ADDED: 236712099
Number of LQ_ADDED (ROI): 236712099
Number of Instructions read from trace: 600000066

ChampSim completed all CPUs

Region of Interest Statistics

CPU 0 cumulative IPC: 0.354164 instructions: 500000000 cycles: 1411776769
ITLB TOTAL     ACCESS:  100518518  HIT:  100314072  MISS:     204446
ITLB LOAD      ACCESS:  100518518  HIT:  100314072  MISS:     204446
ITLB RFO       ACCESS:          0  HIT:          0  MISS:          0
ITLB PREFETCH  ACCESS:          0  HIT:          0  MISS:          0
ITLB WRITEBACK ACCESS:          0  HIT:          0  MISS:          0
ITLB PREFETCH  REQUESTED:          0  ISSUED:          0  USEFUL:          0  USELESS:          0
ITLB TOTAL MSHR MERGED:     172424
ITLB LOAD MSHR MERGED:     172424
ITLB RFO MSHR MERGED:          0
ITLB PREFETCH MSHR MERGED:          0
ITLB WRITEBACK MSHR MERGED:          0
ITLB TOTAL ACCESSES:  100690942 HITS:  100314072 MISSES:     376870
ITLB LOAD ACCESSES:  100690942 HITS:  100314072 MISSES:     376870
ITLB RFO ACCESSES:          0 HITS:          0 MISSES:          0
ITLB PREFETCH ACCESSES:          0 HITS:          0 MISSES:          0
ITLB WRITEBACK ACCESSES:          0 HITS:          0 MISSES:          0
ITLB RQ ACCESS:  500000057
ITLB RQ TO_CACHE:  100690942
ITLB RQ MERGED:  399309115
ITLB RQ FORWARD:          0
ITLB WQ ACCESS:          0
ITLB WQ TO_CACHE:          0
ITLB WQ MERGED:          0
ITLB WQ FORWARD:          0
DTLB TOTAL     ACCESS:  165337808  HIT:  164703456  MISS:     634352
DTLB LOAD      ACCESS:  106293240  HIT:  105723306  MISS:     569934
DTLB RFO       ACCESS:   59044568  HIT:   58980150  MISS:      64418
DTLB PREFETCH  ACCESS:          0  HIT:          0  MISS:          0
DTLB WRITEBACK ACCESS:          0  HIT:          0  MISS:          0
DTLB PREFETCH  REQUESTED:          0  ISSUED:          0  USEFUL:          0  USELESS:          0
DTLB TOTAL MSHR MERGED:      99905
DTLB LOAD MSHR MERGED:      59415
DTLB RFO MSHR MERGED:      40490
DTLB PREFETCH MSHR MERGED:          0
DTLB WRITEBACK MSHR MERGED:          0
DTLB TOTAL ACCESSES:  165437713 HITS:  164703456 MISSES:     734257
DTLB LOAD ACCESSES:  106352655 HITS:  105723306 MISSES:     629349
DTLB RFO ACCESSES:   59085058 HITS:   58980150 MISSES:     104908
DTLB PREFETCH ACCESSES:          0 HITS:          0 MISSES:          0
DTLB WRITEBACK ACCESSES:          0 HITS:          0 MISSES:          0
DTLB RQ ACCESS:  200311959
DTLB RQ TO_CACHE:  165437713
DTLB RQ MERGED:   34874246
DTLB RQ FORWARD:          0
DTLB WQ ACCESS:          0
DTLB WQ TO_CACHE:          0
DTLB WQ MERGED:          0
DTLB WQ FORWARD:          0
L1D TOTAL     ACCESS:  281851149  HIT:  273941781  MISS:    7909368
L1D LOAD      ACCESS:  110426604  HIT:  107151111  MISS:    3275493
L1D RFO       ACCESS:   67111968  HIT:   66221118  MISS:     890850
L1D PREFETCH  ACCESS:  104312577  HIT:  100569552  MISS:    3743025
L1D WRITEBACK ACCESS:          0  HIT:          0  MISS:          0
L1D PREFETCH  REQUESTED:  110818041  ISSUED:  109118723  USEFUL:    1663732  USELESS:    2079257
L1D TOTAL MSHR MERGED:    2855145
L1D LOAD MSHR MERGED:     486451
L1D RFO MSHR MERGED:    1874083
L1D PREFETCH MSHR MERGED:     494611
L1D WRITEBACK MSHR MERGED:          0
L1D TOTAL ACCESSES:  284733766 HITS:  273969253 MISSES:   10764513
L1D LOAD ACCESSES:  110819515 HITS:  107152585 MISSES:    3666930
L1D RFO ACCESSES:   68974002 HITS:   66221118 MISSES:    2752884
L1D PREFETCH ACCESSES:  104940249 HITS:  100595550 MISSES:    4344699
L1D WRITEBACK ACCESSES:          0 HITS:          0 MISSES:          0
L1D RQ ACCESS:  130759356
L1D RQ TO_CACHE:  110818044
L1D RQ MERGED:   19939838
L1D RQ FORWARD:          0
L1D WQ ACCESS:   69552603
L1D WQ TO_CACHE:   68974003
L1D WQ MERGED:     578600
L1D WQ FORWARD:      27472
L1I TOTAL     ACCESS:  126565781  HIT:  122327227  MISS:    4238554
L1I LOAD      ACCESS:  126565781  HIT:  122327227  MISS:    4238554
L1I RFO       ACCESS:          0  HIT:          0  MISS:          0
L1I PREFETCH  ACCESS:          0  HIT:          0  MISS:          0
L1I WRITEBACK ACCESS:          0  HIT:          0  MISS:          0
L1I PREFETCH  REQUESTED:          0  ISSUED:          0  USEFUL:          0  USELESS:          0
L1I TOTAL MSHR MERGED:    1834773
L1I LOAD MSHR MERGED:    1834773
L1I RFO MSHR MERGED:          0
L1I PREFETCH MSHR MERGED:          0
L1I WRITEBACK MSHR MERGED:          0
L1I TOTAL ACCESSES:  128400557 HITS:  122327227 MISSES:    6073330
L1I LOAD ACCESSES:  128400557 HITS:  122327227 MISSES:    6073330
L1I RFO ACCESSES:          0 HITS:          0 MISSES:          0
L1I PREFETCH ACCESSES:          0 HITS:          0 MISSES:          0
L1I WRITEBACK ACCESSES:          0 HITS:          0 MISSES:          0
L1I RQ ACCESS:  500000057
L1I RQ TO_CACHE:  128400557
L1I RQ MERGED:  371599500
L1I RQ FORWARD:          0
L1I WQ ACCESS:          0
L1I WQ TO_CACHE:          0
L1I WQ MERGED:          0
L1I WQ FORWARD:          0
L2C TOTAL     ACCESS:   14905178  HIT:   11158673  MISS:    3746505
L2C LOAD      ACCESS:    7418826  HIT:    5098813  MISS:    2320013
L2C RFO       ACCESS:     878701  HIT:     409898  MISS:     468803
L2C PREFETCH  ACCESS:    4568410  HIT:    3627977  MISS:     940433
L2C WRITEBACK ACCESS:    2039241  HIT:    2021985  MISS:      17256
L2C PREFETCH  REQUESTED:     842737  ISSUED:     842737  USEFUL:     203340  USELESS:     736799
L2C TOTAL MSHR MERGED:       7113
L2C LOAD MSHR MERGED:        835
L2C RFO MSHR MERGED:          1
L2C PREFETCH MSHR MERGED:       6277
L2C WRITEBACK MSHR MERGED:          0
L2C TOTAL ACCESSES:   14913174 HITS:   11159126 MISSES:    3754048
L2C LOAD ACCESSES:    7419033 HITS:    5099020 MISSES:    2320013
L2C RFO ACCESSES:     878801 HITS:     409998 MISSES:     468803
L2C PREFETCH ACCESSES:    4576099 HITS:    3628123 MISSES:     947976
L2C WRITEBACK ACCESSES:    2039241 HITS:    2021985 MISSES:      17256
L2C RQ ACCESS:    8297837
L2C RQ TO_CACHE:    8297530
L2C RQ MERGED:          0
L2C RQ FORWARD:          0
L2C WQ ACCESS:    2039241
L2C WQ TO_CACHE:    2039241
L2C WQ MERGED:          0
L2C WQ FORWARD:        453
LLC TOTAL     ACCESS:    4609829  HIT:    4006765  MISS:     603064
LLC LOAD      ACCESS:    2319164  HIT:    2056327  MISS:     262837
LLC RFO       ACCESS:     468791  HIT:     392620  MISS:      76171
LLC PREFETCH  ACCESS:     941576  HIT:     697097  MISS:     244479
LLC WRITEBACK ACCESS:     880298  HIT:     860721  MISS:      19577
LLC PREFETCH  REQUESTED:          0  ISSUED:          0  USEFUL:      36482  USELESS:     208259
LLC TOTAL MSHR MERGED:         99
LLC LOAD MSHR MERGED:         30
LLC RFO MSHR MERGED:          0
LLC PREFETCH MSHR MERGED:         69
LLC WRITEBACK MSHR MERGED:          0
LLC TOTAL ACCESSES:    4609965 HITS:    4006802 MISSES:     603163
LLC LOAD ACCESSES:    2319178 HITS:    2056341 MISSES:     262837
LLC RFO ACCESSES:     468802 HITS:     392631 MISSES:      76171
LLC PREFETCH ACCESSES:     941687 HITS:     697109 MISSES:     244578
LLC WRITEBACK ACCESSES:     880298 HITS:     860721 MISSES:      19577
LLC 0 RQ ACCESS:    2787980
LLC 0 RQ TO_CACHE:    2787955
LLC 0 RQ MERGED:          0
LLC 0 RQ FORWARD:          0
LLC WQ ACCESS:     880298
LLC WQ TO_CACHE:     880298
LLC WQ MERGED:          0
LLC WQ FORWARD:         37
Major fault: 0 Minor fault: 12862
CPU 0 L1D next line prefetcher final stats
CPU 0 L2C PC-based stride prefetcher final stats
All Misses: 716311
All Hits: 4710524
SD Algo Stats - Switches: 0 SRR-Repls: 308433 BRR-Repls: 0

DRAM Statistics
 CHANNEL 0
 RQ ROW_BUFFER_HIT:     123383  ROW_BUFFER_MISS:     458485
 DBUS_CONGESTED:     362043
 WQ ROW_BUFFER_HIT:      16252  ROW_BUFFER_MISS:     188623  FULL:          0

 AVG_CONGESTED_CYCLE: 13
LOADS RETIRED: 136549171
INSTR RETIRED: 500000000
