
*** ChampSim Multicore Out-of-Order Simulator ***

Warmup Instructions: 100000000
Simulation Instructions: 500000000
Number of CPUs: 1
LLC sets: 2048
LLC ways: 16
Clean RRIP Policies: 1013102110131021 Dirty RRIP Policies: 1003100110031001 PSEL Width: 10 Track Set: 4294967295 PSEL Mask: 1 Demote Mask: 4003140440031404DS Algo: 0Window size: 0
Off-chip DRAM Size: 4096 MB Channels: 1 Width: 64-bit Data Rate: 1600 MT/s

CPU 0 runs /mnt/beegfs/iconst01/spec2017/Gcc.trace.gz
NOT SORTED
TRACE STRING: /mnt/beegfs/iconst01/spec2017/Gcc.trace.gz
SORTED
TRACE STRING: /mnt/beegfs/iconst01/spec2017/Gcc.trace.gz
INITIAL
TRACE STRING: /mnt/beegfs/iconst01/spec2017/Gcc.trace.gz

champsim_seed used: 269

CPU 0 L1D next line prefetcher
CPU 0 L2C IP-based stride prefetcher
Initialize DRRIP state
Assign rand_sets[0]: 454  LLC: 2048
rand_sets[0]: 454
Assign rand_sets[1]: 1662  LLC: 2048
rand_sets[1]: 1662
Assign rand_sets[2]: 1921  LLC: 2048
rand_sets[2]: 1921
Assign rand_sets[3]: 1131  LLC: 2048
rand_sets[3]: 1131
Assign rand_sets[4]: 331  LLC: 2048
rand_sets[4]: 331
Assign rand_sets[5]: 1531  LLC: 2048
rand_sets[5]: 1531
Assign rand_sets[6]: 482  LLC: 2048
rand_sets[6]: 482
Assign rand_sets[7]: 1275  LLC: 2048
rand_sets[7]: 1275
Assign rand_sets[8]: 1876  LLC: 2048
rand_sets[8]: 1876
Assign rand_sets[9]: 2038  LLC: 2048
rand_sets[9]: 2038
Assign rand_sets[10]: 701  LLC: 2048
rand_sets[10]: 701
Assign rand_sets[11]: 479  LLC: 2048
rand_sets[11]: 479
Assign rand_sets[12]: 892  LLC: 2048
rand_sets[12]: 892
Assign rand_sets[13]: 1820  LLC: 2048
rand_sets[13]: 1820
Assign rand_sets[14]: 1505  LLC: 2048
rand_sets[14]: 1505
Assign rand_sets[15]: 1159  LLC: 2048
rand_sets[15]: 1159
Assign rand_sets[16]: 513  LLC: 2048
rand_sets[16]: 513
Assign rand_sets[17]: 703  LLC: 2048
rand_sets[17]: 703
Assign rand_sets[18]: 561  LLC: 2048
rand_sets[18]: 561
Assign rand_sets[19]: 990  LLC: 2048
rand_sets[19]: 990
Assign rand_sets[20]: 342  LLC: 2048
rand_sets[20]: 342
Assign rand_sets[21]: 882  LLC: 2048
rand_sets[21]: 882
Assign rand_sets[22]: 15  LLC: 2048
rand_sets[22]: 15
Assign rand_sets[23]: 71  LLC: 2048
rand_sets[23]: 71
Assign rand_sets[24]: 1127  LLC: 2048
rand_sets[24]: 1127
Assign rand_sets[25]: 1382  LLC: 2048
rand_sets[25]: 1382
Assign rand_sets[26]: 647  LLC: 2048
rand_sets[26]: 647
Assign rand_sets[27]: 857  LLC: 2048
rand_sets[27]: 857
Assign rand_sets[28]: 1450  LLC: 2048
rand_sets[28]: 1450
Assign rand_sets[29]: 1160  LLC: 2048
rand_sets[29]: 1160
Assign rand_sets[30]: 1852  LLC: 2048
rand_sets[30]: 1852
Assign rand_sets[31]: 1881  LLC: 2048
rand_sets[31]: 1881
Assign rand_sets[32]: 1770  LLC: 2048
rand_sets[32]: 1770
Assign rand_sets[33]: 1622  LLC: 2048
rand_sets[33]: 1622
Assign rand_sets[34]: 275  LLC: 2048
rand_sets[34]: 275
Assign rand_sets[35]: 635  LLC: 2048
rand_sets[35]: 635
Assign rand_sets[36]: 466  LLC: 2048
rand_sets[36]: 466
Assign rand_sets[37]: 1413  LLC: 2048
rand_sets[37]: 1413
Assign rand_sets[38]: 417  LLC: 2048
rand_sets[38]: 417
Assign rand_sets[39]: 472  LLC: 2048
rand_sets[39]: 472
Assign rand_sets[40]: 1340  LLC: 2048
rand_sets[40]: 1340
Assign rand_sets[41]: 852  LLC: 2048
rand_sets[41]: 852
Assign rand_sets[42]: 1365  LLC: 2048
rand_sets[42]: 1365
Assign rand_sets[43]: 47  LLC: 2048
rand_sets[43]: 47
Assign rand_sets[44]: 823  LLC: 2048
rand_sets[44]: 823
Assign rand_sets[45]: 686  LLC: 2048
rand_sets[45]: 686
Assign rand_sets[46]: 1637  LLC: 2048
rand_sets[46]: 1637
Assign rand_sets[47]: 1115  LLC: 2048
rand_sets[47]: 1115
Assign rand_sets[48]: 986  LLC: 2048
rand_sets[48]: 986
Assign rand_sets[49]: 258  LLC: 2048
rand_sets[49]: 258
Assign rand_sets[50]: 633  LLC: 2048
rand_sets[50]: 633
Assign rand_sets[51]: 920  LLC: 2048
rand_sets[51]: 920
Assign rand_sets[52]: 204  LLC: 2048
rand_sets[52]: 204
Assign rand_sets[53]: 227  LLC: 2048
rand_sets[53]: 227
Assign rand_sets[54]: 1818  LLC: 2048
rand_sets[54]: 1818
Assign rand_sets[55]: 886  LLC: 2048
rand_sets[55]: 886
Assign rand_sets[56]: 1422  LLC: 2048
rand_sets[56]: 1422
Assign rand_sets[57]: 607  LLC: 2048
rand_sets[57]: 607
Assign rand_sets[58]: 217  LLC: 2048
rand_sets[58]: 217
Assign rand_sets[59]: 1945  LLC: 2048
rand_sets[59]: 1945
Assign rand_sets[60]: 143  LLC: 2048
rand_sets[60]: 143
Assign rand_sets[61]: 1311  LLC: 2048
rand_sets[61]: 1311
Assign rand_sets[62]: 319  LLC: 2048
rand_sets[62]: 319
Assign rand_sets[63]: 1846  LLC: 2048
rand_sets[63]: 1846
 CLEAN-RRIP-POLICY-1: 1-0-1-3-1-0-2-1- CLEAN-RRIP-POLICY-2: 1-0-1-3-1-0-2-1-
 DIRTY-RRIP-POLICY-1: 1-0-0-3-1-0-0-1- DIRTY-RRIP-POLICY-2: 1-0-0-3-1-0-0-1-
 PSEL width: 10
Heartbeat CPU 0 instructions: 10000001 cycles: 7315990 heartbeat IPC: 1.36687 cumulative IPC: 1.36687 (Simulation time: 0 hr 0 min 15 sec) 
Heartbeat CPU 0 instructions: 20000000 cycles: 14308180 heartbeat IPC: 1.43017 cumulative IPC: 1.3978 (Simulation time: 0 hr 0 min 29 sec) 
Heartbeat CPU 0 instructions: 30000001 cycles: 21021694 heartbeat IPC: 1.48953 cumulative IPC: 1.4271 (Simulation time: 0 hr 0 min 45 sec) 
Heartbeat CPU 0 instructions: 40000000 cycles: 27482634 heartbeat IPC: 1.54776 cumulative IPC: 1.45546 (Simulation time: 0 hr 1 min 1 sec) 
Heartbeat CPU 0 instructions: 50000001 cycles: 33584454 heartbeat IPC: 1.63886 cumulative IPC: 1.48878 (Simulation time: 0 hr 1 min 17 sec) 
Heartbeat CPU 0 instructions: 60000000 cycles: 40065713 heartbeat IPC: 1.54291 cumulative IPC: 1.49754 (Simulation time: 0 hr 1 min 33 sec) 
Heartbeat CPU 0 instructions: 70000000 cycles: 47105993 heartbeat IPC: 1.4204 cumulative IPC: 1.48601 (Simulation time: 0 hr 1 min 48 sec) 
Heartbeat CPU 0 instructions: 80000000 cycles: 54196678 heartbeat IPC: 1.4103 cumulative IPC: 1.47611 (Simulation time: 0 hr 2 min 2 sec) 
Heartbeat CPU 0 instructions: 90000003 cycles: 61202115 heartbeat IPC: 1.42746 cumulative IPC: 1.47054 (Simulation time: 0 hr 2 min 17 sec) 
Heartbeat CPU 0 instructions: 100000000 cycles: 68370201 heartbeat IPC: 1.39507 cumulative IPC: 1.46263 (Simulation time: 0 hr 2 min 32 sec) 

Warmup complete CPU 0 instructions: 100000004 cycles: 68370202 (Simulation time: 0 hr 2 min 32 sec) 

Heartbeat CPU 0 instructions: 110000003 cycles: 96270977 heartbeat IPC: 0.358413 cumulative IPC: 0.358413 (Simulation time: 0 hr 3 min 1 sec) 
Heartbeat CPU 0 instructions: 120000000 cycles: 123834357 heartbeat IPC: 0.3628 cumulative IPC: 0.360593 (Simulation time: 0 hr 3 min 30 sec) 
Heartbeat CPU 0 instructions: 130000000 cycles: 148895536 heartbeat IPC: 0.399024 cumulative IPC: 0.372553 (Simulation time: 0 hr 3 min 58 sec) 
Heartbeat CPU 0 instructions: 140000000 cycles: 178873187 heartbeat IPC: 0.333582 cumulative IPC: 0.361981 (Simulation time: 0 hr 4 min 27 sec) 
Heartbeat CPU 0 instructions: 150000000 cycles: 209018495 heartbeat IPC: 0.331727 cumulative IPC: 0.355497 (Simulation time: 0 hr 4 min 56 sec) 
Heartbeat CPU 0 instructions: 160000000 cycles: 236541100 heartbeat IPC: 0.363338 cumulative IPC: 0.35678 (Simulation time: 0 hr 5 min 23 sec) 
Heartbeat CPU 0 instructions: 170000001 cycles: 264764079 heartbeat IPC: 0.354321 cumulative IPC: 0.356427 (Simulation time: 0 hr 5 min 54 sec) 
Heartbeat CPU 0 instructions: 180000000 cycles: 293406652 heartbeat IPC: 0.349131 cumulative IPC: 0.355498 (Simulation time: 0 hr 6 min 23 sec) 
Heartbeat CPU 0 instructions: 190000002 cycles: 321675119 heartbeat IPC: 0.353751 cumulative IPC: 0.355303 (Simulation time: 0 hr 6 min 52 sec) 
Heartbeat CPU 0 instructions: 200000000 cycles: 350182619 heartbeat IPC: 0.350785 cumulative IPC: 0.354846 (Simulation time: 0 hr 7 min 21 sec) 
Heartbeat CPU 0 instructions: 210000002 cycles: 378169665 heartbeat IPC: 0.357308 cumulative IPC: 0.355068 (Simulation time: 0 hr 7 min 50 sec) 
Heartbeat CPU 0 instructions: 220000000 cycles: 407635165 heartbeat IPC: 0.33938 cumulative IPC: 0.353706 (Simulation time: 0 hr 8 min 18 sec) 
Heartbeat CPU 0 instructions: 230000000 cycles: 435358943 heartbeat IPC: 0.360701 cumulative IPC: 0.354234 (Simulation time: 0 hr 8 min 46 sec) 
Heartbeat CPU 0 instructions: 240000000 cycles: 461381394 heartbeat IPC: 0.384284 cumulative IPC: 0.356224 (Simulation time: 0 hr 9 min 13 sec) 
Heartbeat CPU 0 instructions: 250000000 cycles: 491651394 heartbeat IPC: 0.33036 cumulative IPC: 0.354374 (Simulation time: 0 hr 9 min 44 sec) 
Heartbeat CPU 0 instructions: 260000000 cycles: 518870317 heartbeat IPC: 0.367391 cumulative IPC: 0.355161 (Simulation time: 0 hr 10 min 12 sec) 
Heartbeat CPU 0 instructions: 270000003 cycles: 547506194 heartbeat IPC: 0.349212 cumulative IPC: 0.354805 (Simulation time: 0 hr 10 min 42 sec) 
Heartbeat CPU 0 instructions: 280000000 cycles: 575903815 heartbeat IPC: 0.352142 cumulative IPC: 0.354656 (Simulation time: 0 hr 11 min 12 sec) 
Heartbeat CPU 0 instructions: 290000000 cycles: 604901423 heartbeat IPC: 0.344856 cumulative IPC: 0.354127 (Simulation time: 0 hr 11 min 42 sec) 
Heartbeat CPU 0 instructions: 300000000 cycles: 635168868 heartbeat IPC: 0.330388 cumulative IPC: 0.352859 (Simulation time: 0 hr 12 min 10 sec) 
Heartbeat CPU 0 instructions: 310000001 cycles: 664777080 heartbeat IPC: 0.337744 cumulative IPC: 0.352109 (Simulation time: 0 hr 12 min 39 sec) 
Heartbeat CPU 0 instructions: 320000000 cycles: 693240632 heartbeat IPC: 0.351326 cumulative IPC: 0.352073 (Simulation time: 0 hr 13 min 7 sec) 
Heartbeat CPU 0 instructions: 330000000 cycles: 722079332 heartbeat IPC: 0.346756 cumulative IPC: 0.351838 (Simulation time: 0 hr 13 min 36 sec) 
Heartbeat CPU 0 instructions: 340000000 cycles: 751590761 heartbeat IPC: 0.338852 cumulative IPC: 0.351277 (Simulation time: 0 hr 14 min 5 sec) 
Heartbeat CPU 0 instructions: 350000003 cycles: 778736463 heartbeat IPC: 0.368383 cumulative IPC: 0.351931 (Simulation time: 0 hr 14 min 33 sec) 
Heartbeat CPU 0 instructions: 360000000 cycles: 807324130 heartbeat IPC: 0.349801 cumulative IPC: 0.351849 (Simulation time: 0 hr 15 min 0 sec) 
Heartbeat CPU 0 instructions: 370000000 cycles: 835889946 heartbeat IPC: 0.350069 cumulative IPC: 0.351782 (Simulation time: 0 hr 15 min 28 sec) 
Heartbeat CPU 0 instructions: 380000000 cycles: 864760693 heartbeat IPC: 0.346371 cumulative IPC: 0.351586 (Simulation time: 0 hr 15 min 56 sec) 
Heartbeat CPU 0 instructions: 390000001 cycles: 892632233 heartbeat IPC: 0.358789 cumulative IPC: 0.35183 (Simulation time: 0 hr 16 min 23 sec) 
Heartbeat CPU 0 instructions: 400000000 cycles: 921528723 heartbeat IPC: 0.346063 cumulative IPC: 0.351635 (Simulation time: 0 hr 16 min 51 sec) 
Heartbeat CPU 0 instructions: 410000001 cycles: 949038517 heartbeat IPC: 0.363507 cumulative IPC: 0.352005 (Simulation time: 0 hr 17 min 18 sec) 
Heartbeat CPU 0 instructions: 420000000 cycles: 976530181 heartbeat IPC: 0.363747 cumulative IPC: 0.352361 (Simulation time: 0 hr 17 min 45 sec) 
Heartbeat CPU 0 instructions: 430000002 cycles: 1004451171 heartbeat IPC: 0.358154 cumulative IPC: 0.352534 (Simulation time: 0 hr 18 min 13 sec) 
Heartbeat CPU 0 instructions: 440000000 cycles: 1034301815 heartbeat IPC: 0.335001 cumulative IPC: 0.351992 (Simulation time: 0 hr 18 min 41 sec) 
Heartbeat CPU 0 instructions: 450000002 cycles: 1063809471 heartbeat IPC: 0.338895 cumulative IPC: 0.351604 (Simulation time: 0 hr 19 min 8 sec) 
Heartbeat CPU 0 instructions: 460000000 cycles: 1091722354 heartbeat IPC: 0.358257 cumulative IPC: 0.351785 (Simulation time: 0 hr 19 min 36 sec) 
Heartbeat CPU 0 instructions: 470000000 cycles: 1119534838 heartbeat IPC: 0.359551 cumulative IPC: 0.351991 (Simulation time: 0 hr 20 min 3 sec) 
Heartbeat CPU 0 instructions: 480000000 cycles: 1147575327 heartbeat IPC: 0.356627 cumulative IPC: 0.352111 (Simulation time: 0 hr 20 min 31 sec) 
Heartbeat CPU 0 instructions: 490000000 cycles: 1175319348 heartbeat IPC: 0.360438 cumulative IPC: 0.35232 (Simulation time: 0 hr 20 min 58 sec) 
Heartbeat CPU 0 instructions: 500000000 cycles: 1203774250 heartbeat IPC: 0.351433 cumulative IPC: 0.352297 (Simulation time: 0 hr 21 min 26 sec) 
Heartbeat CPU 0 instructions: 510000000 cycles: 1239044600 heartbeat IPC: 0.283524 cumulative IPC: 0.350225 (Simulation time: 0 hr 21 min 57 sec) 
Heartbeat CPU 0 instructions: 520000000 cycles: 1267278439 heartbeat IPC: 0.354185 cumulative IPC: 0.350319 (Simulation time: 0 hr 22 min 26 sec) 
Heartbeat CPU 0 instructions: 530000001 cycles: 1296888177 heartbeat IPC: 0.337727 cumulative IPC: 0.350015 (Simulation time: 0 hr 22 min 54 sec) 
Heartbeat CPU 0 instructions: 540000000 cycles: 1325125722 heartbeat IPC: 0.354138 cumulative IPC: 0.350108 (Simulation time: 0 hr 23 min 23 sec) 
Heartbeat CPU 0 instructions: 550000001 cycles: 1354418152 heartbeat IPC: 0.341385 cumulative IPC: 0.349909 (Simulation time: 0 hr 23 min 53 sec) 
Heartbeat CPU 0 instructions: 560000000 cycles: 1379860881 heartbeat IPC: 0.39304 cumulative IPC: 0.350746 (Simulation time: 0 hr 24 min 21 sec) 
Heartbeat CPU 0 instructions: 570000000 cycles: 1409695587 heartbeat IPC: 0.33518 cumulative IPC: 0.3504 (Simulation time: 0 hr 24 min 50 sec) 
Heartbeat CPU 0 instructions: 580000000 cycles: 1437895339 heartbeat IPC: 0.354613 cumulative IPC: 0.350486 (Simulation time: 0 hr 25 min 19 sec) 
Heartbeat CPU 0 instructions: 590000001 cycles: 1462707020 heartbeat IPC: 0.403036 cumulative IPC: 0.351422 (Simulation time: 0 hr 25 min 46 sec) 
Heartbeat CPU 0 instructions: 600000000 cycles: 1488863855 heartbeat IPC: 0.382309 cumulative IPC: 0.35199 (Simulation time: 0 hr 26 min 14 sec) 
Finished CPU 0 instructions: 500000000 cycles: 1420493675 cumulative IPC: 0.35199 (Simulation time: 0 hr 26 min 14 sec) 

CPU 0 Branch Prediction Accuracy: 86.4311% MPKI: 26.2662
Number of Branches: 96788573 Number of Mispredictions: 13133102
Number of LOAD Instructions: 164682285
Number of LOAD Instructions (ROI): 164682285
Number of STORE Instructions: 78194750
Number of STORE Instructions (ROI): 78194750
Total Destination Memory Operands: 83268534
Total Destination Memory Operands (ROI): 83268534
Total Source Memory Operands: 164712438
Total Source Memory Operands (ROI): 164712438
Number of DEPENDED LOADS: 7058805
Number of DEPENDED LOADS (ROI): 7058805
Number of SQ_ADDED: 83268522
Number of SQ_ADDED (ROI): 83268522
Number of LQ_ADDED: 236673374
Number of LQ_ADDED (ROI): 236673374
Number of Instructions read from trace: 600000066

ChampSim completed all CPUs

Region of Interest Statistics

CPU 0 cumulative IPC: 0.35199 instructions: 500000000 cycles: 1420493675
ITLB TOTAL     ACCESS:  100513634  HIT:  100309188  MISS:     204446
ITLB LOAD      ACCESS:  100513634  HIT:  100309188  MISS:     204446
ITLB RFO       ACCESS:          0  HIT:          0  MISS:          0
ITLB PREFETCH  ACCESS:          0  HIT:          0  MISS:          0
ITLB WRITEBACK ACCESS:          0  HIT:          0  MISS:          0
ITLB PREFETCH  REQUESTED:          0  ISSUED:          0  USEFUL:          0  USELESS:          0
ITLB TOTAL MSHR MERGED:     172424
ITLB LOAD MSHR MERGED:     172424
ITLB RFO MSHR MERGED:          0
ITLB PREFETCH MSHR MERGED:          0
ITLB WRITEBACK MSHR MERGED:          0
ITLB TOTAL ACCESSES:  100686058 HITS:  100309188 MISSES:     376870
ITLB LOAD ACCESSES:  100686058 HITS:  100309188 MISSES:     376870
ITLB RFO ACCESSES:          0 HITS:          0 MISSES:          0
ITLB PREFETCH ACCESSES:          0 HITS:          0 MISSES:          0
ITLB WRITEBACK ACCESSES:          0 HITS:          0 MISSES:          0
ITLB RQ ACCESS:  500000057
ITLB RQ TO_CACHE:  100686058
ITLB RQ MERGED:  399313999
ITLB RQ FORWARD:          0
ITLB WQ ACCESS:          0
ITLB WQ TO_CACHE:          0
ITLB WQ MERGED:          0
ITLB WQ FORWARD:          0
DTLB TOTAL     ACCESS:  165340277  HIT:  164705928  MISS:     634349
DTLB LOAD      ACCESS:  106294302  HIT:  105724320  MISS:     569982
DTLB RFO       ACCESS:   59045975  HIT:   58981608  MISS:      64367
DTLB PREFETCH  ACCESS:          0  HIT:          0  MISS:          0
DTLB WRITEBACK ACCESS:          0  HIT:          0  MISS:          0
DTLB PREFETCH  REQUESTED:          0  ISSUED:          0  USEFUL:          0  USELESS:          0
DTLB TOTAL MSHR MERGED:      99898
DTLB LOAD MSHR MERGED:      59363
DTLB RFO MSHR MERGED:      40535
DTLB PREFETCH MSHR MERGED:          0
DTLB WRITEBACK MSHR MERGED:          0
DTLB TOTAL ACCESSES:  165440175 HITS:  164705928 MISSES:     734247
DTLB LOAD ACCESSES:  106353665 HITS:  105724320 MISSES:     629345
DTLB RFO ACCESSES:   59086510 HITS:   58981608 MISSES:     104902
DTLB PREFETCH ACCESSES:          0 HITS:          0 MISSES:          0
DTLB WRITEBACK ACCESSES:          0 HITS:          0 MISSES:          0
DTLB RQ ACCESS:  200312068
DTLB RQ TO_CACHE:  165440175
DTLB RQ MERGED:   34871893
DTLB RQ FORWARD:          0
DTLB WQ ACCESS:          0
DTLB WQ TO_CACHE:          0
DTLB WQ MERGED:          0
DTLB WQ FORWARD:          0
L1D TOTAL     ACCESS:  281849130  HIT:  273939776  MISS:    7909354
L1D LOAD      ACCESS:  110422161  HIT:  107145033  MISS:    3277128
L1D RFO       ACCESS:   67120783  HIT:   66230311  MISS:     890472
L1D PREFETCH  ACCESS:  104306186  HIT:  100564432  MISS:    3741754
L1D WRITEBACK ACCESS:          0  HIT:          0  MISS:          0
L1D PREFETCH  REQUESTED:  110819993  ISSUED:  109120633  USEFUL:    1662463  USELESS:    2079255
L1D TOTAL MSHR MERGED:    2862202
L1D LOAD MSHR MERGED:     494521
L1D RFO MSHR MERGED:    1865057
L1D PREFETCH MSHR MERGED:     502624
L1D WRITEBACK MSHR MERGED:          0
L1D TOTAL ACCESSES:  284738771 HITS:  273967215 MISSES:   10771556
L1D LOAD ACCESSES:  110821439 HITS:  107146479 MISSES:    3674960
L1D RFO ACCESSES:   68974170 HITS:   66230311 MISSES:    2743859
L1D PREFETCH ACCESSES:  104943162 HITS:  100590425 MISSES:    4352737
L1D WRITEBACK ACCESSES:          0 HITS:          0 MISSES:          0
L1D RQ ACCESS:  130759465
L1D RQ TO_CACHE:  110819996
L1D RQ MERGED:   19938023
L1D RQ FORWARD:          0
L1D WQ ACCESS:   69552603
L1D WQ TO_CACHE:   68974171
L1D WQ MERGED:     578432
L1D WQ FORWARD:      27439
L1I TOTAL     ACCESS:  126560733  HIT:  122322185  MISS:    4238548
L1I LOAD      ACCESS:  126560733  HIT:  122322185  MISS:    4238548
L1I RFO       ACCESS:          0  HIT:          0  MISS:          0
L1I PREFETCH  ACCESS:          0  HIT:          0  MISS:          0
L1I WRITEBACK ACCESS:          0  HIT:          0  MISS:          0
L1I PREFETCH  REQUESTED:          0  ISSUED:          0  USEFUL:          0  USELESS:          0
L1I TOTAL MSHR MERGED:    1835084
L1I LOAD MSHR MERGED:    1835084
L1I RFO MSHR MERGED:          0
L1I PREFETCH MSHR MERGED:          0
L1I WRITEBACK MSHR MERGED:          0
L1I TOTAL ACCESSES:  128395820 HITS:  122322185 MISSES:    6073635
L1I LOAD ACCESSES:  128395820 HITS:  122322185 MISSES:    6073635
L1I RFO ACCESSES:          0 HITS:          0 MISSES:          0
L1I PREFETCH ACCESSES:          0 HITS:          0 MISSES:          0
L1I WRITEBACK ACCESSES:          0 HITS:          0 MISSES:          0
L1I RQ ACCESS:  500000057
L1I RQ TO_CACHE:  128395820
L1I RQ MERGED:  371604237
L1I RQ FORWARD:          0
L1I WQ ACCESS:          0
L1I WQ TO_CACHE:          0
L1I WQ MERGED:          0
L1I WQ FORWARD:          0
L2C TOTAL     ACCESS:   14905413  HIT:   11158914  MISS:    3746499
L2C LOAD      ACCESS:    7418776  HIT:    5098835  MISS:    2319941
L2C RFO       ACCESS:     878702  HIT:     409917  MISS:     468785
L2C PREFETCH  ACCESS:    4568689  HIT:    3628174  MISS:     940515
L2C WRITEBACK ACCESS:    2039246  HIT:    2021988  MISS:      17258
L2C PREFETCH  REQUESTED:     842801  ISSUED:     842801  USEFUL:     203413  USELESS:     736808
L2C TOTAL MSHR MERGED:       6902
L2C LOAD MSHR MERGED:        768
L2C RFO MSHR MERGED:          0
L2C PREFETCH MSHR MERGED:       6134
L2C WRITEBACK MSHR MERGED:          0
L2C TOTAL ACCESSES:   14913219 HITS:   11159369 MISSES:    3753850
L2C LOAD ACCESSES:    7418987 HITS:    5099046 MISSES:    2319941
L2C RFO ACCESSES:     878802 HITS:     410017 MISSES:     468785
L2C PREFETCH ACCESSES:    4576184 HITS:    3628318 MISSES:     947866
L2C WRITEBACK ACCESSES:    2039246 HITS:    2021988 MISSES:      17258
L2C RQ ACCESS:    8297792
L2C RQ TO_CACHE:    8297481
L2C RQ MERGED:          0
L2C RQ FORWARD:          0
L2C WQ ACCESS:    2039246
L2C WQ TO_CACHE:    2039246
L2C WQ MERGED:          0
L2C WQ FORWARD:        455
LLC TOTAL     ACCESS:    4609830  HIT:    3911967  MISS:     697863
LLC LOAD      ACCESS:    2319158  HIT:    1986903  MISS:     332255
LLC RFO       ACCESS:     468775  HIT:     407870  MISS:      60905
LLC PREFETCH  ACCESS:     941609  HIT:     668628  MISS:     272981
LLC WRITEBACK ACCESS:     880288  HIT:     848566  MISS:      31722
LLC PREFETCH  REQUESTED:          0  ISSUED:          0  USEFUL:      15013  USELESS:     258097
LLC TOTAL MSHR MERGED:        106
LLC LOAD MSHR MERGED:         41
LLC RFO MSHR MERGED:          0
LLC PREFETCH MSHR MERGED:         65
LLC WRITEBACK MSHR MERGED:          0
LLC TOTAL ACCESSES:    4609972 HITS:    3912003 MISSES:     697969
LLC LOAD ACCESSES:    2319173 HITS:    1986918 MISSES:     332255
LLC RFO ACCESSES:     468785 HITS:     407880 MISSES:      60905
LLC PREFETCH ACCESSES:     941726 HITS:     668639 MISSES:     273087
LLC WRITEBACK ACCESSES:     880288 HITS:     848566 MISSES:      31722
LLC 0 RQ ACCESS:    2787958
LLC 0 RQ TO_CACHE:    2787933
LLC 0 RQ MERGED:          0
LLC 0 RQ FORWARD:          0
LLC WQ ACCESS:     880288
LLC WQ TO_CACHE:     880288
LLC WQ MERGED:          0
LLC WQ FORWARD:         36
Major fault: 0 Minor fault: 12862
CPU 0 L1D next line prefetcher final stats
CPU 0 L2C PC-based stride prefetcher final stats
All Misses: 823818
All Hits: 4603018
SD Algo Stats - Switches: 0 SRR-Repls: 384995 BRR-Repls: 0

DRAM Statistics
 CHANNEL 0
 RQ ROW_BUFFER_HIT:     135585  ROW_BUFFER_MISS:     529726
 DBUS_CONGESTED:     347842
 WQ ROW_BUFFER_HIT:      11708  ROW_BUFFER_MISS:     168989  FULL:          0

 AVG_CONGESTED_CYCLE: 13
LOADS RETIRED: 136549171
INSTR RETIRED: 500000000
