
*** ChampSim Multicore Out-of-Order Simulator ***

Warmup Instructions: 100000000
Simulation Instructions: 500000000
Number of CPUs: 1
LLC sets: 2048
LLC ways: 16
Clean RRIP Policies: 1213030112130301 Dirty RRIP Policies: 2213131122131311 PSEL Width: 10 Track Set: 4294967295 PSEL Mask: 1 Demote Mask: 3040201030402010DS Algo: 0Window size: 0
Off-chip DRAM Size: 4096 MB Channels: 1 Width: 64-bit Data Rate: 1600 MT/s

CPU 0 runs /mnt/beegfs/iconst01/spec2017/Parest.trace.gz
NOT SORTED
TRACE STRING: /mnt/beegfs/iconst01/spec2017/Parest.trace.gz
SORTED
TRACE STRING: /mnt/beegfs/iconst01/spec2017/Parest.trace.gz
INITIAL
TRACE STRING: /mnt/beegfs/iconst01/spec2017/Parest.trace.gz

champsim_seed used: 623

CPU 0 L1D next line prefetcher
CPU 0 L2C IP-based stride prefetcher
Initialize DRRIP state
Assign rand_sets[0]: 454  LLC: 2048
rand_sets[0]: 454
Assign rand_sets[1]: 1662  LLC: 2048
rand_sets[1]: 1662
Assign rand_sets[2]: 1921  LLC: 2048
rand_sets[2]: 1921
Assign rand_sets[3]: 1131  LLC: 2048
rand_sets[3]: 1131
Assign rand_sets[4]: 331  LLC: 2048
rand_sets[4]: 331
Assign rand_sets[5]: 1531  LLC: 2048
rand_sets[5]: 1531
Assign rand_sets[6]: 482  LLC: 2048
rand_sets[6]: 482
Assign rand_sets[7]: 1275  LLC: 2048
rand_sets[7]: 1275
Assign rand_sets[8]: 1876  LLC: 2048
rand_sets[8]: 1876
Assign rand_sets[9]: 2038  LLC: 2048
rand_sets[9]: 2038
Assign rand_sets[10]: 701  LLC: 2048
rand_sets[10]: 701
Assign rand_sets[11]: 479  LLC: 2048
rand_sets[11]: 479
Assign rand_sets[12]: 892  LLC: 2048
rand_sets[12]: 892
Assign rand_sets[13]: 1820  LLC: 2048
rand_sets[13]: 1820
Assign rand_sets[14]: 1505  LLC: 2048
rand_sets[14]: 1505
Assign rand_sets[15]: 1159  LLC: 2048
rand_sets[15]: 1159
Assign rand_sets[16]: 513  LLC: 2048
rand_sets[16]: 513
Assign rand_sets[17]: 703  LLC: 2048
rand_sets[17]: 703
Assign rand_sets[18]: 561  LLC: 2048
rand_sets[18]: 561
Assign rand_sets[19]: 990  LLC: 2048
rand_sets[19]: 990
Assign rand_sets[20]: 342  LLC: 2048
rand_sets[20]: 342
Assign rand_sets[21]: 882  LLC: 2048
rand_sets[21]: 882
Assign rand_sets[22]: 15  LLC: 2048
rand_sets[22]: 15
Assign rand_sets[23]: 71  LLC: 2048
rand_sets[23]: 71
Assign rand_sets[24]: 1127  LLC: 2048
rand_sets[24]: 1127
Assign rand_sets[25]: 1382  LLC: 2048
rand_sets[25]: 1382
Assign rand_sets[26]: 647  LLC: 2048
rand_sets[26]: 647
Assign rand_sets[27]: 857  LLC: 2048
rand_sets[27]: 857
Assign rand_sets[28]: 1450  LLC: 2048
rand_sets[28]: 1450
Assign rand_sets[29]: 1160  LLC: 2048
rand_sets[29]: 1160
Assign rand_sets[30]: 1852  LLC: 2048
rand_sets[30]: 1852
Assign rand_sets[31]: 1881  LLC: 2048
rand_sets[31]: 1881
Assign rand_sets[32]: 1770  LLC: 2048
rand_sets[32]: 1770
Assign rand_sets[33]: 1622  LLC: 2048
rand_sets[33]: 1622
Assign rand_sets[34]: 275  LLC: 2048
rand_sets[34]: 275
Assign rand_sets[35]: 635  LLC: 2048
rand_sets[35]: 635
Assign rand_sets[36]: 466  LLC: 2048
rand_sets[36]: 466
Assign rand_sets[37]: 1413  LLC: 2048
rand_sets[37]: 1413
Assign rand_sets[38]: 417  LLC: 2048
rand_sets[38]: 417
Assign rand_sets[39]: 472  LLC: 2048
rand_sets[39]: 472
Assign rand_sets[40]: 1340  LLC: 2048
rand_sets[40]: 1340
Assign rand_sets[41]: 852  LLC: 2048
rand_sets[41]: 852
Assign rand_sets[42]: 1365  LLC: 2048
rand_sets[42]: 1365
Assign rand_sets[43]: 47  LLC: 2048
rand_sets[43]: 47
Assign rand_sets[44]: 823  LLC: 2048
rand_sets[44]: 823
Assign rand_sets[45]: 686  LLC: 2048
rand_sets[45]: 686
Assign rand_sets[46]: 1637  LLC: 2048
rand_sets[46]: 1637
Assign rand_sets[47]: 1115  LLC: 2048
rand_sets[47]: 1115
Assign rand_sets[48]: 986  LLC: 2048
rand_sets[48]: 986
Assign rand_sets[49]: 258  LLC: 2048
rand_sets[49]: 258
Assign rand_sets[50]: 633  LLC: 2048
rand_sets[50]: 633
Assign rand_sets[51]: 920  LLC: 2048
rand_sets[51]: 920
Assign rand_sets[52]: 204  LLC: 2048
rand_sets[52]: 204
Assign rand_sets[53]: 227  LLC: 2048
rand_sets[53]: 227
Assign rand_sets[54]: 1818  LLC: 2048
rand_sets[54]: 1818
Assign rand_sets[55]: 886  LLC: 2048
rand_sets[55]: 886
Assign rand_sets[56]: 1422  LLC: 2048
rand_sets[56]: 1422
Assign rand_sets[57]: 607  LLC: 2048
rand_sets[57]: 607
Assign rand_sets[58]: 217  LLC: 2048
rand_sets[58]: 217
Assign rand_sets[59]: 1945  LLC: 2048
rand_sets[59]: 1945
Assign rand_sets[60]: 143  LLC: 2048
rand_sets[60]: 143
Assign rand_sets[61]: 1311  LLC: 2048
rand_sets[61]: 1311
Assign rand_sets[62]: 319  LLC: 2048
rand_sets[62]: 319
Assign rand_sets[63]: 1846  LLC: 2048
rand_sets[63]: 1846
 CLEAN-RRIP-POLICY-1: 1-2-1-3-0-3-0-1- CLEAN-RRIP-POLICY-2: 1-2-1-3-0-3-0-1-
 DIRTY-RRIP-POLICY-1: 2-2-1-3-1-3-1-1- DIRTY-RRIP-POLICY-2: 2-2-1-3-1-3-1-1-
 PSEL width: 10
Heartbeat CPU 0 instructions: 10000001 cycles: 4387121 heartbeat IPC: 2.2794 cumulative IPC: 2.2794 (Simulation time: 0 hr 0 min 15 sec) 
Heartbeat CPU 0 instructions: 20000000 cycles: 8781248 heartbeat IPC: 2.27576 cumulative IPC: 2.27758 (Simulation time: 0 hr 0 min 30 sec) 
Heartbeat CPU 0 instructions: 30000003 cycles: 13213196 heartbeat IPC: 2.25634 cumulative IPC: 2.27046 (Simulation time: 0 hr 0 min 45 sec) 
Heartbeat CPU 0 instructions: 40000000 cycles: 17643805 heartbeat IPC: 2.25703 cumulative IPC: 2.26708 (Simulation time: 0 hr 0 min 59 sec) 
Heartbeat CPU 0 instructions: 50000000 cycles: 22051998 heartbeat IPC: 2.2685 cumulative IPC: 2.26737 (Simulation time: 0 hr 1 min 14 sec) 
Heartbeat CPU 0 instructions: 60000000 cycles: 26457683 heartbeat IPC: 2.26979 cumulative IPC: 2.26777 (Simulation time: 0 hr 1 min 29 sec) 
Heartbeat CPU 0 instructions: 70000000 cycles: 30858502 heartbeat IPC: 2.2723 cumulative IPC: 2.26842 (Simulation time: 0 hr 1 min 43 sec) 
Heartbeat CPU 0 instructions: 80000000 cycles: 35254059 heartbeat IPC: 2.27502 cumulative IPC: 2.26924 (Simulation time: 0 hr 1 min 58 sec) 
Heartbeat CPU 0 instructions: 90000000 cycles: 39648322 heartbeat IPC: 2.27569 cumulative IPC: 2.26996 (Simulation time: 0 hr 2 min 13 sec) 
Heartbeat CPU 0 instructions: 100000000 cycles: 44045630 heartbeat IPC: 2.27412 cumulative IPC: 2.27037 (Simulation time: 0 hr 2 min 29 sec) 

Warmup complete CPU 0 instructions: 100000002 cycles: 44045640 (Simulation time: 0 hr 2 min 29 sec) 

Heartbeat CPU 0 instructions: 110000000 cycles: 54199600 heartbeat IPC: 0.984836 cumulative IPC: 0.984837 (Simulation time: 0 hr 2 min 48 sec) 
Heartbeat CPU 0 instructions: 120000000 cycles: 63587456 heartbeat IPC: 1.06521 cumulative IPC: 1.02345 (Simulation time: 0 hr 3 min 7 sec) 
Heartbeat CPU 0 instructions: 130000000 cycles: 73006071 heartbeat IPC: 1.06173 cumulative IPC: 1.0359 (Simulation time: 0 hr 3 min 26 sec) 
Heartbeat CPU 0 instructions: 140000000 cycles: 82647285 heartbeat IPC: 1.03721 cumulative IPC: 1.03623 (Simulation time: 0 hr 3 min 45 sec) 
Heartbeat CPU 0 instructions: 150000000 cycles: 93642523 heartbeat IPC: 0.909485 cumulative IPC: 1.00813 (Simulation time: 0 hr 4 min 5 sec) 
Heartbeat CPU 0 instructions: 160000000 cycles: 103688696 heartbeat IPC: 0.995404 cumulative IPC: 1.00598 (Simulation time: 0 hr 4 min 24 sec) 
Heartbeat CPU 0 instructions: 170000003 cycles: 113648000 heartbeat IPC: 1.00409 cumulative IPC: 1.00571 (Simulation time: 0 hr 4 min 43 sec) 
Heartbeat CPU 0 instructions: 180000000 cycles: 123573571 heartbeat IPC: 1.0075 cumulative IPC: 1.00594 (Simulation time: 0 hr 5 min 2 sec) 
Heartbeat CPU 0 instructions: 190000002 cycles: 133642821 heartbeat IPC: 0.993123 cumulative IPC: 1.0045 (Simulation time: 0 hr 5 min 21 sec) 
Heartbeat CPU 0 instructions: 200000000 cycles: 143286818 heartbeat IPC: 1.03691 cumulative IPC: 1.00765 (Simulation time: 0 hr 5 min 40 sec) 
Heartbeat CPU 0 instructions: 210000000 cycles: 153273218 heartbeat IPC: 1.00136 cumulative IPC: 1.00707 (Simulation time: 0 hr 6 min 0 sec) 
Heartbeat CPU 0 instructions: 220000000 cycles: 162743824 heartbeat IPC: 1.0559 cumulative IPC: 1.01097 (Simulation time: 0 hr 6 min 19 sec) 
Heartbeat CPU 0 instructions: 230000001 cycles: 174958959 heartbeat IPC: 0.818657 cumulative IPC: 0.993023 (Simulation time: 0 hr 6 min 40 sec) 
Heartbeat CPU 0 instructions: 240000000 cycles: 185410858 heartbeat IPC: 0.956764 cumulative IPC: 0.990343 (Simulation time: 0 hr 6 min 59 sec) 
Heartbeat CPU 0 instructions: 250000002 cycles: 195356376 heartbeat IPC: 1.00548 cumulative IPC: 0.991337 (Simulation time: 0 hr 7 min 18 sec) 
Heartbeat CPU 0 instructions: 260000000 cycles: 205130967 heartbeat IPC: 1.02306 cumulative IPC: 0.993262 (Simulation time: 0 hr 7 min 37 sec) 
Heartbeat CPU 0 instructions: 270000001 cycles: 214826597 heartbeat IPC: 1.03139 cumulative IPC: 0.995427 (Simulation time: 0 hr 7 min 56 sec) 
Heartbeat CPU 0 instructions: 280000000 cycles: 224797449 heartbeat IPC: 1.00292 cumulative IPC: 0.995841 (Simulation time: 0 hr 8 min 15 sec) 
Heartbeat CPU 0 instructions: 290000002 cycles: 234276642 heartbeat IPC: 1.05494 cumulative IPC: 0.998786 (Simulation time: 0 hr 8 min 34 sec) 
Heartbeat CPU 0 instructions: 300000000 cycles: 244115307 heartbeat IPC: 1.0164 cumulative IPC: 0.999652 (Simulation time: 0 hr 8 min 53 sec) 
Heartbeat CPU 0 instructions: 310000000 cycles: 253545285 heartbeat IPC: 1.06045 cumulative IPC: 1.00239 (Simulation time: 0 hr 9 min 12 sec) 
Heartbeat CPU 0 instructions: 320000000 cycles: 263035459 heartbeat IPC: 1.05372 cumulative IPC: 1.00461 (Simulation time: 0 hr 9 min 32 sec) 
Heartbeat CPU 0 instructions: 330000003 cycles: 272629201 heartbeat IPC: 1.04235 cumulative IPC: 1.0062 (Simulation time: 0 hr 9 min 51 sec) 
Heartbeat CPU 0 instructions: 340000000 cycles: 282724664 heartbeat IPC: 0.990544 cumulative IPC: 1.00553 (Simulation time: 0 hr 10 min 10 sec) 
Heartbeat CPU 0 instructions: 350000000 cycles: 292911425 heartbeat IPC: 0.981666 cumulative IPC: 1.00456 (Simulation time: 0 hr 10 min 29 sec) 
Heartbeat CPU 0 instructions: 360000000 cycles: 302738709 heartbeat IPC: 1.01758 cumulative IPC: 1.00505 (Simulation time: 0 hr 10 min 48 sec) 
Heartbeat CPU 0 instructions: 370000000 cycles: 312424611 heartbeat IPC: 1.03243 cumulative IPC: 1.00604 (Simulation time: 0 hr 11 min 7 sec) 
Heartbeat CPU 0 instructions: 380000000 cycles: 322080964 heartbeat IPC: 1.03559 cumulative IPC: 1.00707 (Simulation time: 0 hr 11 min 26 sec) 
Heartbeat CPU 0 instructions: 390000002 cycles: 331558921 heartbeat IPC: 1.05508 cumulative IPC: 1.00865 (Simulation time: 0 hr 11 min 45 sec) 
Heartbeat CPU 0 instructions: 400000000 cycles: 341382164 heartbeat IPC: 1.01799 cumulative IPC: 1.00896 (Simulation time: 0 hr 12 min 4 sec) 
Heartbeat CPU 0 instructions: 410000000 cycles: 350773497 heartbeat IPC: 1.06481 cumulative IPC: 1.01067 (Simulation time: 0 hr 12 min 23 sec) 
Heartbeat CPU 0 instructions: 420000000 cycles: 361850280 heartbeat IPC: 0.902789 cumulative IPC: 1.00691 (Simulation time: 0 hr 12 min 43 sec) 
Heartbeat CPU 0 instructions: 430000000 cycles: 372624359 heartbeat IPC: 0.928154 cumulative IPC: 1.00433 (Simulation time: 0 hr 13 min 2 sec) 
Heartbeat CPU 0 instructions: 440000000 cycles: 382625136 heartbeat IPC: 0.999922 cumulative IPC: 1.0042 (Simulation time: 0 hr 13 min 20 sec) 
Heartbeat CPU 0 instructions: 450000000 cycles: 392606821 heartbeat IPC: 1.00183 cumulative IPC: 1.00413 (Simulation time: 0 hr 13 min 39 sec) 
Heartbeat CPU 0 instructions: 460000000 cycles: 402586177 heartbeat IPC: 1.00207 cumulative IPC: 1.00407 (Simulation time: 0 hr 13 min 57 sec) 
Heartbeat CPU 0 instructions: 470000001 cycles: 412647397 heartbeat IPC: 0.993915 cumulative IPC: 1.00379 (Simulation time: 0 hr 14 min 16 sec) 
Heartbeat CPU 0 instructions: 480000000 cycles: 422254915 heartbeat IPC: 1.04085 cumulative IPC: 1.00473 (Simulation time: 0 hr 14 min 35 sec) 
Heartbeat CPU 0 instructions: 490000002 cycles: 432248097 heartbeat IPC: 1.00068 cumulative IPC: 1.00463 (Simulation time: 0 hr 14 min 54 sec) 
Heartbeat CPU 0 instructions: 500000000 cycles: 441945726 heartbeat IPC: 1.03118 cumulative IPC: 1.00528 (Simulation time: 0 hr 15 min 12 sec) 
Heartbeat CPU 0 instructions: 510000000 cycles: 451459900 heartbeat IPC: 1.05106 cumulative IPC: 1.00635 (Simulation time: 0 hr 15 min 31 sec) 
Heartbeat CPU 0 instructions: 520000000 cycles: 461163688 heartbeat IPC: 1.03053 cumulative IPC: 1.00691 (Simulation time: 0 hr 15 min 50 sec) 
Heartbeat CPU 0 instructions: 530000001 cycles: 471510462 heartbeat IPC: 0.966485 cumulative IPC: 1.00593 (Simulation time: 0 hr 16 min 9 sec) 
Heartbeat CPU 0 instructions: 540000000 cycles: 481867647 heartbeat IPC: 0.965513 cumulative IPC: 1.00497 (Simulation time: 0 hr 16 min 28 sec) 
Heartbeat CPU 0 instructions: 550000003 cycles: 491894580 heartbeat IPC: 0.997314 cumulative IPC: 1.0048 (Simulation time: 0 hr 16 min 46 sec) 
Heartbeat CPU 0 instructions: 560000000 cycles: 501778230 heartbeat IPC: 1.01177 cumulative IPC: 1.00495 (Simulation time: 0 hr 17 min 4 sec) 
Heartbeat CPU 0 instructions: 570000002 cycles: 511605751 heartbeat IPC: 1.01755 cumulative IPC: 1.00522 (Simulation time: 0 hr 17 min 22 sec) 
Heartbeat CPU 0 instructions: 580000000 cycles: 521263896 heartbeat IPC: 1.0354 cumulative IPC: 1.00583 (Simulation time: 0 hr 17 min 40 sec) 
Heartbeat CPU 0 instructions: 590000002 cycles: 531215136 heartbeat IPC: 1.0049 cumulative IPC: 1.00581 (Simulation time: 0 hr 17 min 58 sec) 
Heartbeat CPU 0 instructions: 600000000 cycles: 540831639 heartbeat IPC: 1.03988 cumulative IPC: 1.00647 (Simulation time: 0 hr 18 min 17 sec) 
Finished CPU 0 instructions: 500000000 cycles: 496786013 cumulative IPC: 1.00647 (Simulation time: 0 hr 18 min 17 sec) 

CPU 0 Branch Prediction Accuracy: 97.8526% MPKI: 2.66709
Number of Branches: 62099103 Number of Mispredictions: 1333545
Number of LOAD Instructions: 210576465
Number of LOAD Instructions (ROI): 210576465
Number of STORE Instructions: 16915507
Number of STORE Instructions (ROI): 16915507
Total Destination Memory Operands: 16918869
Total Destination Memory Operands (ROI): 16918869
Total Source Memory Operands: 210576465
Total Source Memory Operands (ROI): 210576465
Number of DEPENDED LOADS: 345189
Number of DEPENDED LOADS (ROI): 345189
Number of SQ_ADDED: 16918826
Number of SQ_ADDED (ROI): 16918826
Number of LQ_ADDED: 210608192
Number of LQ_ADDED (ROI): 210608192
Number of Instructions read from trace: 600000257

ChampSim completed all CPUs

Region of Interest Statistics

CPU 0 cumulative IPC: 1.00647 instructions: 500000000 cycles: 496786013
ITLB TOTAL     ACCESS:   76285155  HIT:   76285117  MISS:         38
ITLB LOAD      ACCESS:   76285155  HIT:   76285117  MISS:         38
ITLB RFO       ACCESS:          0  HIT:          0  MISS:          0
ITLB PREFETCH  ACCESS:          0  HIT:          0  MISS:          0
ITLB WRITEBACK ACCESS:          0  HIT:          0  MISS:          0
ITLB PREFETCH  REQUESTED:          0  ISSUED:          0  USEFUL:          0  USELESS:          0
ITLB TOTAL MSHR MERGED:         37
ITLB LOAD MSHR MERGED:         37
ITLB RFO MSHR MERGED:          0
ITLB PREFETCH MSHR MERGED:          0
ITLB WRITEBACK MSHR MERGED:          0
ITLB TOTAL ACCESSES:   76285192 HITS:   76285117 MISSES:         75
ITLB LOAD ACCESSES:   76285192 HITS:   76285117 MISSES:         75
ITLB RFO ACCESSES:          0 HITS:          0 MISSES:          0
ITLB PREFETCH ACCESSES:          0 HITS:          0 MISSES:          0
ITLB WRITEBACK ACCESSES:          0 HITS:          0 MISSES:          0
ITLB RQ ACCESS:  500000188
ITLB RQ TO_CACHE:   76285193
ITLB RQ MERGED:  423714995
ITLB RQ FORWARD:          0
ITLB WQ ACCESS:          0
ITLB WQ TO_CACHE:          0
ITLB WQ MERGED:          0
ITLB WQ FORWARD:          0
DTLB TOTAL     ACCESS:  136819611  HIT:  136616818  MISS:     202793
DTLB LOAD      ACCESS:  128757271  HIT:  128557199  MISS:     200072
DTLB RFO       ACCESS:    8062340  HIT:    8059619  MISS:       2721
DTLB PREFETCH  ACCESS:          0  HIT:          0  MISS:          0
DTLB WRITEBACK ACCESS:          0  HIT:          0  MISS:          0
DTLB PREFETCH  REQUESTED:          0  ISSUED:          0  USEFUL:          0  USELESS:          0
DTLB TOTAL MSHR MERGED:     448127
DTLB LOAD MSHR MERGED:     444456
DTLB RFO MSHR MERGED:       3671
DTLB PREFETCH MSHR MERGED:          0
DTLB WRITEBACK MSHR MERGED:          0
DTLB TOTAL ACCESSES:  137267738 HITS:  136616818 MISSES:     650920
DTLB LOAD ACCESSES:  129201727 HITS:  128557199 MISSES:     644528
DTLB RFO ACCESSES:    8066011 HITS:    8059619 MISSES:       6392
DTLB PREFETCH ACCESSES:          0 HITS:          0 MISSES:          0
DTLB WRITEBACK ACCESSES:          0 HITS:          0 MISSES:          0
DTLB RQ ACCESS:  189419379
DTLB RQ TO_CACHE:  137267738
DTLB RQ MERGED:   52151641
DTLB RQ FORWARD:          0
DTLB WQ ACCESS:          0
DTLB WQ TO_CACHE:          0
DTLB WQ MERGED:          0
DTLB WQ FORWARD:          0
L1D TOTAL     ACCESS:  125448725  HIT:  107891809  MISS:   17556916
L1D LOAD      ACCESS:   72333777  HIT:   62071523  MISS:   10262254
L1D RFO       ACCESS:   14014390  HIT:   13861561  MISS:     152829
L1D PREFETCH  ACCESS:   39100558  HIT:   31958725  MISS:    7141833
L1D WRITEBACK ACCESS:          0  HIT:          0  MISS:          0
L1D PREFETCH  REQUESTED:   85537487  ISSUED:   84216325  USEFUL:    5882522  USELESS:    1259322
L1D TOTAL MSHR MERGED:   31474100
L1D LOAD MSHR MERGED:   18358976
L1D RFO MSHR MERGED:     266577
L1D PREFETCH MSHR MERGED:   12848547
L1D WRITEBACK MSHR MERGED:          0
L1D TOTAL ACCESSES:  156923351 HITS:  107892336 MISSES:   49031015
L1D LOAD ACCESSES:   85537508 HITS:   62071544 MISSES:   23465964
L1D RFO ACCESSES:   14280944 HITS:   13861561 MISSES:     419383
L1D PREFETCH ACCESSES:   57104899 HITS:   31959231 MISSES:   25145668
L1D WRITEBACK ACCESSES:          0 HITS:          0 MISSES:          0
L1D RQ ACCESS:  175130357
L1D RQ TO_CACHE:   85537487
L1D RQ MERGED:   89592849
L1D RQ FORWARD:          0
L1D WQ ACCESS:   14289037
L1D WQ TO_CACHE:   14280944
L1D WQ MERGED:       8093
L1D WQ FORWARD:        527
L1I TOTAL     ACCESS:   93311698  HIT:   93309902  MISS:       1796
L1I LOAD      ACCESS:   93311698  HIT:   93309902  MISS:       1796
L1I RFO       ACCESS:          0  HIT:          0  MISS:          0
L1I PREFETCH  ACCESS:          0  HIT:          0  MISS:          0
L1I WRITEBACK ACCESS:          0  HIT:          0  MISS:          0
L1I PREFETCH  REQUESTED:          0  ISSUED:          0  USEFUL:          0  USELESS:          0
L1I TOTAL MSHR MERGED:       2308
L1I LOAD MSHR MERGED:       2308
L1I RFO MSHR MERGED:          0
L1I PREFETCH MSHR MERGED:          0
L1I WRITEBACK MSHR MERGED:          0
L1I TOTAL ACCESSES:   93314006 HITS:   93309902 MISSES:       4104
L1I LOAD ACCESSES:   93314006 HITS:   93309902 MISSES:       4104
L1I RFO ACCESSES:          0 HITS:          0 MISSES:          0
L1I PREFETCH ACCESSES:          0 HITS:          0 MISSES:          0
L1I WRITEBACK ACCESSES:          0 HITS:          0 MISSES:          0
L1I RQ ACCESS:  500000187
L1I RQ TO_CACHE:   93314006
L1I RQ MERGED:  406686181
L1I RQ FORWARD:          0
L1I WQ ACCESS:          0
L1I WQ TO_CACHE:          0
L1I WQ MERGED:          0
L1I WQ FORWARD:          0
L2C TOTAL     ACCESS:   20897397  HIT:    8668098  MISS:   12229299
L2C LOAD      ACCESS:    5108759  HIT:    2143702  MISS:    2965057
L2C RFO       ACCESS:     152806  HIT:       6510  MISS:     146296
L2C PREFETCH  ACCESS:   13863079  HIT:    4745243  MISS:    9117836
L2C WRITEBACK ACCESS:    1772753  HIT:    1772643  MISS:        110
L2C PREFETCH  REQUESTED:    1803861  ISSUED:    1803861  USEFUL:    1069215  USELESS:    8050237
L2C TOTAL MSHR MERGED:      95932
L2C LOAD MSHR MERGED:      22038
L2C RFO MSHR MERGED:          0
L2C PREFETCH MSHR MERGED:      73894
L2C WRITEBACK MSHR MERGED:          0
L2C TOTAL ACCESSES:   21017524 HITS:    8668137 MISSES:   12349387
L2C LOAD ACCESSES:    5108784 HITS:    2143727 MISSES:    2965057
L2C RFO ACCESSES:     152806 HITS:       6510 MISSES:     146296
L2C PREFETCH ACCESSES:   13983181 HITS:    4745257 MISSES:    9237924
L2C WRITEBACK ACCESSES:    1772753 HITS:    1772643 MISSES:        110
L2C RQ ACCESS:    5261590
L2C RQ TO_CACHE:    5261565
L2C RQ MERGED:          0
L2C RQ FORWARD:          0
L2C WQ ACCESS:    1772753
L2C WQ TO_CACHE:    1772753
L2C WQ MERGED:          0
L2C WQ FORWARD:         39
LLC TOTAL     ACCESS:   12533366  HIT:    6632206  MISS:    5901160
LLC LOAD      ACCESS:    2943001  HIT:    2450474  MISS:     492527
LLC RFO       ACCESS:     146296  HIT:      63811  MISS:      82485
LLC PREFETCH  ACCESS:    9158092  HIT:    3897837  MISS:    5260255
LLC WRITEBACK ACCESS:     285977  HIT:     220084  MISS:      65893
LLC PREFETCH  REQUESTED:          0  ISSUED:          0  USEFUL:      14658  USELESS:    5245127
LLC TOTAL MSHR MERGED:       1703
LLC LOAD MSHR MERGED:        390
LLC RFO MSHR MERGED:          0
LLC PREFETCH MSHR MERGED:       1313
LLC WRITEBACK MSHR MERGED:          0
LLC TOTAL ACCESSES:   12535099 HITS:    6632236 MISSES:    5902863
LLC LOAD ACCESSES:    2943019 HITS:    2450492 MISSES:     492527
LLC RFO ACCESSES:     146296 HITS:      63811 MISSES:      82485
LLC PREFETCH ACCESSES:    9159807 HITS:    3897849 MISSES:    5261958
LLC WRITEBACK ACCESSES:     285977 HITS:     220084 MISSES:      65893
LLC 0 RQ ACCESS:    3089315
LLC 0 RQ TO_CACHE:    3089297
LLC 0 RQ MERGED:          0
LLC 0 RQ FORWARD:          0
LLC WQ ACCESS:     285977
LLC WQ TO_CACHE:     285977
LLC WQ MERGED:          0
LLC WQ FORWARD:         30
Major fault: 0 Minor fault: 6524
CPU 0 L1D next line prefetcher final stats
CPU 0 L2C PC-based stride prefetcher final stats
All Misses: 7703862
All Hits: 7354517
SD Algo Stats - Switches: 0 SRR-Repls: 525355 BRR-Repls: 0

DRAM Statistics
 CHANNEL 0
 RQ ROW_BUFFER_HIT:    4983071  ROW_BUFFER_MISS:     844118
 DBUS_CONGESTED:    2020463
 WQ ROW_BUFFER_HIT:      14421  ROW_BUFFER_MISS:      95853  FULL:          0

 AVG_CONGESTED_CYCLE: 12
LOADS RETIRED: 175418235
INSTR RETIRED: 500000000
