
*** ChampSim Multicore Out-of-Order Simulator ***

Warmup Instructions: 100000000
Simulation Instructions: 500000000
Number of CPUs: 1
LLC sets: 2048
LLC ways: 16
Clean RRIP Policies: 2213030222130302 Dirty RRIP Policies: 1203130212031302 PSEL Width: 10 Track Set: 4294967295 PSEL Mask: 1 Demote Mask: 1040300010403000DS Algo: 0Window size: 0
Off-chip DRAM Size: 4096 MB Channels: 1 Width: 64-bit Data Rate: 1600 MT/s

CPU 0 runs /mnt/beegfs/iconst01/spec2017/Gcc.trace.gz
NOT SORTED
TRACE STRING: /mnt/beegfs/iconst01/spec2017/Gcc.trace.gz
SORTED
TRACE STRING: /mnt/beegfs/iconst01/spec2017/Gcc.trace.gz
INITIAL
TRACE STRING: /mnt/beegfs/iconst01/spec2017/Gcc.trace.gz

champsim_seed used: 269

CPU 0 L1D next line prefetcher
CPU 0 L2C IP-based stride prefetcher
Initialize DRRIP state
Assign rand_sets[0]: 454  LLC: 2048
rand_sets[0]: 454
Assign rand_sets[1]: 1662  LLC: 2048
rand_sets[1]: 1662
Assign rand_sets[2]: 1921  LLC: 2048
rand_sets[2]: 1921
Assign rand_sets[3]: 1131  LLC: 2048
rand_sets[3]: 1131
Assign rand_sets[4]: 331  LLC: 2048
rand_sets[4]: 331
Assign rand_sets[5]: 1531  LLC: 2048
rand_sets[5]: 1531
Assign rand_sets[6]: 482  LLC: 2048
rand_sets[6]: 482
Assign rand_sets[7]: 1275  LLC: 2048
rand_sets[7]: 1275
Assign rand_sets[8]: 1876  LLC: 2048
rand_sets[8]: 1876
Assign rand_sets[9]: 2038  LLC: 2048
rand_sets[9]: 2038
Assign rand_sets[10]: 701  LLC: 2048
rand_sets[10]: 701
Assign rand_sets[11]: 479  LLC: 2048
rand_sets[11]: 479
Assign rand_sets[12]: 892  LLC: 2048
rand_sets[12]: 892
Assign rand_sets[13]: 1820  LLC: 2048
rand_sets[13]: 1820
Assign rand_sets[14]: 1505  LLC: 2048
rand_sets[14]: 1505
Assign rand_sets[15]: 1159  LLC: 2048
rand_sets[15]: 1159
Assign rand_sets[16]: 513  LLC: 2048
rand_sets[16]: 513
Assign rand_sets[17]: 703  LLC: 2048
rand_sets[17]: 703
Assign rand_sets[18]: 561  LLC: 2048
rand_sets[18]: 561
Assign rand_sets[19]: 990  LLC: 2048
rand_sets[19]: 990
Assign rand_sets[20]: 342  LLC: 2048
rand_sets[20]: 342
Assign rand_sets[21]: 882  LLC: 2048
rand_sets[21]: 882
Assign rand_sets[22]: 15  LLC: 2048
rand_sets[22]: 15
Assign rand_sets[23]: 71  LLC: 2048
rand_sets[23]: 71
Assign rand_sets[24]: 1127  LLC: 2048
rand_sets[24]: 1127
Assign rand_sets[25]: 1382  LLC: 2048
rand_sets[25]: 1382
Assign rand_sets[26]: 647  LLC: 2048
rand_sets[26]: 647
Assign rand_sets[27]: 857  LLC: 2048
rand_sets[27]: 857
Assign rand_sets[28]: 1450  LLC: 2048
rand_sets[28]: 1450
Assign rand_sets[29]: 1160  LLC: 2048
rand_sets[29]: 1160
Assign rand_sets[30]: 1852  LLC: 2048
rand_sets[30]: 1852
Assign rand_sets[31]: 1881  LLC: 2048
rand_sets[31]: 1881
Assign rand_sets[32]: 1770  LLC: 2048
rand_sets[32]: 1770
Assign rand_sets[33]: 1622  LLC: 2048
rand_sets[33]: 1622
Assign rand_sets[34]: 275  LLC: 2048
rand_sets[34]: 275
Assign rand_sets[35]: 635  LLC: 2048
rand_sets[35]: 635
Assign rand_sets[36]: 466  LLC: 2048
rand_sets[36]: 466
Assign rand_sets[37]: 1413  LLC: 2048
rand_sets[37]: 1413
Assign rand_sets[38]: 417  LLC: 2048
rand_sets[38]: 417
Assign rand_sets[39]: 472  LLC: 2048
rand_sets[39]: 472
Assign rand_sets[40]: 1340  LLC: 2048
rand_sets[40]: 1340
Assign rand_sets[41]: 852  LLC: 2048
rand_sets[41]: 852
Assign rand_sets[42]: 1365  LLC: 2048
rand_sets[42]: 1365
Assign rand_sets[43]: 47  LLC: 2048
rand_sets[43]: 47
Assign rand_sets[44]: 823  LLC: 2048
rand_sets[44]: 823
Assign rand_sets[45]: 686  LLC: 2048
rand_sets[45]: 686
Assign rand_sets[46]: 1637  LLC: 2048
rand_sets[46]: 1637
Assign rand_sets[47]: 1115  LLC: 2048
rand_sets[47]: 1115
Assign rand_sets[48]: 986  LLC: 2048
rand_sets[48]: 986
Assign rand_sets[49]: 258  LLC: 2048
rand_sets[49]: 258
Assign rand_sets[50]: 633  LLC: 2048
rand_sets[50]: 633
Assign rand_sets[51]: 920  LLC: 2048
rand_sets[51]: 920
Assign rand_sets[52]: 204  LLC: 2048
rand_sets[52]: 204
Assign rand_sets[53]: 227  LLC: 2048
rand_sets[53]: 227
Assign rand_sets[54]: 1818  LLC: 2048
rand_sets[54]: 1818
Assign rand_sets[55]: 886  LLC: 2048
rand_sets[55]: 886
Assign rand_sets[56]: 1422  LLC: 2048
rand_sets[56]: 1422
Assign rand_sets[57]: 607  LLC: 2048
rand_sets[57]: 607
Assign rand_sets[58]: 217  LLC: 2048
rand_sets[58]: 217
Assign rand_sets[59]: 1945  LLC: 2048
rand_sets[59]: 1945
Assign rand_sets[60]: 143  LLC: 2048
rand_sets[60]: 143
Assign rand_sets[61]: 1311  LLC: 2048
rand_sets[61]: 1311
Assign rand_sets[62]: 319  LLC: 2048
rand_sets[62]: 319
Assign rand_sets[63]: 1846  LLC: 2048
rand_sets[63]: 1846
 CLEAN-RRIP-POLICY-1: 2-2-1-3-0-3-0-2- CLEAN-RRIP-POLICY-2: 2-2-1-3-0-3-0-2-
 DIRTY-RRIP-POLICY-1: 1-2-0-3-1-3-0-2- DIRTY-RRIP-POLICY-2: 1-2-0-3-1-3-0-2-
 PSEL width: 10
Heartbeat CPU 0 instructions: 10000001 cycles: 7315979 heartbeat IPC: 1.36687 cumulative IPC: 1.36687 (Simulation time: 0 hr 0 min 14 sec) 
Heartbeat CPU 0 instructions: 20000000 cycles: 14307719 heartbeat IPC: 1.43026 cumulative IPC: 1.39785 (Simulation time: 0 hr 0 min 27 sec) 
Heartbeat CPU 0 instructions: 30000001 cycles: 21020647 heartbeat IPC: 1.48966 cumulative IPC: 1.42717 (Simulation time: 0 hr 0 min 42 sec) 
Heartbeat CPU 0 instructions: 40000000 cycles: 27481422 heartbeat IPC: 1.5478 cumulative IPC: 1.45553 (Simulation time: 0 hr 0 min 57 sec) 
Heartbeat CPU 0 instructions: 50000001 cycles: 33583222 heartbeat IPC: 1.63886 cumulative IPC: 1.48884 (Simulation time: 0 hr 1 min 11 sec) 
Heartbeat CPU 0 instructions: 60000000 cycles: 40064471 heartbeat IPC: 1.54291 cumulative IPC: 1.49759 (Simulation time: 0 hr 1 min 25 sec) 
Heartbeat CPU 0 instructions: 70000000 cycles: 47103682 heartbeat IPC: 1.42061 cumulative IPC: 1.48608 (Simulation time: 0 hr 1 min 39 sec) 
Heartbeat CPU 0 instructions: 80000000 cycles: 54194135 heartbeat IPC: 1.41035 cumulative IPC: 1.47617 (Simulation time: 0 hr 1 min 52 sec) 
Heartbeat CPU 0 instructions: 90000003 cycles: 61199010 heartbeat IPC: 1.42758 cumulative IPC: 1.47061 (Simulation time: 0 hr 2 min 6 sec) 
Heartbeat CPU 0 instructions: 100000000 cycles: 68366640 heartbeat IPC: 1.39516 cumulative IPC: 1.4627 (Simulation time: 0 hr 2 min 19 sec) 

Warmup complete CPU 0 instructions: 100000004 cycles: 68366641 (Simulation time: 0 hr 2 min 19 sec) 

Heartbeat CPU 0 instructions: 110000003 cycles: 95989586 heartbeat IPC: 0.362018 cumulative IPC: 0.362018 (Simulation time: 0 hr 2 min 44 sec) 
Heartbeat CPU 0 instructions: 120000000 cycles: 123439479 heartbeat IPC: 0.3643 cumulative IPC: 0.363155 (Simulation time: 0 hr 3 min 10 sec) 
Heartbeat CPU 0 instructions: 130000000 cycles: 148413458 heartbeat IPC: 0.400417 cumulative IPC: 0.374781 (Simulation time: 0 hr 3 min 35 sec) 
Heartbeat CPU 0 instructions: 140000000 cycles: 178005284 heartbeat IPC: 0.337931 cumulative IPC: 0.364835 (Simulation time: 0 hr 4 min 0 sec) 
Heartbeat CPU 0 instructions: 150000000 cycles: 207883191 heartbeat IPC: 0.334695 cumulative IPC: 0.35838 (Simulation time: 0 hr 4 min 25 sec) 
Heartbeat CPU 0 instructions: 160000000 cycles: 235310486 heartbeat IPC: 0.3646 cumulative IPC: 0.359402 (Simulation time: 0 hr 4 min 50 sec) 
Heartbeat CPU 0 instructions: 170000001 cycles: 263306105 heartbeat IPC: 0.357199 cumulative IPC: 0.359086 (Simulation time: 0 hr 5 min 16 sec) 
Heartbeat CPU 0 instructions: 180000000 cycles: 291748377 heartbeat IPC: 0.351589 cumulative IPC: 0.358131 (Simulation time: 0 hr 5 min 42 sec) 
Heartbeat CPU 0 instructions: 190000002 cycles: 319770297 heartbeat IPC: 0.356864 cumulative IPC: 0.35799 (Simulation time: 0 hr 6 min 7 sec) 
Heartbeat CPU 0 instructions: 200000000 cycles: 348138589 heartbeat IPC: 0.352506 cumulative IPC: 0.357434 (Simulation time: 0 hr 6 min 33 sec) 
Heartbeat CPU 0 instructions: 210000002 cycles: 376000994 heartbeat IPC: 0.358907 cumulative IPC: 0.357567 (Simulation time: 0 hr 6 min 58 sec) 
Heartbeat CPU 0 instructions: 220000000 cycles: 405229750 heartbeat IPC: 0.342129 cumulative IPC: 0.356228 (Simulation time: 0 hr 7 min 23 sec) 
Heartbeat CPU 0 instructions: 230000000 cycles: 432755124 heartbeat IPC: 0.363301 cumulative IPC: 0.356762 (Simulation time: 0 hr 7 min 47 sec) 
Heartbeat CPU 0 instructions: 240000000 cycles: 458671691 heartbeat IPC: 0.385854 cumulative IPC: 0.358694 (Simulation time: 0 hr 8 min 11 sec) 
Heartbeat CPU 0 instructions: 250000000 cycles: 488789230 heartbeat IPC: 0.332032 cumulative IPC: 0.356784 (Simulation time: 0 hr 8 min 38 sec) 
Heartbeat CPU 0 instructions: 260000000 cycles: 515876184 heartbeat IPC: 0.369181 cumulative IPC: 0.357534 (Simulation time: 0 hr 9 min 2 sec) 
Heartbeat CPU 0 instructions: 270000003 cycles: 544289097 heartbeat IPC: 0.351953 cumulative IPC: 0.357201 (Simulation time: 0 hr 9 min 29 sec) 
Heartbeat CPU 0 instructions: 280000000 cycles: 572480959 heartbeat IPC: 0.354712 cumulative IPC: 0.357062 (Simulation time: 0 hr 9 min 55 sec) 
Heartbeat CPU 0 instructions: 290000000 cycles: 601422922 heartbeat IPC: 0.345519 cumulative IPC: 0.356435 (Simulation time: 0 hr 10 min 21 sec) 
Heartbeat CPU 0 instructions: 300000000 cycles: 631491083 heartbeat IPC: 0.332578 cumulative IPC: 0.355161 (Simulation time: 0 hr 10 min 46 sec) 
Heartbeat CPU 0 instructions: 310000001 cycles: 660955049 heartbeat IPC: 0.339398 cumulative IPC: 0.354378 (Simulation time: 0 hr 11 min 11 sec) 
Heartbeat CPU 0 instructions: 320000000 cycles: 689201333 heartbeat IPC: 0.354029 cumulative IPC: 0.354362 (Simulation time: 0 hr 11 min 36 sec) 
Heartbeat CPU 0 instructions: 330000000 cycles: 717856271 heartbeat IPC: 0.34898 cumulative IPC: 0.354124 (Simulation time: 0 hr 12 min 1 sec) 
Heartbeat CPU 0 instructions: 340000000 cycles: 747137825 heartbeat IPC: 0.341512 cumulative IPC: 0.35358 (Simulation time: 0 hr 12 min 26 sec) 
Heartbeat CPU 0 instructions: 350000003 cycles: 774205321 heartbeat IPC: 0.369447 cumulative IPC: 0.354189 (Simulation time: 0 hr 12 min 51 sec) 
Heartbeat CPU 0 instructions: 360000000 cycles: 802369936 heartbeat IPC: 0.355055 cumulative IPC: 0.354222 (Simulation time: 0 hr 13 min 15 sec) 
Heartbeat CPU 0 instructions: 370000000 cycles: 830555164 heartbeat IPC: 0.354796 cumulative IPC: 0.354243 (Simulation time: 0 hr 13 min 39 sec) 
Heartbeat CPU 0 instructions: 380000000 cycles: 859048477 heartbeat IPC: 0.35096 cumulative IPC: 0.354125 (Simulation time: 0 hr 14 min 3 sec) 
Heartbeat CPU 0 instructions: 390000001 cycles: 886650485 heartbeat IPC: 0.362293 cumulative IPC: 0.3544 (Simulation time: 0 hr 14 min 27 sec) 
Heartbeat CPU 0 instructions: 400000000 cycles: 915288538 heartbeat IPC: 0.349186 cumulative IPC: 0.354224 (Simulation time: 0 hr 14 min 51 sec) 
Heartbeat CPU 0 instructions: 410000001 cycles: 942588024 heartbeat IPC: 0.366307 cumulative IPC: 0.354601 (Simulation time: 0 hr 15 min 15 sec) 
Heartbeat CPU 0 instructions: 420000000 cycles: 969904990 heartbeat IPC: 0.366073 cumulative IPC: 0.354949 (Simulation time: 0 hr 15 min 38 sec) 
Heartbeat CPU 0 instructions: 430000002 cycles: 997608643 heartbeat IPC: 0.360963 cumulative IPC: 0.355128 (Simulation time: 0 hr 16 min 2 sec) 
Heartbeat CPU 0 instructions: 440000000 cycles: 1027151428 heartbeat IPC: 0.338492 cumulative IPC: 0.354616 (Simulation time: 0 hr 16 min 26 sec) 
Heartbeat CPU 0 instructions: 450000002 cycles: 1056391528 heartbeat IPC: 0.341996 cumulative IPC: 0.354242 (Simulation time: 0 hr 16 min 51 sec) 
Heartbeat CPU 0 instructions: 460000000 cycles: 1084089370 heartbeat IPC: 0.361039 cumulative IPC: 0.354427 (Simulation time: 0 hr 17 min 15 sec) 
Heartbeat CPU 0 instructions: 470000000 cycles: 1111721354 heartbeat IPC: 0.361899 cumulative IPC: 0.354625 (Simulation time: 0 hr 17 min 39 sec) 
Heartbeat CPU 0 instructions: 480000000 cycles: 1139593028 heartbeat IPC: 0.358787 cumulative IPC: 0.354734 (Simulation time: 0 hr 18 min 3 sec) 
Heartbeat CPU 0 instructions: 490000000 cycles: 1167180273 heartbeat IPC: 0.362486 cumulative IPC: 0.354928 (Simulation time: 0 hr 18 min 26 sec) 
Heartbeat CPU 0 instructions: 500000000 cycles: 1195500577 heartbeat IPC: 0.353104 cumulative IPC: 0.354882 (Simulation time: 0 hr 18 min 51 sec) 
Heartbeat CPU 0 instructions: 510000000 cycles: 1229592386 heartbeat IPC: 0.293326 cumulative IPC: 0.353075 (Simulation time: 0 hr 19 min 18 sec) 
Heartbeat CPU 0 instructions: 520000000 cycles: 1257620466 heartbeat IPC: 0.356785 cumulative IPC: 0.353163 (Simulation time: 0 hr 19 min 43 sec) 
Heartbeat CPU 0 instructions: 530000001 cycles: 1287228161 heartbeat IPC: 0.33775 cumulative IPC: 0.352788 (Simulation time: 0 hr 20 min 8 sec) 
Heartbeat CPU 0 instructions: 540000000 cycles: 1315320626 heartbeat IPC: 0.355967 cumulative IPC: 0.35286 (Simulation time: 0 hr 20 min 33 sec) 
Heartbeat CPU 0 instructions: 550000001 cycles: 1344498852 heartbeat IPC: 0.342721 cumulative IPC: 0.352628 (Simulation time: 0 hr 21 min 0 sec) 
Heartbeat CPU 0 instructions: 560000000 cycles: 1369894323 heartbeat IPC: 0.393771 cumulative IPC: 0.353431 (Simulation time: 0 hr 21 min 24 sec) 
Heartbeat CPU 0 instructions: 570000000 cycles: 1399411126 heartbeat IPC: 0.33879 cumulative IPC: 0.353106 (Simulation time: 0 hr 21 min 50 sec) 
Heartbeat CPU 0 instructions: 580000000 cycles: 1427379321 heartbeat IPC: 0.357549 cumulative IPC: 0.353198 (Simulation time: 0 hr 22 min 15 sec) 
Heartbeat CPU 0 instructions: 590000001 cycles: 1452106353 heartbeat IPC: 0.404416 cumulative IPC: 0.354113 (Simulation time: 0 hr 22 min 39 sec) 
Heartbeat CPU 0 instructions: 600000000 cycles: 1478161573 heartbeat IPC: 0.3838 cumulative IPC: 0.354661 (Simulation time: 0 hr 23 min 3 sec) 
Finished CPU 0 instructions: 500000000 cycles: 1409794954 cumulative IPC: 0.354661 (Simulation time: 0 hr 23 min 3 sec) 

CPU 0 Branch Prediction Accuracy: 86.4311% MPKI: 26.2662
Number of Branches: 96788573 Number of Mispredictions: 13133102
Number of LOAD Instructions: 164682285
Number of LOAD Instructions (ROI): 164682285
Number of STORE Instructions: 78194750
Number of STORE Instructions (ROI): 78194750
Total Destination Memory Operands: 83268534
Total Destination Memory Operands (ROI): 83268534
Total Source Memory Operands: 164712438
Total Source Memory Operands (ROI): 164712438
Number of DEPENDED LOADS: 7056972
Number of DEPENDED LOADS (ROI): 7056972
Number of SQ_ADDED: 83268522
Number of SQ_ADDED (ROI): 83268522
Number of LQ_ADDED: 236712574
Number of LQ_ADDED (ROI): 236712574
Number of Instructions read from trace: 600000066

ChampSim completed all CPUs

Region of Interest Statistics

CPU 0 cumulative IPC: 0.354661 instructions: 500000000 cycles: 1409794954
ITLB TOTAL     ACCESS:  100519205  HIT:  100314759  MISS:     204446
ITLB LOAD      ACCESS:  100519205  HIT:  100314759  MISS:     204446
ITLB RFO       ACCESS:          0  HIT:          0  MISS:          0
ITLB PREFETCH  ACCESS:          0  HIT:          0  MISS:          0
ITLB WRITEBACK ACCESS:          0  HIT:          0  MISS:          0
ITLB PREFETCH  REQUESTED:          0  ISSUED:          0  USEFUL:          0  USELESS:          0
ITLB TOTAL MSHR MERGED:     172424
ITLB LOAD MSHR MERGED:     172424
ITLB RFO MSHR MERGED:          0
ITLB PREFETCH MSHR MERGED:          0
ITLB WRITEBACK MSHR MERGED:          0
ITLB TOTAL ACCESSES:  100691629 HITS:  100314759 MISSES:     376870
ITLB LOAD ACCESSES:  100691629 HITS:  100314759 MISSES:     376870
ITLB RFO ACCESSES:          0 HITS:          0 MISSES:          0
ITLB PREFETCH ACCESSES:          0 HITS:          0 MISSES:          0
ITLB WRITEBACK ACCESSES:          0 HITS:          0 MISSES:          0
ITLB RQ ACCESS:  500000057
ITLB RQ TO_CACHE:  100691629
ITLB RQ MERGED:  399308428
ITLB RQ FORWARD:          0
ITLB WQ ACCESS:          0
ITLB WQ TO_CACHE:          0
ITLB WQ MERGED:          0
ITLB WQ FORWARD:          0
DTLB TOTAL     ACCESS:  165339733  HIT:  164705385  MISS:     634348
DTLB LOAD      ACCESS:  106294334  HIT:  105724432  MISS:     569902
DTLB RFO       ACCESS:   59045399  HIT:   58980953  MISS:      64446
DTLB PREFETCH  ACCESS:          0  HIT:          0  MISS:          0
DTLB WRITEBACK ACCESS:          0  HIT:          0  MISS:          0
DTLB PREFETCH  REQUESTED:          0  ISSUED:          0  USEFUL:          0  USELESS:          0
DTLB TOTAL MSHR MERGED:      99954
DTLB LOAD MSHR MERGED:      59453
DTLB RFO MSHR MERGED:      40501
DTLB PREFETCH MSHR MERGED:          0
DTLB WRITEBACK MSHR MERGED:          0
DTLB TOTAL ACCESSES:  165439687 HITS:  164705385 MISSES:     734302
DTLB LOAD ACCESSES:  106353787 HITS:  105724432 MISSES:     629355
DTLB RFO ACCESSES:   59085900 HITS:   58980953 MISSES:     104947
DTLB PREFETCH ACCESSES:          0 HITS:          0 MISSES:          0
DTLB WRITEBACK ACCESSES:          0 HITS:          0 MISSES:          0
DTLB RQ ACCESS:  200313911
DTLB RQ TO_CACHE:  165439687
DTLB RQ MERGED:   34874224
DTLB RQ FORWARD:          0
DTLB WQ ACCESS:          0
DTLB WQ TO_CACHE:          0
DTLB WQ MERGED:          0
DTLB WQ FORWARD:          0
L1D TOTAL     ACCESS:  281859627  HIT:  273950245  MISS:    7909382
L1D LOAD      ACCESS:  110422108  HIT:  107144727  MISS:    3277381
L1D RFO       ACCESS:   67131675  HIT:   66241635  MISS:     890040
L1D PREFETCH  ACCESS:  104305844  HIT:  100563883  MISS:    3741961
L1D WRITEBACK ACCESS:          0  HIT:          0  MISS:          0
L1D PREFETCH  REQUESTED:  110819898  ISSUED:  109120581  USEFUL:    1662567  USELESS:    2079358
L1D TOTAL MSHR MERGED:    2850128
L1D LOAD MSHR MERGED:     494624
L1D RFO MSHR MERGED:    1853793
L1D PREFETCH MSHR MERGED:     501711
L1D WRITEBACK MSHR MERGED:          0
L1D TOTAL ACCESSES:  284737147 HITS:  273977637 MISSES:   10759510
L1D LOAD ACCESSES:  110821302 HITS:  107146131 MISSES:    3675171
L1D RFO ACCESSES:   68974211 HITS:   66241635 MISSES:    2732576
L1D PREFETCH ACCESSES:  104941634 HITS:  100589871 MISSES:    4351763
L1D WRITEBACK ACCESSES:          0 HITS:          0 MISSES:          0
L1D RQ ACCESS:  130761308
L1D RQ TO_CACHE:  110819901
L1D RQ MERGED:   19940003
L1D RQ FORWARD:          0
L1D WQ ACCESS:   69552603
L1D WQ TO_CACHE:   68974212
L1D WQ MERGED:     578391
L1D WQ FORWARD:      27392
L1I TOTAL     ACCESS:  126566395  HIT:  122327841  MISS:    4238554
L1I LOAD      ACCESS:  126566395  HIT:  122327841  MISS:    4238554
L1I RFO       ACCESS:          0  HIT:          0  MISS:          0
L1I PREFETCH  ACCESS:          0  HIT:          0  MISS:          0
L1I WRITEBACK ACCESS:          0  HIT:          0  MISS:          0
L1I PREFETCH  REQUESTED:          0  ISSUED:          0  USEFUL:          0  USELESS:          0
L1I TOTAL MSHR MERGED:    1834677
L1I LOAD MSHR MERGED:    1834677
L1I RFO MSHR MERGED:          0
L1I PREFETCH MSHR MERGED:          0
L1I WRITEBACK MSHR MERGED:          0
L1I TOTAL ACCESSES:  128401075 HITS:  122327841 MISSES:    6073234
L1I LOAD ACCESSES:  128401075 HITS:  122327841 MISSES:    6073234
L1I RFO ACCESSES:          0 HITS:          0 MISSES:          0
L1I PREFETCH ACCESSES:          0 HITS:          0 MISSES:          0
L1I WRITEBACK ACCESSES:          0 HITS:          0 MISSES:          0
L1I RQ ACCESS:  500000057
L1I RQ TO_CACHE:  128401075
L1I RQ MERGED:  371598982
L1I RQ FORWARD:          0
L1I WQ ACCESS:          0
L1I WQ TO_CACHE:          0
L1I WQ MERGED:          0
L1I WQ FORWARD:          0
L2C TOTAL     ACCESS:   14905614  HIT:   11159102  MISS:    3746512
L2C LOAD      ACCESS:    7418892  HIT:    5098944  MISS:    2319948
L2C RFO       ACCESS:     878686  HIT:     409890  MISS:     468796
L2C PREFETCH  ACCESS:    4568786  HIT:    3628275  MISS:     940511
L2C WRITEBACK ACCESS:    2039250  HIT:    2021993  MISS:      17257
L2C PREFETCH  REQUESTED:     842803  ISSUED:     842803  USEFUL:     203440  USELESS:     736777
L2C TOTAL MSHR MERGED:       6758
L2C LOAD MSHR MERGED:        715
L2C RFO MSHR MERGED:          0
L2C PREFETCH MSHR MERGED:       6043
L2C WRITEBACK MSHR MERGED:          0
L2C TOTAL ACCESSES:   14913256 HITS:   11159554 MISSES:    3753702
L2C LOAD ACCESSES:    7419101 HITS:    5099153 MISSES:    2319948
L2C RFO ACCESSES:     878783 HITS:     409987 MISSES:     468796
L2C PREFETCH ACCESSES:    4576122 HITS:    3628421 MISSES:     947701
L2C WRITEBACK ACCESSES:    2039250 HITS:    2021993 MISSES:      17257
L2C RQ ACCESS:    8297887
L2C RQ TO_CACHE:    8297581
L2C RQ MERGED:          0
L2C RQ FORWARD:          0
L2C WQ ACCESS:    2039250
L2C WQ TO_CACHE:    2039250
L2C WQ MERGED:          0
L2C WQ FORWARD:        452
LLC TOTAL     ACCESS:    4609839  HIT:    4001973  MISS:     607866
LLC LOAD      ACCESS:    2319217  HIT:    2062903  MISS:     256314
LLC RFO       ACCESS:     468786  HIT:     425123  MISS:      43663
LLC PREFETCH  ACCESS:     941535  HIT:     674049  MISS:     267486
LLC WRITEBACK ACCESS:     880301  HIT:     839898  MISS:      40403
LLC PREFETCH  REQUESTED:          0  ISSUED:          0  USEFUL:      13611  USELESS:     254138
LLC TOTAL MSHR MERGED:        102
LLC LOAD MSHR MERGED:         31
LLC RFO MSHR MERGED:          0
LLC PREFETCH MSHR MERGED:         71
LLC WRITEBACK MSHR MERGED:          0
LLC TOTAL ACCESSES:    4609978 HITS:    4002010 MISSES:     607968
LLC LOAD ACCESSES:    2319233 HITS:    2062919 MISSES:     256314
LLC RFO ACCESSES:     468796 HITS:     425133 MISSES:      43663
LLC PREFETCH ACCESSES:     941648 HITS:     674060 MISSES:     267588
LLC WRITEBACK ACCESSES:     880301 HITS:     839898 MISSES:      40403
LLC 0 RQ ACCESS:    2788029
LLC 0 RQ TO_CACHE:    2788003
LLC 0 RQ MERGED:          0
LLC 0 RQ FORWARD:          0
LLC WQ ACCESS:     880301
LLC WQ TO_CACHE:     880301
LLC WQ MERGED:          0
LLC WQ FORWARD:         37
Major fault: 0 Minor fault: 12862
CPU 0 L1D next line prefetcher final stats
CPU 0 L2C PC-based stride prefetcher final stats
All Misses: 728137
All Hits: 4698708
SD Algo Stats - Switches: 0 SRR-Repls: 303627 BRR-Repls: 0

DRAM Statistics
 CHANNEL 0
 RQ ROW_BUFFER_HIT:     118023  ROW_BUFFER_MISS:     449013
 DBUS_CONGESTED:     301077
 WQ ROW_BUFFER_HIT:       8834  ROW_BUFFER_MISS:     136060  FULL:          0

 AVG_CONGESTED_CYCLE: 13
LOADS RETIRED: 136549171
INSTR RETIRED: 500000000
