
*** ChampSim Multicore Out-of-Order Simulator ***

Warmup Instructions: 100000000
Simulation Instructions: 500000000
Number of CPUs: 1
LLC sets: 2048
LLC ways: 16
Clean RRIP Policies: 22222000222220 Dirty RRIP Policies: 1012022010120220 PSEL Width: 10 Track Set: 4294967295 PSEL Mask: 1 Demote Mask: 2014414020144140DS Algo: 0Window size: 0
Off-chip DRAM Size: 4096 MB Channels: 1 Width: 64-bit Data Rate: 1600 MT/s

CPU 0 runs /mnt/beegfs/iconst01/spec2017/Omnetpp.trace.gz
NOT SORTED
TRACE STRING: /mnt/beegfs/iconst01/spec2017/Omnetpp.trace.gz
SORTED
TRACE STRING: /mnt/beegfs/iconst01/spec2017/Omnetpp.trace.gz
INITIAL
TRACE STRING: /mnt/beegfs/iconst01/spec2017/Omnetpp.trace.gz

champsim_seed used: 739

CPU 0 L1D next line prefetcher
CPU 0 L2C IP-based stride prefetcher
Initialize DRRIP state
Assign rand_sets[0]: 454  LLC: 2048
rand_sets[0]: 454
Assign rand_sets[1]: 1662  LLC: 2048
rand_sets[1]: 1662
Assign rand_sets[2]: 1921  LLC: 2048
rand_sets[2]: 1921
Assign rand_sets[3]: 1131  LLC: 2048
rand_sets[3]: 1131
Assign rand_sets[4]: 331  LLC: 2048
rand_sets[4]: 331
Assign rand_sets[5]: 1531  LLC: 2048
rand_sets[5]: 1531
Assign rand_sets[6]: 482  LLC: 2048
rand_sets[6]: 482
Assign rand_sets[7]: 1275  LLC: 2048
rand_sets[7]: 1275
Assign rand_sets[8]: 1876  LLC: 2048
rand_sets[8]: 1876
Assign rand_sets[9]: 2038  LLC: 2048
rand_sets[9]: 2038
Assign rand_sets[10]: 701  LLC: 2048
rand_sets[10]: 701
Assign rand_sets[11]: 479  LLC: 2048
rand_sets[11]: 479
Assign rand_sets[12]: 892  LLC: 2048
rand_sets[12]: 892
Assign rand_sets[13]: 1820  LLC: 2048
rand_sets[13]: 1820
Assign rand_sets[14]: 1505  LLC: 2048
rand_sets[14]: 1505
Assign rand_sets[15]: 1159  LLC: 2048
rand_sets[15]: 1159
Assign rand_sets[16]: 513  LLC: 2048
rand_sets[16]: 513
Assign rand_sets[17]: 703  LLC: 2048
rand_sets[17]: 703
Assign rand_sets[18]: 561  LLC: 2048
rand_sets[18]: 561
Assign rand_sets[19]: 990  LLC: 2048
rand_sets[19]: 990
Assign rand_sets[20]: 342  LLC: 2048
rand_sets[20]: 342
Assign rand_sets[21]: 882  LLC: 2048
rand_sets[21]: 882
Assign rand_sets[22]: 15  LLC: 2048
rand_sets[22]: 15
Assign rand_sets[23]: 71  LLC: 2048
rand_sets[23]: 71
Assign rand_sets[24]: 1127  LLC: 2048
rand_sets[24]: 1127
Assign rand_sets[25]: 1382  LLC: 2048
rand_sets[25]: 1382
Assign rand_sets[26]: 647  LLC: 2048
rand_sets[26]: 647
Assign rand_sets[27]: 857  LLC: 2048
rand_sets[27]: 857
Assign rand_sets[28]: 1450  LLC: 2048
rand_sets[28]: 1450
Assign rand_sets[29]: 1160  LLC: 2048
rand_sets[29]: 1160
Assign rand_sets[30]: 1852  LLC: 2048
rand_sets[30]: 1852
Assign rand_sets[31]: 1881  LLC: 2048
rand_sets[31]: 1881
Assign rand_sets[32]: 1770  LLC: 2048
rand_sets[32]: 1770
Assign rand_sets[33]: 1622  LLC: 2048
rand_sets[33]: 1622
Assign rand_sets[34]: 275  LLC: 2048
rand_sets[34]: 275
Assign rand_sets[35]: 635  LLC: 2048
rand_sets[35]: 635
Assign rand_sets[36]: 466  LLC: 2048
rand_sets[36]: 466
Assign rand_sets[37]: 1413  LLC: 2048
rand_sets[37]: 1413
Assign rand_sets[38]: 417  LLC: 2048
rand_sets[38]: 417
Assign rand_sets[39]: 472  LLC: 2048
rand_sets[39]: 472
Assign rand_sets[40]: 1340  LLC: 2048
rand_sets[40]: 1340
Assign rand_sets[41]: 852  LLC: 2048
rand_sets[41]: 852
Assign rand_sets[42]: 1365  LLC: 2048
rand_sets[42]: 1365
Assign rand_sets[43]: 47  LLC: 2048
rand_sets[43]: 47
Assign rand_sets[44]: 823  LLC: 2048
rand_sets[44]: 823
Assign rand_sets[45]: 686  LLC: 2048
rand_sets[45]: 686
Assign rand_sets[46]: 1637  LLC: 2048
rand_sets[46]: 1637
Assign rand_sets[47]: 1115  LLC: 2048
rand_sets[47]: 1115
Assign rand_sets[48]: 986  LLC: 2048
rand_sets[48]: 986
Assign rand_sets[49]: 258  LLC: 2048
rand_sets[49]: 258
Assign rand_sets[50]: 633  LLC: 2048
rand_sets[50]: 633
Assign rand_sets[51]: 920  LLC: 2048
rand_sets[51]: 920
Assign rand_sets[52]: 204  LLC: 2048
rand_sets[52]: 204
Assign rand_sets[53]: 227  LLC: 2048
rand_sets[53]: 227
Assign rand_sets[54]: 1818  LLC: 2048
rand_sets[54]: 1818
Assign rand_sets[55]: 886  LLC: 2048
rand_sets[55]: 886
Assign rand_sets[56]: 1422  LLC: 2048
rand_sets[56]: 1422
Assign rand_sets[57]: 607  LLC: 2048
rand_sets[57]: 607
Assign rand_sets[58]: 217  LLC: 2048
rand_sets[58]: 217
Assign rand_sets[59]: 1945  LLC: 2048
rand_sets[59]: 1945
Assign rand_sets[60]: 143  LLC: 2048
rand_sets[60]: 143
Assign rand_sets[61]: 1311  LLC: 2048
rand_sets[61]: 1311
Assign rand_sets[62]: 319  LLC: 2048
rand_sets[62]: 319
Assign rand_sets[63]: 1846  LLC: 2048
rand_sets[63]: 1846
 CLEAN-RRIP-POLICY-1: 0-0-2-2-2-2-2-0- CLEAN-RRIP-POLICY-2: 0-0-2-2-2-2-2-0-
 DIRTY-RRIP-POLICY-1: 1-0-1-2-0-2-2-0- DIRTY-RRIP-POLICY-2: 1-0-1-2-0-2-2-0-
 PSEL width: 10
Heartbeat CPU 0 instructions: 10000000 cycles: 7321464 heartbeat IPC: 1.36585 cumulative IPC: 1.36585 (Simulation time: 0 hr 0 min 19 sec) 
Heartbeat CPU 0 instructions: 20000000 cycles: 14627415 heartbeat IPC: 1.36875 cumulative IPC: 1.3673 (Simulation time: 0 hr 0 min 39 sec) 
Heartbeat CPU 0 instructions: 30000003 cycles: 21930913 heartbeat IPC: 1.36921 cumulative IPC: 1.36793 (Simulation time: 0 hr 0 min 59 sec) 
Heartbeat CPU 0 instructions: 40000000 cycles: 29221333 heartbeat IPC: 1.37166 cumulative IPC: 1.36886 (Simulation time: 0 hr 1 min 19 sec) 
Heartbeat CPU 0 instructions: 50000000 cycles: 36500154 heartbeat IPC: 1.37385 cumulative IPC: 1.36986 (Simulation time: 0 hr 1 min 39 sec) 
Heartbeat CPU 0 instructions: 60000000 cycles: 43782498 heartbeat IPC: 1.37318 cumulative IPC: 1.37041 (Simulation time: 0 hr 1 min 59 sec) 
Heartbeat CPU 0 instructions: 70000001 cycles: 51070230 heartbeat IPC: 1.37217 cumulative IPC: 1.37066 (Simulation time: 0 hr 2 min 20 sec) 
Heartbeat CPU 0 instructions: 80000000 cycles: 58347584 heartbeat IPC: 1.37413 cumulative IPC: 1.37109 (Simulation time: 0 hr 2 min 40 sec) 
Heartbeat CPU 0 instructions: 90000000 cycles: 65656168 heartbeat IPC: 1.36825 cumulative IPC: 1.37078 (Simulation time: 0 hr 3 min 0 sec) 
Heartbeat CPU 0 instructions: 100000000 cycles: 72950401 heartbeat IPC: 1.37095 cumulative IPC: 1.37079 (Simulation time: 0 hr 3 min 20 sec) 

Warmup complete CPU 0 instructions: 100000002 cycles: 72950402 (Simulation time: 0 hr 3 min 20 sec) 

Heartbeat CPU 0 instructions: 110000002 cycles: 114062032 heartbeat IPC: 0.24324 cumulative IPC: 0.24324 (Simulation time: 0 hr 4 min 1 sec) 
Heartbeat CPU 0 instructions: 120000000 cycles: 154892272 heartbeat IPC: 0.244916 cumulative IPC: 0.244075 (Simulation time: 0 hr 4 min 42 sec) 
Heartbeat CPU 0 instructions: 130000002 cycles: 195914690 heartbeat IPC: 0.243769 cumulative IPC: 0.243973 (Simulation time: 0 hr 5 min 22 sec) 
Heartbeat CPU 0 instructions: 140000000 cycles: 237131813 heartbeat IPC: 0.242618 cumulative IPC: 0.243633 (Simulation time: 0 hr 6 min 3 sec) 
Heartbeat CPU 0 instructions: 150000002 cycles: 277830706 heartbeat IPC: 0.245707 cumulative IPC: 0.244045 (Simulation time: 0 hr 6 min 44 sec) 
Heartbeat CPU 0 instructions: 160000000 cycles: 318582880 heartbeat IPC: 0.245386 cumulative IPC: 0.244267 (Simulation time: 0 hr 7 min 25 sec) 
Heartbeat CPU 0 instructions: 170000001 cycles: 358566478 heartbeat IPC: 0.250103 cumulative IPC: 0.245084 (Simulation time: 0 hr 8 min 5 sec) 
Heartbeat CPU 0 instructions: 180000000 cycles: 399307610 heartbeat IPC: 0.245452 cumulative IPC: 0.24513 (Simulation time: 0 hr 8 min 46 sec) 
Heartbeat CPU 0 instructions: 190000002 cycles: 440044119 heartbeat IPC: 0.24548 cumulative IPC: 0.245169 (Simulation time: 0 hr 9 min 27 sec) 
Heartbeat CPU 0 instructions: 200000000 cycles: 481963224 heartbeat IPC: 0.238555 cumulative IPC: 0.244491 (Simulation time: 0 hr 10 min 8 sec) 
Heartbeat CPU 0 instructions: 210000003 cycles: 522701229 heartbeat IPC: 0.245471 cumulative IPC: 0.24458 (Simulation time: 0 hr 10 min 49 sec) 
Heartbeat CPU 0 instructions: 220000000 cycles: 563690739 heartbeat IPC: 0.243965 cumulative IPC: 0.244529 (Simulation time: 0 hr 11 min 30 sec) 
Heartbeat CPU 0 instructions: 230000000 cycles: 604644787 heartbeat IPC: 0.244176 cumulative IPC: 0.244501 (Simulation time: 0 hr 12 min 10 sec) 
Heartbeat CPU 0 instructions: 240000000 cycles: 645334070 heartbeat IPC: 0.245765 cumulative IPC: 0.244591 (Simulation time: 0 hr 12 min 50 sec) 
Heartbeat CPU 0 instructions: 250000000 cycles: 686032858 heartbeat IPC: 0.245708 cumulative IPC: 0.244665 (Simulation time: 0 hr 13 min 30 sec) 
Heartbeat CPU 0 instructions: 260000000 cycles: 726893432 heartbeat IPC: 0.244735 cumulative IPC: 0.24467 (Simulation time: 0 hr 14 min 11 sec) 
Heartbeat CPU 0 instructions: 270000000 cycles: 767799050 heartbeat IPC: 0.244465 cumulative IPC: 0.244658 (Simulation time: 0 hr 14 min 51 sec) 
Heartbeat CPU 0 instructions: 280000000 cycles: 809061840 heartbeat IPC: 0.242349 cumulative IPC: 0.244528 (Simulation time: 0 hr 15 min 31 sec) 
Heartbeat CPU 0 instructions: 290000001 cycles: 849509947 heartbeat IPC: 0.24723 cumulative IPC: 0.244669 (Simulation time: 0 hr 16 min 11 sec) 
Heartbeat CPU 0 instructions: 300000000 cycles: 890645011 heartbeat IPC: 0.243102 cumulative IPC: 0.24459 (Simulation time: 0 hr 16 min 51 sec) 
Heartbeat CPU 0 instructions: 310000000 cycles: 931723601 heartbeat IPC: 0.243436 cumulative IPC: 0.244535 (Simulation time: 0 hr 17 min 30 sec) 
Heartbeat CPU 0 instructions: 320000000 cycles: 972571919 heartbeat IPC: 0.244808 cumulative IPC: 0.244547 (Simulation time: 0 hr 18 min 10 sec) 
Heartbeat CPU 0 instructions: 330000000 cycles: 1013404687 heartbeat IPC: 0.244901 cumulative IPC: 0.244563 (Simulation time: 0 hr 18 min 49 sec) 
Heartbeat CPU 0 instructions: 340000000 cycles: 1054911914 heartbeat IPC: 0.240922 cumulative IPC: 0.244409 (Simulation time: 0 hr 19 min 29 sec) 
Heartbeat CPU 0 instructions: 350000001 cycles: 1095824499 heartbeat IPC: 0.244424 cumulative IPC: 0.244409 (Simulation time: 0 hr 20 min 8 sec) 
Heartbeat CPU 0 instructions: 360000000 cycles: 1136979928 heartbeat IPC: 0.242981 cumulative IPC: 0.244354 (Simulation time: 0 hr 20 min 47 sec) 
Heartbeat CPU 0 instructions: 370000000 cycles: 1177206625 heartbeat IPC: 0.248591 cumulative IPC: 0.244508 (Simulation time: 0 hr 21 min 26 sec) 
Heartbeat CPU 0 instructions: 380000000 cycles: 1218379201 heartbeat IPC: 0.24288 cumulative IPC: 0.24445 (Simulation time: 0 hr 22 min 5 sec) 
Heartbeat CPU 0 instructions: 390000001 cycles: 1259060416 heartbeat IPC: 0.245814 cumulative IPC: 0.244497 (Simulation time: 0 hr 22 min 45 sec) 
Heartbeat CPU 0 instructions: 400000000 cycles: 1299860203 heartbeat IPC: 0.245099 cumulative IPC: 0.244517 (Simulation time: 0 hr 23 min 24 sec) 
Heartbeat CPU 0 instructions: 410000000 cycles: 1340463819 heartbeat IPC: 0.246283 cumulative IPC: 0.244573 (Simulation time: 0 hr 24 min 3 sec) 
Heartbeat CPU 0 instructions: 420000000 cycles: 1381098170 heartbeat IPC: 0.246097 cumulative IPC: 0.244621 (Simulation time: 0 hr 24 min 42 sec) 
Heartbeat CPU 0 instructions: 430000000 cycles: 1421785357 heartbeat IPC: 0.245778 cumulative IPC: 0.244656 (Simulation time: 0 hr 25 min 21 sec) 
Heartbeat CPU 0 instructions: 440000000 cycles: 1462522898 heartbeat IPC: 0.245474 cumulative IPC: 0.24468 (Simulation time: 0 hr 26 min 0 sec) 
Heartbeat CPU 0 instructions: 450000002 cycles: 1503140067 heartbeat IPC: 0.246201 cumulative IPC: 0.244723 (Simulation time: 0 hr 26 min 39 sec) 
Heartbeat CPU 0 instructions: 460000000 cycles: 1543177099 heartbeat IPC: 0.249769 cumulative IPC: 0.24486 (Simulation time: 0 hr 27 min 17 sec) 
Heartbeat CPU 0 instructions: 470000000 cycles: 1584127182 heartbeat IPC: 0.2442 cumulative IPC: 0.244842 (Simulation time: 0 hr 27 min 57 sec) 
Heartbeat CPU 0 instructions: 480000000 cycles: 1624702287 heartbeat IPC: 0.246457 cumulative IPC: 0.244885 (Simulation time: 0 hr 28 min 36 sec) 
Heartbeat CPU 0 instructions: 490000001 cycles: 1665417260 heartbeat IPC: 0.24561 cumulative IPC: 0.244903 (Simulation time: 0 hr 29 min 15 sec) 
Heartbeat CPU 0 instructions: 500000000 cycles: 1706343475 heartbeat IPC: 0.244342 cumulative IPC: 0.244889 (Simulation time: 0 hr 29 min 53 sec) 
Heartbeat CPU 0 instructions: 510000000 cycles: 1746693617 heartbeat IPC: 0.247831 cumulative IPC: 0.24496 (Simulation time: 0 hr 30 min 31 sec) 
Heartbeat CPU 0 instructions: 520000000 cycles: 1787845222 heartbeat IPC: 0.243004 cumulative IPC: 0.244913 (Simulation time: 0 hr 31 min 8 sec) 
Heartbeat CPU 0 instructions: 530000000 cycles: 1828440016 heartbeat IPC: 0.246337 cumulative IPC: 0.244946 (Simulation time: 0 hr 31 min 45 sec) 
Heartbeat CPU 0 instructions: 540000000 cycles: 1868770203 heartbeat IPC: 0.247953 cumulative IPC: 0.245013 (Simulation time: 0 hr 32 min 21 sec) 
Heartbeat CPU 0 instructions: 550000001 cycles: 1909841486 heartbeat IPC: 0.243479 cumulative IPC: 0.244979 (Simulation time: 0 hr 32 min 58 sec) 
Heartbeat CPU 0 instructions: 560000000 cycles: 1951043797 heartbeat IPC: 0.242705 cumulative IPC: 0.244929 (Simulation time: 0 hr 33 min 35 sec) 
Heartbeat CPU 0 instructions: 570000003 cycles: 1992177157 heartbeat IPC: 0.243112 cumulative IPC: 0.24489 (Simulation time: 0 hr 34 min 12 sec) 
Heartbeat CPU 0 instructions: 580000000 cycles: 2033121008 heartbeat IPC: 0.244237 cumulative IPC: 0.244877 (Simulation time: 0 hr 34 min 49 sec) 
Heartbeat CPU 0 instructions: 590000001 cycles: 2074556683 heartbeat IPC: 0.241338 cumulative IPC: 0.244803 (Simulation time: 0 hr 35 min 26 sec) 
Heartbeat CPU 0 instructions: 600000000 cycles: 2115736212 heartbeat IPC: 0.242839 cumulative IPC: 0.244764 (Simulation time: 0 hr 36 min 3 sec) 
Finished CPU 0 instructions: 500000000 cycles: 2042785818 cumulative IPC: 0.244764 (Simulation time: 0 hr 36 min 3 sec) 

CPU 0 Branch Prediction Accuracy: 96.2429% MPKI: 5.85335
Number of Branches: 77897976 Number of Mispredictions: 2926674
Number of LOAD Instructions: 193081861
Number of LOAD Instructions (ROI): 193081861
Number of STORE Instructions: 97310749
Number of STORE Instructions (ROI): 97310749
Total Destination Memory Operands: 106368027
Total Destination Memory Operands (ROI): 106368027
Total Source Memory Operands: 193081861
Total Source Memory Operands (ROI): 193081861
Number of DEPENDED LOADS: 6460533
Number of DEPENDED LOADS (ROI): 6460533
Number of SQ_ADDED: 106367982
Number of SQ_ADDED (ROI): 106367982
Number of LQ_ADDED: 429359897
Number of LQ_ADDED (ROI): 429359897
Number of Instructions read from trace: 600000256

ChampSim completed all CPUs

Region of Interest Statistics

CPU 0 cumulative IPC: 0.244764 instructions: 500000000 cycles: 2042785818
ITLB TOTAL     ACCESS:  151250271  HIT:  151234440  MISS:      15831
ITLB LOAD      ACCESS:  151250271  HIT:  151234440  MISS:      15831
ITLB RFO       ACCESS:          0  HIT:          0  MISS:          0
ITLB PREFETCH  ACCESS:          0  HIT:          0  MISS:          0
ITLB WRITEBACK ACCESS:          0  HIT:          0  MISS:          0
ITLB PREFETCH  REQUESTED:          0  ISSUED:          0  USEFUL:          0  USELESS:          0
ITLB TOTAL MSHR MERGED:      17870
ITLB LOAD MSHR MERGED:      17870
ITLB RFO MSHR MERGED:          0
ITLB PREFETCH MSHR MERGED:          0
ITLB WRITEBACK MSHR MERGED:          0
ITLB TOTAL ACCESSES:  151268141 HITS:  151234440 MISSES:      33701
ITLB LOAD ACCESSES:  151268141 HITS:  151234440 MISSES:      33701
ITLB RFO ACCESSES:          0 HITS:          0 MISSES:          0
ITLB PREFETCH ACCESSES:          0 HITS:          0 MISSES:          0
ITLB WRITEBACK ACCESSES:          0 HITS:          0 MISSES:          0
ITLB RQ ACCESS:  500000242
ITLB RQ TO_CACHE:  151268141
ITLB RQ MERGED:  348732101
ITLB RQ FORWARD:          0
ITLB WQ ACCESS:          0
ITLB WQ TO_CACHE:          0
ITLB WQ MERGED:          0
ITLB WQ FORWARD:          0
DTLB TOTAL     ACCESS:  199551266  HIT:  194172199  MISS:    5379067
DTLB LOAD      ACCESS:  123123927  HIT:  118105336  MISS:    5018591
DTLB RFO       ACCESS:   76427339  HIT:   76066863  MISS:     360476
DTLB PREFETCH  ACCESS:          0  HIT:          0  MISS:          0
DTLB WRITEBACK ACCESS:          0  HIT:          0  MISS:          0
DTLB PREFETCH  REQUESTED:          0  ISSUED:          0  USEFUL:          0  USELESS:          0
DTLB TOTAL MSHR MERGED:     916131
DTLB LOAD MSHR MERGED:     806942
DTLB RFO MSHR MERGED:     109189
DTLB PREFETCH MSHR MERGED:          0
DTLB WRITEBACK MSHR MERGED:          0
DTLB TOTAL ACCESSES:  200467397 HITS:  194172199 MISSES:    6295198
DTLB LOAD ACCESSES:  123930869 HITS:  118105336 MISSES:    5825533
DTLB RFO ACCESSES:   76536528 HITS:   76066863 MISSES:     469665
DTLB PREFETCH ACCESSES:          0 HITS:          0 MISSES:          0
DTLB WRITEBACK ACCESSES:          0 HITS:          0 MISSES:          0
DTLB RQ ACCESS:  243865853
DTLB RQ TO_CACHE:  200467397
DTLB RQ MERGED:   43398456
DTLB RQ FORWARD:          0
DTLB WQ ACCESS:          0
DTLB WQ TO_CACHE:          0
DTLB WQ MERGED:          0
DTLB WQ FORWARD:          0
L1D TOTAL     ACCESS:  335718336  HIT:  317621788  MISS:   18096548
L1D LOAD      ACCESS:  127662236  HIT:  118724621  MISS:    8937615
L1D RFO       ACCESS:   87143186  HIT:   86358378  MISS:     784808
L1D PREFETCH  ACCESS:  120912914  HIT:  112538789  MISS:    8374125
L1D WRITEBACK ACCESS:          0  HIT:          0  MISS:          0
L1D PREFETCH  REQUESTED:  128466104  ISSUED:  126868051  USEFUL:    1744832  USELESS:    6629305
L1D TOTAL MSHR MERGED:    3718072
L1D LOAD MSHR MERGED:     962269
L1D RFO MSHR MERGED:    1005226
L1D PREFETCH MSHR MERGED:    1750577
L1D WRITEBACK MSHR MERGED:          0
L1D TOTAL ACCESSES:  339522938 HITS:  317708318 MISSES:   21814620
L1D LOAD ACCESSES:  128466552 HITS:  118725069 MISSES:    9741483
L1D RFO ACCESSES:   88083950 HITS:   86358378 MISSES:    1725572
L1D PREFETCH ACCESSES:  122972436 HITS:  112624871 MISSES:   10347565
L1D WRITEBACK ACCESSES:          0 HITS:          0 MISSES:          0
L1D RQ ACCESS:  155234468
L1D RQ TO_CACHE:  128466104
L1D RQ MERGED:   26767916
L1D RQ FORWARD:          0
L1D WQ ACCESS:   88631385
L1D WQ TO_CACHE:   88083949
L1D WQ MERGED:     547436
L1D WQ FORWARD:      86530
L1I TOTAL     ACCESS:  175552231  HIT:  175285913  MISS:     266318
L1I LOAD      ACCESS:  175552231  HIT:  175285913  MISS:     266318
L1I RFO       ACCESS:          0  HIT:          0  MISS:          0
L1I PREFETCH  ACCESS:          0  HIT:          0  MISS:          0
L1I WRITEBACK ACCESS:          0  HIT:          0  MISS:          0
L1I PREFETCH  REQUESTED:          0  ISSUED:          0  USEFUL:          0  USELESS:          0
L1I TOTAL MSHR MERGED:     221026
L1I LOAD MSHR MERGED:     221026
L1I RFO MSHR MERGED:          0
L1I PREFETCH MSHR MERGED:          0
L1I WRITEBACK MSHR MERGED:          0
L1I TOTAL ACCESSES:  175773257 HITS:  175285913 MISSES:     487344
L1I LOAD ACCESSES:  175773257 HITS:  175285913 MISSES:     487344
L1I RFO ACCESSES:          0 HITS:          0 MISSES:          0
L1I PREFETCH ACCESSES:          0 HITS:          0 MISSES:          0
L1I WRITEBACK ACCESSES:          0 HITS:          0 MISSES:          0
L1I RQ ACCESS:  500000242
L1I RQ TO_CACHE:  175773257
L1I RQ MERGED:  324226985
L1I RQ FORWARD:          0
L1I WQ ACCESS:          0
L1I WQ TO_CACHE:          0
L1I WQ MERGED:          0
L1I WQ FORWARD:          0
L2C TOTAL     ACCESS:   23739022  HIT:   12113166  MISS:   11625856
L2C LOAD      ACCESS:    9044361  HIT:    3564811  MISS:    5479550
L2C RFO       ACCESS:     720292  HIT:     130125  MISS:     590167
L2C PREFETCH  ACCESS:    8613997  HIT:    3086541  MISS:    5527456
L2C WRITEBACK ACCESS:    5360372  HIT:    5331689  MISS:      28683
L2C PREFETCH  REQUESTED:      18046  ISSUED:      18046  USEFUL:     323051  USELESS:    5204582
L2C TOTAL MSHR MERGED:         23
L2C LOAD MSHR MERGED:          2
L2C RFO MSHR MERGED:          0
L2C PREFETCH MSHR MERGED:         21
L2C WRITEBACK MSHR MERGED:          0
L2C TOTAL ACCESSES:   23740825 HITS:   12114938 MISSES:   11625887
L2C LOAD ACCESSES:    9045532 HITS:    3565982 MISSES:    5479550
L2C RFO ACCESSES:     720346 HITS:     130179 MISSES:     590167
L2C PREFETCH ACCESSES:    8614575 HITS:    3087088 MISSES:    5527487
L2C WRITEBACK ACCESSES:    5360372 HITS:    5331689 MISSES:      28683
L2C RQ ACCESS:    9765878
L2C RQ TO_CACHE:    9764653
L2C RQ MERGED:          0
L2C RQ FORWARD:          0
L2C WQ ACCESS:    5360372
L2C WQ TO_CACHE:    5360372
L2C WQ MERGED:          0
L2C WQ FORWARD:       1772
LLC TOTAL     ACCESS:   15448907  HIT:    7109195  MISS:    8339712
LLC LOAD      ACCESS:    5479519  HIT:    1807946  MISS:    3671573
LLC RFO       ACCESS:     590165  HIT:     301441  MISS:     288724
LLC PREFETCH  ACCESS:    5527454  HIT:    1423054  MISS:    4104400
LLC WRITEBACK ACCESS:    3851769  HIT:    3576754  MISS:     275015
LLC PREFETCH  REQUESTED:          0  ISSUED:          0  USEFUL:     167896  USELESS:    3938205
LLC TOTAL MSHR MERGED:          0
LLC LOAD MSHR MERGED:          0
LLC RFO MSHR MERGED:          0
LLC PREFETCH MSHR MERGED:          0
LLC WRITEBACK MSHR MERGED:          0
LLC TOTAL ACCESSES:   15448950 HITS:    7109238 MISSES:    8339712
LLC LOAD ACCESSES:    5479548 HITS:    1807975 MISSES:    3671573
LLC RFO ACCESSES:     590167 HITS:     301443 MISSES:     288724
LLC PREFETCH ACCESSES:    5527466 HITS:    1423066 MISSES:    4104400
LLC WRITEBACK ACCESSES:    3851769 HITS:    3576754 MISSES:     275015
LLC 0 RQ ACCESS:    6069715
LLC 0 RQ TO_CACHE:    6069684
LLC 0 RQ MERGED:          0
LLC 0 RQ FORWARD:          0
LLC WQ ACCESS:    3851769
LLC WQ TO_CACHE:    3851769
LLC WQ MERGED:          0
LLC WQ FORWARD:         43
Major fault: 0 Minor fault: 44814
CPU 0 L1D next line prefetcher final stats
CPU 0 L2C PC-based stride prefetcher final stats
All Misses: 10069622
All Hits: 8551780
SD Algo Stats - Switches: 0 SRR-Repls: 4202367 BRR-Repls: 0

DRAM Statistics
 CHANNEL 0
 RQ ROW_BUFFER_HIT:    1416920  ROW_BUFFER_MISS:    6645479
 DBUS_CONGESTED:    5807288
 WQ ROW_BUFFER_HIT:     209377  ROW_BUFFER_MISS:    2312312  FULL:          0

 AVG_CONGESTED_CYCLE: 13
LOADS RETIRED: 160808997
INSTR RETIRED: 500000000
