
*** ChampSim Multicore Out-of-Order Simulator ***

Warmup Instructions: 100000000
Simulation Instructions: 500000000
Number of CPUs: 1
LLC sets: 2048
LLC ways: 16
Clean RRIP Policies: 210120202101202 Dirty RRIP Policies: 1200020212000202 PSEL Width: 10 Track Set: 4294967295 PSEL Mask: 1 Demote Mask: 3221042132210421DS Algo: 0Window size: 0
Off-chip DRAM Size: 4096 MB Channels: 1 Width: 64-bit Data Rate: 1600 MT/s

CPU 0 runs /mnt/beegfs/iconst01/spec2017/Roms.trace.gz
NOT SORTED
TRACE STRING: /mnt/beegfs/iconst01/spec2017/Roms.trace.gz
SORTED
TRACE STRING: /mnt/beegfs/iconst01/spec2017/Roms.trace.gz
INITIAL
TRACE STRING: /mnt/beegfs/iconst01/spec2017/Roms.trace.gz

champsim_seed used: 417

CPU 0 L1D next line prefetcher
CPU 0 L2C IP-based stride prefetcher
Initialize DRRIP state
Assign rand_sets[0]: 454  LLC: 2048
rand_sets[0]: 454
Assign rand_sets[1]: 1662  LLC: 2048
rand_sets[1]: 1662
Assign rand_sets[2]: 1921  LLC: 2048
rand_sets[2]: 1921
Assign rand_sets[3]: 1131  LLC: 2048
rand_sets[3]: 1131
Assign rand_sets[4]: 331  LLC: 2048
rand_sets[4]: 331
Assign rand_sets[5]: 1531  LLC: 2048
rand_sets[5]: 1531
Assign rand_sets[6]: 482  LLC: 2048
rand_sets[6]: 482
Assign rand_sets[7]: 1275  LLC: 2048
rand_sets[7]: 1275
Assign rand_sets[8]: 1876  LLC: 2048
rand_sets[8]: 1876
Assign rand_sets[9]: 2038  LLC: 2048
rand_sets[9]: 2038
Assign rand_sets[10]: 701  LLC: 2048
rand_sets[10]: 701
Assign rand_sets[11]: 479  LLC: 2048
rand_sets[11]: 479
Assign rand_sets[12]: 892  LLC: 2048
rand_sets[12]: 892
Assign rand_sets[13]: 1820  LLC: 2048
rand_sets[13]: 1820
Assign rand_sets[14]: 1505  LLC: 2048
rand_sets[14]: 1505
Assign rand_sets[15]: 1159  LLC: 2048
rand_sets[15]: 1159
Assign rand_sets[16]: 513  LLC: 2048
rand_sets[16]: 513
Assign rand_sets[17]: 703  LLC: 2048
rand_sets[17]: 703
Assign rand_sets[18]: 561  LLC: 2048
rand_sets[18]: 561
Assign rand_sets[19]: 990  LLC: 2048
rand_sets[19]: 990
Assign rand_sets[20]: 342  LLC: 2048
rand_sets[20]: 342
Assign rand_sets[21]: 882  LLC: 2048
rand_sets[21]: 882
Assign rand_sets[22]: 15  LLC: 2048
rand_sets[22]: 15
Assign rand_sets[23]: 71  LLC: 2048
rand_sets[23]: 71
Assign rand_sets[24]: 1127  LLC: 2048
rand_sets[24]: 1127
Assign rand_sets[25]: 1382  LLC: 2048
rand_sets[25]: 1382
Assign rand_sets[26]: 647  LLC: 2048
rand_sets[26]: 647
Assign rand_sets[27]: 857  LLC: 2048
rand_sets[27]: 857
Assign rand_sets[28]: 1450  LLC: 2048
rand_sets[28]: 1450
Assign rand_sets[29]: 1160  LLC: 2048
rand_sets[29]: 1160
Assign rand_sets[30]: 1852  LLC: 2048
rand_sets[30]: 1852
Assign rand_sets[31]: 1881  LLC: 2048
rand_sets[31]: 1881
Assign rand_sets[32]: 1770  LLC: 2048
rand_sets[32]: 1770
Assign rand_sets[33]: 1622  LLC: 2048
rand_sets[33]: 1622
Assign rand_sets[34]: 275  LLC: 2048
rand_sets[34]: 275
Assign rand_sets[35]: 635  LLC: 2048
rand_sets[35]: 635
Assign rand_sets[36]: 466  LLC: 2048
rand_sets[36]: 466
Assign rand_sets[37]: 1413  LLC: 2048
rand_sets[37]: 1413
Assign rand_sets[38]: 417  LLC: 2048
rand_sets[38]: 417
Assign rand_sets[39]: 472  LLC: 2048
rand_sets[39]: 472
Assign rand_sets[40]: 1340  LLC: 2048
rand_sets[40]: 1340
Assign rand_sets[41]: 852  LLC: 2048
rand_sets[41]: 852
Assign rand_sets[42]: 1365  LLC: 2048
rand_sets[42]: 1365
Assign rand_sets[43]: 47  LLC: 2048
rand_sets[43]: 47
Assign rand_sets[44]: 823  LLC: 2048
rand_sets[44]: 823
Assign rand_sets[45]: 686  LLC: 2048
rand_sets[45]: 686
Assign rand_sets[46]: 1637  LLC: 2048
rand_sets[46]: 1637
Assign rand_sets[47]: 1115  LLC: 2048
rand_sets[47]: 1115
Assign rand_sets[48]: 986  LLC: 2048
rand_sets[48]: 986
Assign rand_sets[49]: 258  LLC: 2048
rand_sets[49]: 258
Assign rand_sets[50]: 633  LLC: 2048
rand_sets[50]: 633
Assign rand_sets[51]: 920  LLC: 2048
rand_sets[51]: 920
Assign rand_sets[52]: 204  LLC: 2048
rand_sets[52]: 204
Assign rand_sets[53]: 227  LLC: 2048
rand_sets[53]: 227
Assign rand_sets[54]: 1818  LLC: 2048
rand_sets[54]: 1818
Assign rand_sets[55]: 886  LLC: 2048
rand_sets[55]: 886
Assign rand_sets[56]: 1422  LLC: 2048
rand_sets[56]: 1422
Assign rand_sets[57]: 607  LLC: 2048
rand_sets[57]: 607
Assign rand_sets[58]: 217  LLC: 2048
rand_sets[58]: 217
Assign rand_sets[59]: 1945  LLC: 2048
rand_sets[59]: 1945
Assign rand_sets[60]: 143  LLC: 2048
rand_sets[60]: 143
Assign rand_sets[61]: 1311  LLC: 2048
rand_sets[61]: 1311
Assign rand_sets[62]: 319  LLC: 2048
rand_sets[62]: 319
Assign rand_sets[63]: 1846  LLC: 2048
rand_sets[63]: 1846
 CLEAN-RRIP-POLICY-1: 0-2-1-0-1-2-0-2- CLEAN-RRIP-POLICY-2: 0-2-1-0-1-2-0-2-
 DIRTY-RRIP-POLICY-1: 1-2-0-0-0-2-0-2- DIRTY-RRIP-POLICY-2: 1-2-0-0-0-2-0-2-
 PSEL width: 10
Heartbeat CPU 0 instructions: 10000000 cycles: 4688091 heartbeat IPC: 2.13306 cumulative IPC: 2.13306 (Simulation time: 0 hr 0 min 18 sec) 
Heartbeat CPU 0 instructions: 20000000 cycles: 9325361 heartbeat IPC: 2.15644 cumulative IPC: 2.14469 (Simulation time: 0 hr 0 min 35 sec) 
Heartbeat CPU 0 instructions: 30000001 cycles: 14019775 heartbeat IPC: 2.13019 cumulative IPC: 2.13983 (Simulation time: 0 hr 0 min 52 sec) 
Heartbeat CPU 0 instructions: 40000000 cycles: 18670199 heartbeat IPC: 2.15034 cumulative IPC: 2.14245 (Simulation time: 0 hr 1 min 9 sec) 
Heartbeat CPU 0 instructions: 50000003 cycles: 23323569 heartbeat IPC: 2.14898 cumulative IPC: 2.14375 (Simulation time: 0 hr 1 min 26 sec) 
Heartbeat CPU 0 instructions: 60000000 cycles: 27976206 heartbeat IPC: 2.14932 cumulative IPC: 2.14468 (Simulation time: 0 hr 1 min 43 sec) 
Heartbeat CPU 0 instructions: 70000002 cycles: 32367264 heartbeat IPC: 2.27736 cumulative IPC: 2.16268 (Simulation time: 0 hr 1 min 59 sec) 
Heartbeat CPU 0 instructions: 80000000 cycles: 36303926 heartbeat IPC: 2.54022 cumulative IPC: 2.20362 (Simulation time: 0 hr 2 min 11 sec) 
Heartbeat CPU 0 instructions: 90000000 cycles: 40249090 heartbeat IPC: 2.53475 cumulative IPC: 2.23608 (Simulation time: 0 hr 2 min 23 sec) 
Heartbeat CPU 0 instructions: 100000000 cycles: 44211266 heartbeat IPC: 2.52387 cumulative IPC: 2.26187 (Simulation time: 0 hr 2 min 35 sec) 

Warmup complete CPU 0 instructions: 100000002 cycles: 44211267 (Simulation time: 0 hr 2 min 35 sec) 

Heartbeat CPU 0 instructions: 110000000 cycles: 52698933 heartbeat IPC: 1.17818 cumulative IPC: 1.17818 (Simulation time: 0 hr 2 min 54 sec) 
Heartbeat CPU 0 instructions: 120000000 cycles: 61401583 heartbeat IPC: 1.14908 cumulative IPC: 1.16345 (Simulation time: 0 hr 3 min 13 sec) 
Heartbeat CPU 0 instructions: 130000002 cycles: 70173770 heartbeat IPC: 1.13997 cumulative IPC: 1.15551 (Simulation time: 0 hr 3 min 32 sec) 
Heartbeat CPU 0 instructions: 140000000 cycles: 78713758 heartbeat IPC: 1.17096 cumulative IPC: 1.15934 (Simulation time: 0 hr 3 min 51 sec) 
Heartbeat CPU 0 instructions: 150000003 cycles: 87470642 heartbeat IPC: 1.14196 cumulative IPC: 1.15582 (Simulation time: 0 hr 4 min 10 sec) 
Heartbeat CPU 0 instructions: 160000000 cycles: 97977280 heartbeat IPC: 0.951779 cumulative IPC: 1.11595 (Simulation time: 0 hr 4 min 32 sec) 
Heartbeat CPU 0 instructions: 170000000 cycles: 110388026 heartbeat IPC: 0.805753 cumulative IPC: 1.05777 (Simulation time: 0 hr 4 min 56 sec) 
Heartbeat CPU 0 instructions: 180000000 cycles: 122757796 heartbeat IPC: 0.808422 cumulative IPC: 1.0185 (Simulation time: 0 hr 5 min 20 sec) 
Heartbeat CPU 0 instructions: 190000000 cycles: 135190219 heartbeat IPC: 0.804348 cumulative IPC: 0.98924 (Simulation time: 0 hr 5 min 44 sec) 
Heartbeat CPU 0 instructions: 200000000 cycles: 147706408 heartbeat IPC: 0.798965 cumulative IPC: 0.966229 (Simulation time: 0 hr 6 min 7 sec) 
Heartbeat CPU 0 instructions: 210000003 cycles: 160331633 heartbeat IPC: 0.792065 cumulative IPC: 0.947293 (Simulation time: 0 hr 6 min 31 sec) 
Heartbeat CPU 0 instructions: 220000000 cycles: 172609094 heartbeat IPC: 0.8145 cumulative IPC: 0.934595 (Simulation time: 0 hr 6 min 54 sec) 
Heartbeat CPU 0 instructions: 230000000 cycles: 184386251 heartbeat IPC: 0.849101 cumulative IPC: 0.927412 (Simulation time: 0 hr 7 min 18 sec) 
Heartbeat CPU 0 instructions: 240000000 cycles: 196257213 heartbeat IPC: 0.842392 cumulative IPC: 0.920774 (Simulation time: 0 hr 7 min 42 sec) 
Heartbeat CPU 0 instructions: 250000002 cycles: 206231512 heartbeat IPC: 1.00258 cumulative IPC: 0.92581 (Simulation time: 0 hr 8 min 4 sec) 
Heartbeat CPU 0 instructions: 260000000 cycles: 213881408 heartbeat IPC: 1.30721 cumulative IPC: 0.943006 (Simulation time: 0 hr 8 min 24 sec) 
Heartbeat CPU 0 instructions: 270000003 cycles: 222103860 heartbeat IPC: 1.21618 cumulative IPC: 0.955633 (Simulation time: 0 hr 8 min 45 sec) 
Heartbeat CPU 0 instructions: 280000000 cycles: 231321332 heartbeat IPC: 1.0849 cumulative IPC: 0.962001 (Simulation time: 0 hr 9 min 6 sec) 
Heartbeat CPU 0 instructions: 290000000 cycles: 240365545 heartbeat IPC: 1.10568 cumulative IPC: 0.968625 (Simulation time: 0 hr 9 min 27 sec) 
Heartbeat CPU 0 instructions: 300000000 cycles: 249332949 heartbeat IPC: 1.11515 cumulative IPC: 0.975031 (Simulation time: 0 hr 9 min 49 sec) 
Heartbeat CPU 0 instructions: 310000000 cycles: 258299509 heartbeat IPC: 1.11525 cumulative IPC: 0.980904 (Simulation time: 0 hr 10 min 11 sec) 
Heartbeat CPU 0 instructions: 320000000 cycles: 267093437 heartbeat IPC: 1.13715 cumulative IPC: 0.987069 (Simulation time: 0 hr 10 min 33 sec) 
Heartbeat CPU 0 instructions: 330000002 cycles: 275967672 heartbeat IPC: 1.12686 cumulative IPC: 0.992421 (Simulation time: 0 hr 10 min 55 sec) 
Heartbeat CPU 0 instructions: 340000000 cycles: 286012311 heartbeat IPC: 0.995556 cumulative IPC: 0.992552 (Simulation time: 0 hr 11 min 18 sec) 
Heartbeat CPU 0 instructions: 350000001 cycles: 295129566 heartbeat IPC: 1.09682 cumulative IPC: 0.99634 (Simulation time: 0 hr 11 min 39 sec) 
Heartbeat CPU 0 instructions: 360000000 cycles: 304237299 heartbeat IPC: 1.09797 cumulative IPC: 0.9999 (Simulation time: 0 hr 12 min 1 sec) 
Heartbeat CPU 0 instructions: 370000001 cycles: 313273998 heartbeat IPC: 1.1066 cumulative IPC: 1.00348 (Simulation time: 0 hr 12 min 22 sec) 
Heartbeat CPU 0 instructions: 380000000 cycles: 322305388 heartbeat IPC: 1.10725 cumulative IPC: 1.00685 (Simulation time: 0 hr 12 min 44 sec) 
Heartbeat CPU 0 instructions: 390000001 cycles: 331184662 heartbeat IPC: 1.12622 cumulative IPC: 1.01055 (Simulation time: 0 hr 13 min 4 sec) 
Heartbeat CPU 0 instructions: 400000000 cycles: 340120762 heartbeat IPC: 1.11906 cumulative IPC: 1.01382 (Simulation time: 0 hr 13 min 25 sec) 
Heartbeat CPU 0 instructions: 410000003 cycles: 348985759 heartbeat IPC: 1.12803 cumulative IPC: 1.01715 (Simulation time: 0 hr 13 min 46 sec) 
Heartbeat CPU 0 instructions: 420000000 cycles: 357942438 heartbeat IPC: 1.11648 cumulative IPC: 1.01998 (Simulation time: 0 hr 14 min 8 sec) 
Heartbeat CPU 0 instructions: 430000001 cycles: 366808366 heartbeat IPC: 1.12791 cumulative IPC: 1.02295 (Simulation time: 0 hr 14 min 28 sec) 
Heartbeat CPU 0 instructions: 440000000 cycles: 375637237 heartbeat IPC: 1.13265 cumulative IPC: 1.02587 (Simulation time: 0 hr 14 min 49 sec) 
Heartbeat CPU 0 instructions: 450000001 cycles: 385957833 heartbeat IPC: 0.968936 cumulative IPC: 1.02415 (Simulation time: 0 hr 15 min 12 sec) 
Heartbeat CPU 0 instructions: 460000000 cycles: 394948778 heartbeat IPC: 1.11223 cumulative IPC: 1.02641 (Simulation time: 0 hr 15 min 33 sec) 
Heartbeat CPU 0 instructions: 470000003 cycles: 403787269 heartbeat IPC: 1.13142 cumulative IPC: 1.02899 (Simulation time: 0 hr 15 min 54 sec) 
Heartbeat CPU 0 instructions: 480000000 cycles: 412572593 heartbeat IPC: 1.13826 cumulative IPC: 1.0316 (Simulation time: 0 hr 16 min 15 sec) 
Heartbeat CPU 0 instructions: 490000000 cycles: 421371441 heartbeat IPC: 1.13651 cumulative IPC: 1.03404 (Simulation time: 0 hr 16 min 36 sec) 
Heartbeat CPU 0 instructions: 500000000 cycles: 430148844 heartbeat IPC: 1.13929 cumulative IPC: 1.03644 (Simulation time: 0 hr 16 min 57 sec) 
Heartbeat CPU 0 instructions: 510000001 cycles: 438921705 heartbeat IPC: 1.13988 cumulative IPC: 1.03874 (Simulation time: 0 hr 17 min 17 sec) 
Heartbeat CPU 0 instructions: 520000000 cycles: 447713011 heartbeat IPC: 1.13749 cumulative IPC: 1.04089 (Simulation time: 0 hr 17 min 38 sec) 
Heartbeat CPU 0 instructions: 530000001 cycles: 456508345 heartbeat IPC: 1.13697 cumulative IPC: 1.04294 (Simulation time: 0 hr 17 min 59 sec) 
Heartbeat CPU 0 instructions: 540000000 cycles: 465555551 heartbeat IPC: 1.10531 cumulative IPC: 1.04428 (Simulation time: 0 hr 18 min 20 sec) 
Heartbeat CPU 0 instructions: 550000000 cycles: 474614560 heartbeat IPC: 1.10387 cumulative IPC: 1.04553 (Simulation time: 0 hr 18 min 41 sec) 
Heartbeat CPU 0 instructions: 560000000 cycles: 483469377 heartbeat IPC: 1.12933 cumulative IPC: 1.04722 (Simulation time: 0 hr 19 min 2 sec) 
Heartbeat CPU 0 instructions: 570000001 cycles: 494956434 heartbeat IPC: 0.870545 cumulative IPC: 1.04272 (Simulation time: 0 hr 19 min 25 sec) 
Heartbeat CPU 0 instructions: 580000000 cycles: 505873309 heartbeat IPC: 0.916013 cumulative IPC: 1.03972 (Simulation time: 0 hr 19 min 46 sec) 
Heartbeat CPU 0 instructions: 590000001 cycles: 517601762 heartbeat IPC: 0.852627 cumulative IPC: 1.03509 (Simulation time: 0 hr 20 min 9 sec) 
Heartbeat CPU 0 instructions: 600000000 cycles: 528573161 heartbeat IPC: 0.911461 cumulative IPC: 1.03229 (Simulation time: 0 hr 20 min 31 sec) 
Finished CPU 0 instructions: 500000001 cycles: 484361907 cumulative IPC: 1.03229 (Simulation time: 0 hr 20 min 31 sec) 

CPU 0 Branch Prediction Accuracy: 99.7422% MPKI: 0.173296
Number of Branches: 33608403 Number of Mispredictions: 86648
Number of LOAD Instructions: 180215231
Number of LOAD Instructions (ROI): 180215231
Number of STORE Instructions: 36067263
Number of STORE Instructions (ROI): 36067263
Total Destination Memory Operands: 38428915
Total Destination Memory Operands (ROI): 38428915
Total Source Memory Operands: 180215231
Total Source Memory Operands (ROI): 180215231
Number of DEPENDED LOADS: 3041995
Number of DEPENDED LOADS (ROI): 3041995
Number of SQ_ADDED: 38428892
Number of SQ_ADDED (ROI): 38428892
Number of LQ_ADDED: 208019797
Number of LQ_ADDED (ROI): 208019797
Number of Instructions read from trace: 600000257

ChampSim completed all CPUs

Region of Interest Statistics

CPU 0 cumulative IPC: 1.03229 instructions: 500000001 cycles: 484361907
ITLB TOTAL     ACCESS:   91455982  HIT:   91455963  MISS:         19
ITLB LOAD      ACCESS:   91455982  HIT:   91455963  MISS:         19
ITLB RFO       ACCESS:          0  HIT:          0  MISS:          0
ITLB PREFETCH  ACCESS:          0  HIT:          0  MISS:          0
ITLB WRITEBACK ACCESS:          0  HIT:          0  MISS:          0
ITLB PREFETCH  REQUESTED:          0  ISSUED:          0  USEFUL:          0  USELESS:          0
ITLB TOTAL MSHR MERGED:         40
ITLB LOAD MSHR MERGED:         40
ITLB RFO MSHR MERGED:          0
ITLB PREFETCH MSHR MERGED:          0
ITLB WRITEBACK MSHR MERGED:          0
ITLB TOTAL ACCESSES:   91456022 HITS:   91455963 MISSES:         59
ITLB LOAD ACCESSES:   91456022 HITS:   91455963 MISSES:         59
ITLB RFO ACCESSES:          0 HITS:          0 MISSES:          0
ITLB PREFETCH ACCESSES:          0 HITS:          0 MISSES:          0
ITLB WRITEBACK ACCESSES:          0 HITS:          0 MISSES:          0
ITLB RQ ACCESS:  500000003
ITLB RQ TO_CACHE:   91456022
ITLB RQ MERGED:  408543981
ITLB RQ FORWARD:          0
ITLB WQ ACCESS:          0
ITLB WQ TO_CACHE:          0
ITLB WQ MERGED:          0
ITLB WQ FORWARD:          0
DTLB TOTAL     ACCESS:  142637323  HIT:  142270860  MISS:     366463
DTLB LOAD      ACCESS:  119887238  HIT:  119573651  MISS:     313587
DTLB RFO       ACCESS:   22750085  HIT:   22697209  MISS:      52876
DTLB PREFETCH  ACCESS:          0  HIT:          0  MISS:          0
DTLB WRITEBACK ACCESS:          0  HIT:          0  MISS:          0
DTLB PREFETCH  REQUESTED:          0  ISSUED:          0  USEFUL:          0  USELESS:          0
DTLB TOTAL MSHR MERGED:     287799
DTLB LOAD MSHR MERGED:     240046
DTLB RFO MSHR MERGED:      47753
DTLB PREFETCH MSHR MERGED:          0
DTLB WRITEBACK MSHR MERGED:          0
DTLB TOTAL ACCESSES:  142925122 HITS:  142270860 MISSES:     654262
DTLB LOAD ACCESSES:  120127284 HITS:  119573651 MISSES:     553633
DTLB RFO ACCESSES:   22797838 HITS:   22697209 MISSES:     100629
DTLB PREFETCH ACCESSES:          0 HITS:          0 MISSES:          0
DTLB WRITEBACK ACCESSES:          0 HITS:          0 MISSES:          0
DTLB RQ ACCESS:  184790982
DTLB RQ TO_CACHE:  142925122
DTLB RQ MERGED:   41865860
DTLB RQ FORWARD:          0
DTLB WQ ACCESS:          0
DTLB WQ TO_CACHE:          0
DTLB WQ MERGED:          0
DTLB WQ FORWARD:          0
L1D TOTAL     ACCESS:  189781072  HIT:  176292005  MISS:   13489067
L1D LOAD      ACCESS:  113230977  HIT:  110326645  MISS:    2904332
L1D RFO       ACCESS:   16873504  HIT:   14091748  MISS:    2781756
L1D PREFETCH  ACCESS:   59676591  HIT:   51873612  MISS:    7802979
L1D WRITEBACK ACCESS:          0  HIT:          0  MISS:          0
L1D PREFETCH  REQUESTED:  117052108  ISSUED:  115697472  USEFUL:    7591911  USELESS:     211069
L1D TOTAL MSHR MERGED:   31284485
L1D LOAD MSHR MERGED:    6144410
L1D RFO MSHR MERGED:   11379114
L1D PREFETCH MSHR MERGED:   13760961
L1D WRITEBACK MSHR MERGED:          0
L1D TOTAL ACCESSES:  221065940 HITS:  176292386 MISSES:   44773554
L1D LOAD ACCESSES:  117052157 HITS:  110326694 MISSES:    6725463
L1D RFO ACCESSES:   28252558 HITS:   14091748 MISSES:   14160810
L1D PREFETCH ACCESSES:   75761225 HITS:   51873944 MISSES:   23887281
L1D WRITEBACK ACCESSES:          0 HITS:          0 MISSES:          0
L1D RQ ACCESS:  156534916
L1D RQ TO_CACHE:  117052111
L1D RQ MERGED:   39482756
L1D RQ FORWARD:          0
L1D WQ ACCESS:   28256066
L1D WQ TO_CACHE:   28252558
L1D WQ MERGED:       3508
L1D WQ FORWARD:        381
L1I TOTAL     ACCESS:  115485642  HIT:  115484694  MISS:        948
L1I LOAD      ACCESS:  115485642  HIT:  115484694  MISS:        948
L1I RFO       ACCESS:          0  HIT:          0  MISS:          0
L1I PREFETCH  ACCESS:          0  HIT:          0  MISS:          0
L1I WRITEBACK ACCESS:          0  HIT:          0  MISS:          0
L1I PREFETCH  REQUESTED:          0  ISSUED:          0  USEFUL:          0  USELESS:          0
L1I TOTAL MSHR MERGED:       1572
L1I LOAD MSHR MERGED:       1572
L1I RFO MSHR MERGED:          0
L1I PREFETCH MSHR MERGED:          0
L1I WRITEBACK MSHR MERGED:          0
L1I TOTAL ACCESSES:  115487214 HITS:  115484694 MISSES:       2520
L1I LOAD ACCESSES:  115487214 HITS:  115484694 MISSES:       2520
L1I RFO ACCESSES:          0 HITS:          0 MISSES:          0
L1I PREFETCH ACCESSES:          0 HITS:          0 MISSES:          0
L1I WRITEBACK ACCESSES:          0 HITS:          0 MISSES:          0
L1I RQ ACCESS:  500000007
L1I RQ TO_CACHE:  115487214
L1I RQ MERGED:  384512793
L1I RQ FORWARD:          0
L1I WQ ACCESS:          0
L1I WQ TO_CACHE:          0
L1I WQ MERGED:          0
L1I WQ FORWARD:          0
L2C TOTAL     ACCESS:   16739673  HIT:    4894870  MISS:   11844803
L2C LOAD      ACCESS:     581973  HIT:     100449  MISS:     481524
L2C RFO       ACCESS:    2781696  HIT:     266758  MISS:    2514938
L2C PREFETCH  ACCESS:   10155369  HIT:    1309296  MISS:    8846073
L2C WRITEBACK ACCESS:    3220635  HIT:    3218367  MISS:       2268
L2C PREFETCH  REQUESTED:      31360  ISSUED:      31360  USEFUL:      96358  USELESS:    8747783
L2C TOTAL MSHR MERGED:        326
L2C LOAD MSHR MERGED:          2
L2C RFO MSHR MERGED:          0
L2C PREFETCH MSHR MERGED:        324
L2C WRITEBACK MSHR MERGED:          0
L2C TOTAL ACCESSES:   16740369 HITS:    4894922 MISSES:   11845447
L2C LOAD ACCESSES:     582001 HITS:     100477 MISSES:     481524
L2C RFO ACCESSES:    2781696 HITS:     266758 MISSES:    2514938
L2C PREFETCH ACCESSES:   10156037 HITS:    1309320 MISSES:    8846717
L2C WRITEBACK ACCESSES:    3220635 HITS:    3218367 MISSES:       2268
L2C RQ ACCESS:    3363697
L2C RQ TO_CACHE:    3363669
L2C RQ MERGED:          0
L2C RQ FORWARD:          0
L2C WQ ACCESS:    3220635
L2C WQ TO_CACHE:    3220635
L2C WQ MERGED:          0
L2C WQ FORWARD:         52
LLC TOTAL     ACCESS:   14743149  HIT:    8200923  MISS:    6542226
LLC LOAD      ACCESS:     481521  HIT:     166611  MISS:     314910
LLC RFO       ACCESS:    2514908  HIT:    1224742  MISS:    1290166
LLC PREFETCH  ACCESS:    8846275  HIT:    4255895  MISS:    4590380
LLC WRITEBACK ACCESS:    2900445  HIT:    2553675  MISS:     346770
LLC PREFETCH  REQUESTED:          0  ISSUED:          0  USEFUL:     347448  USELESS:    4253667
LLC TOTAL MSHR MERGED:          6
LLC LOAD MSHR MERGED:          0
LLC RFO MSHR MERGED:          0
LLC PREFETCH MSHR MERGED:          6
LLC WRITEBACK MSHR MERGED:          0
LLC TOTAL ACCESSES:   14743270 HITS:    8201036 MISSES:    6542234
LLC LOAD ACCESSES:     481522 HITS:     166612 MISSES:     314910
LLC RFO ACCESSES:    2514938 HITS:    1224772 MISSES:    1290166
LLC PREFETCH ACCESSES:    8846365 HITS:    4255977 MISSES:    4590388
LLC WRITEBACK ACCESSES:    2900445 HITS:    2553675 MISSES:     346770
LLC 0 RQ ACCESS:    2996460
LLC 0 RQ TO_CACHE:    2996429
LLC 0 RQ MERGED:          0
LLC 0 RQ FORWARD:          0
LLC WQ ACCESS:    2900445
LLC WQ TO_CACHE:    2900445
LLC WQ MERGED:          0
LLC WQ FORWARD:        113
Major fault: 0 Minor fault: 57518
CPU 0 L1D next line prefetcher final stats
CPU 0 L2C PC-based stride prefetcher final stats
All Misses: 6983772
All Hits: 9255538
SD Algo Stats - Switches: 0 SRR-Repls: 325309 BRR-Repls: 0

DRAM Statistics
 CHANNEL 0
 RQ ROW_BUFFER_HIT:    3110766  ROW_BUFFER_MISS:    3080035
 DBUS_CONGESTED:    3609212
 WQ ROW_BUFFER_HIT:     200567  ROW_BUFFER_MISS:    1675244  FULL:          0

 AVG_CONGESTED_CYCLE: 13
LOADS RETIRED: 157818985
INSTR RETIRED: 500000000
