
*** ChampSim Multicore Out-of-Order Simulator ***

Warmup Instructions: 100000000
Simulation Instructions: 500000000
Number of CPUs: 1
LLC sets: 2048
LLC ways: 16
Clean RRIP Policies: 210120202101202 Dirty RRIP Policies: 1200020212000202 PSEL Width: 10 Track Set: 4294967295 PSEL Mask: 1 Demote Mask: 3221042132210421DS Algo: 0Window size: 0
Off-chip DRAM Size: 4096 MB Channels: 1 Width: 64-bit Data Rate: 1600 MT/s

CPU 0 runs /mnt/beegfs/iconst01/spec2017/Wrf.trace.gz
NOT SORTED
TRACE STRING: /mnt/beegfs/iconst01/spec2017/Wrf.trace.gz
SORTED
TRACE STRING: /mnt/beegfs/iconst01/spec2017/Wrf.trace.gz
INITIAL
TRACE STRING: /mnt/beegfs/iconst01/spec2017/Wrf.trace.gz

champsim_seed used: 303

CPU 0 L1D next line prefetcher
CPU 0 L2C IP-based stride prefetcher
Initialize DRRIP state
Assign rand_sets[0]: 454  LLC: 2048
rand_sets[0]: 454
Assign rand_sets[1]: 1662  LLC: 2048
rand_sets[1]: 1662
Assign rand_sets[2]: 1921  LLC: 2048
rand_sets[2]: 1921
Assign rand_sets[3]: 1131  LLC: 2048
rand_sets[3]: 1131
Assign rand_sets[4]: 331  LLC: 2048
rand_sets[4]: 331
Assign rand_sets[5]: 1531  LLC: 2048
rand_sets[5]: 1531
Assign rand_sets[6]: 482  LLC: 2048
rand_sets[6]: 482
Assign rand_sets[7]: 1275  LLC: 2048
rand_sets[7]: 1275
Assign rand_sets[8]: 1876  LLC: 2048
rand_sets[8]: 1876
Assign rand_sets[9]: 2038  LLC: 2048
rand_sets[9]: 2038
Assign rand_sets[10]: 701  LLC: 2048
rand_sets[10]: 701
Assign rand_sets[11]: 479  LLC: 2048
rand_sets[11]: 479
Assign rand_sets[12]: 892  LLC: 2048
rand_sets[12]: 892
Assign rand_sets[13]: 1820  LLC: 2048
rand_sets[13]: 1820
Assign rand_sets[14]: 1505  LLC: 2048
rand_sets[14]: 1505
Assign rand_sets[15]: 1159  LLC: 2048
rand_sets[15]: 1159
Assign rand_sets[16]: 513  LLC: 2048
rand_sets[16]: 513
Assign rand_sets[17]: 703  LLC: 2048
rand_sets[17]: 703
Assign rand_sets[18]: 561  LLC: 2048
rand_sets[18]: 561
Assign rand_sets[19]: 990  LLC: 2048
rand_sets[19]: 990
Assign rand_sets[20]: 342  LLC: 2048
rand_sets[20]: 342
Assign rand_sets[21]: 882  LLC: 2048
rand_sets[21]: 882
Assign rand_sets[22]: 15  LLC: 2048
rand_sets[22]: 15
Assign rand_sets[23]: 71  LLC: 2048
rand_sets[23]: 71
Assign rand_sets[24]: 1127  LLC: 2048
rand_sets[24]: 1127
Assign rand_sets[25]: 1382  LLC: 2048
rand_sets[25]: 1382
Assign rand_sets[26]: 647  LLC: 2048
rand_sets[26]: 647
Assign rand_sets[27]: 857  LLC: 2048
rand_sets[27]: 857
Assign rand_sets[28]: 1450  LLC: 2048
rand_sets[28]: 1450
Assign rand_sets[29]: 1160  LLC: 2048
rand_sets[29]: 1160
Assign rand_sets[30]: 1852  LLC: 2048
rand_sets[30]: 1852
Assign rand_sets[31]: 1881  LLC: 2048
rand_sets[31]: 1881
Assign rand_sets[32]: 1770  LLC: 2048
rand_sets[32]: 1770
Assign rand_sets[33]: 1622  LLC: 2048
rand_sets[33]: 1622
Assign rand_sets[34]: 275  LLC: 2048
rand_sets[34]: 275
Assign rand_sets[35]: 635  LLC: 2048
rand_sets[35]: 635
Assign rand_sets[36]: 466  LLC: 2048
rand_sets[36]: 466
Assign rand_sets[37]: 1413  LLC: 2048
rand_sets[37]: 1413
Assign rand_sets[38]: 417  LLC: 2048
rand_sets[38]: 417
Assign rand_sets[39]: 472  LLC: 2048
rand_sets[39]: 472
Assign rand_sets[40]: 1340  LLC: 2048
rand_sets[40]: 1340
Assign rand_sets[41]: 852  LLC: 2048
rand_sets[41]: 852
Assign rand_sets[42]: 1365  LLC: 2048
rand_sets[42]: 1365
Assign rand_sets[43]: 47  LLC: 2048
rand_sets[43]: 47
Assign rand_sets[44]: 823  LLC: 2048
rand_sets[44]: 823
Assign rand_sets[45]: 686  LLC: 2048
rand_sets[45]: 686
Assign rand_sets[46]: 1637  LLC: 2048
rand_sets[46]: 1637
Assign rand_sets[47]: 1115  LLC: 2048
rand_sets[47]: 1115
Assign rand_sets[48]: 986  LLC: 2048
rand_sets[48]: 986
Assign rand_sets[49]: 258  LLC: 2048
rand_sets[49]: 258
Assign rand_sets[50]: 633  LLC: 2048
rand_sets[50]: 633
Assign rand_sets[51]: 920  LLC: 2048
rand_sets[51]: 920
Assign rand_sets[52]: 204  LLC: 2048
rand_sets[52]: 204
Assign rand_sets[53]: 227  LLC: 2048
rand_sets[53]: 227
Assign rand_sets[54]: 1818  LLC: 2048
rand_sets[54]: 1818
Assign rand_sets[55]: 886  LLC: 2048
rand_sets[55]: 886
Assign rand_sets[56]: 1422  LLC: 2048
rand_sets[56]: 1422
Assign rand_sets[57]: 607  LLC: 2048
rand_sets[57]: 607
Assign rand_sets[58]: 217  LLC: 2048
rand_sets[58]: 217
Assign rand_sets[59]: 1945  LLC: 2048
rand_sets[59]: 1945
Assign rand_sets[60]: 143  LLC: 2048
rand_sets[60]: 143
Assign rand_sets[61]: 1311  LLC: 2048
rand_sets[61]: 1311
Assign rand_sets[62]: 319  LLC: 2048
rand_sets[62]: 319
Assign rand_sets[63]: 1846  LLC: 2048
rand_sets[63]: 1846
 CLEAN-RRIP-POLICY-1: 0-2-1-0-1-2-0-2- CLEAN-RRIP-POLICY-2: 0-2-1-0-1-2-0-2-
 DIRTY-RRIP-POLICY-1: 1-2-0-0-0-2-0-2- DIRTY-RRIP-POLICY-2: 1-2-0-0-0-2-0-2-
 PSEL width: 10
Heartbeat CPU 0 instructions: 10000002 cycles: 6559556 heartbeat IPC: 1.52449 cumulative IPC: 1.52449 (Simulation time: 0 hr 0 min 22 sec) 
Heartbeat CPU 0 instructions: 20000000 cycles: 12222241 heartbeat IPC: 1.76595 cumulative IPC: 1.63636 (Simulation time: 0 hr 0 min 42 sec) 
Heartbeat CPU 0 instructions: 30000003 cycles: 18204062 heartbeat IPC: 1.67173 cumulative IPC: 1.64798 (Simulation time: 0 hr 1 min 2 sec) 
Heartbeat CPU 0 instructions: 40000000 cycles: 24059387 heartbeat IPC: 1.70785 cumulative IPC: 1.66255 (Simulation time: 0 hr 1 min 23 sec) 
Heartbeat CPU 0 instructions: 50000000 cycles: 29527960 heartbeat IPC: 1.82863 cumulative IPC: 1.69331 (Simulation time: 0 hr 1 min 44 sec) 
Heartbeat CPU 0 instructions: 60000000 cycles: 35640812 heartbeat IPC: 1.6359 cumulative IPC: 1.68346 (Simulation time: 0 hr 2 min 6 sec) 
Heartbeat CPU 0 instructions: 70000000 cycles: 41360483 heartbeat IPC: 1.74835 cumulative IPC: 1.69244 (Simulation time: 0 hr 2 min 26 sec) 
Heartbeat CPU 0 instructions: 80000000 cycles: 47231410 heartbeat IPC: 1.70331 cumulative IPC: 1.69379 (Simulation time: 0 hr 2 min 47 sec) 
Heartbeat CPU 0 instructions: 90000000 cycles: 52985017 heartbeat IPC: 1.73804 cumulative IPC: 1.69859 (Simulation time: 0 hr 3 min 9 sec) 
Heartbeat CPU 0 instructions: 100000000 cycles: 58537738 heartbeat IPC: 1.80092 cumulative IPC: 1.7083 (Simulation time: 0 hr 3 min 29 sec) 

Warmup complete CPU 0 instructions: 100000004 cycles: 58537740 (Simulation time: 0 hr 3 min 29 sec) 

Heartbeat CPU 0 instructions: 110000001 cycles: 73447727 heartbeat IPC: 0.670691 cumulative IPC: 0.670691 (Simulation time: 0 hr 3 min 56 sec) 
Heartbeat CPU 0 instructions: 120000000 cycles: 85012991 heartbeat IPC: 0.864658 cumulative IPC: 0.755422 (Simulation time: 0 hr 4 min 21 sec) 
Heartbeat CPU 0 instructions: 130000000 cycles: 96195941 heartbeat IPC: 0.894218 cumulative IPC: 0.796639 (Simulation time: 0 hr 4 min 45 sec) 
Heartbeat CPU 0 instructions: 140000000 cycles: 107809555 heartbeat IPC: 0.861058 cumulative IPC: 0.811823 (Simulation time: 0 hr 5 min 9 sec) 
Heartbeat CPU 0 instructions: 150000002 cycles: 119304117 heartbeat IPC: 0.869977 cumulative IPC: 0.822823 (Simulation time: 0 hr 5 min 34 sec) 
Heartbeat CPU 0 instructions: 160000000 cycles: 129619239 heartbeat IPC: 0.96945 cumulative IPC: 0.844101 (Simulation time: 0 hr 5 min 57 sec) 
Heartbeat CPU 0 instructions: 170000003 cycles: 141509716 heartbeat IPC: 0.841009 cumulative IPC: 0.843658 (Simulation time: 0 hr 6 min 22 sec) 
Heartbeat CPU 0 instructions: 180000000 cycles: 154078675 heartbeat IPC: 0.795611 cumulative IPC: 0.837337 (Simulation time: 0 hr 6 min 47 sec) 
Heartbeat CPU 0 instructions: 190000000 cycles: 169266135 heartbeat IPC: 0.658438 cumulative IPC: 0.8128 (Simulation time: 0 hr 7 min 12 sec) 
Heartbeat CPU 0 instructions: 200000000 cycles: 184504346 heartbeat IPC: 0.656245 cumulative IPC: 0.793861 (Simulation time: 0 hr 7 min 36 sec) 
Heartbeat CPU 0 instructions: 210000000 cycles: 199632485 heartbeat IPC: 0.66102 cumulative IPC: 0.779618 (Simulation time: 0 hr 8 min 1 sec) 
Heartbeat CPU 0 instructions: 220000000 cycles: 215083887 heartbeat IPC: 0.64719 cumulative IPC: 0.766547 (Simulation time: 0 hr 8 min 27 sec) 
Heartbeat CPU 0 instructions: 230000003 cycles: 233737829 heartbeat IPC: 0.53608 cumulative IPC: 0.742009 (Simulation time: 0 hr 8 min 57 sec) 
Heartbeat CPU 0 instructions: 240000000 cycles: 244482299 heartbeat IPC: 0.930711 cumulative IPC: 0.752913 (Simulation time: 0 hr 9 min 20 sec) 
Heartbeat CPU 0 instructions: 250000000 cycles: 253992518 heartbeat IPC: 1.0515 cumulative IPC: 0.767441 (Simulation time: 0 hr 9 min 43 sec) 
Heartbeat CPU 0 instructions: 260000000 cycles: 263984995 heartbeat IPC: 1.00075 cumulative IPC: 0.778789 (Simulation time: 0 hr 10 min 6 sec) 
Heartbeat CPU 0 instructions: 270000000 cycles: 274053885 heartbeat IPC: 0.993158 cumulative IPC: 0.788804 (Simulation time: 0 hr 10 min 29 sec) 
Heartbeat CPU 0 instructions: 280000000 cycles: 283742295 heartbeat IPC: 1.03216 cumulative IPC: 0.799273 (Simulation time: 0 hr 10 min 53 sec) 
Heartbeat CPU 0 instructions: 290000000 cycles: 293845928 heartbeat IPC: 0.989743 cumulative IPC: 0.807452 (Simulation time: 0 hr 11 min 19 sec) 
Heartbeat CPU 0 instructions: 300000000 cycles: 302884928 heartbeat IPC: 1.10632 cumulative IPC: 0.818507 (Simulation time: 0 hr 11 min 42 sec) 
Heartbeat CPU 0 instructions: 310000002 cycles: 317521757 heartbeat IPC: 0.683208 cumulative IPC: 0.810861 (Simulation time: 0 hr 12 min 9 sec) 
Heartbeat CPU 0 instructions: 320000000 cycles: 334141822 heartbeat IPC: 0.601682 cumulative IPC: 0.798247 (Simulation time: 0 hr 12 min 38 sec) 
Heartbeat CPU 0 instructions: 330000002 cycles: 344998746 heartbeat IPC: 0.921071 cumulative IPC: 0.802902 (Simulation time: 0 hr 13 min 2 sec) 
Heartbeat CPU 0 instructions: 340000000 cycles: 355997594 heartbeat IPC: 0.909186 cumulative IPC: 0.806832 (Simulation time: 0 hr 13 min 26 sec) 
Heartbeat CPU 0 instructions: 350000002 cycles: 369137027 heartbeat IPC: 0.761068 cumulative IPC: 0.804896 (Simulation time: 0 hr 13 min 53 sec) 
Heartbeat CPU 0 instructions: 360000000 cycles: 380789603 heartbeat IPC: 0.858179 cumulative IPC: 0.806822 (Simulation time: 0 hr 14 min 17 sec) 
Heartbeat CPU 0 instructions: 370000000 cycles: 391810367 heartbeat IPC: 0.907378 cumulative IPC: 0.810148 (Simulation time: 0 hr 14 min 42 sec) 
Heartbeat CPU 0 instructions: 380000000 cycles: 402678986 heartbeat IPC: 0.92008 cumulative IPC: 0.813619 (Simulation time: 0 hr 15 min 6 sec) 
Heartbeat CPU 0 instructions: 390000003 cycles: 420581914 heartbeat IPC: 0.558568 cumulative IPC: 0.801007 (Simulation time: 0 hr 15 min 36 sec) 
Heartbeat CPU 0 instructions: 400000000 cycles: 432769216 heartbeat IPC: 0.820526 cumulative IPC: 0.801643 (Simulation time: 0 hr 15 min 59 sec) 
Heartbeat CPU 0 instructions: 410000002 cycles: 444249049 heartbeat IPC: 0.871093 cumulative IPC: 0.80371 (Simulation time: 0 hr 16 min 22 sec) 
Heartbeat CPU 0 instructions: 420000000 cycles: 455626951 heartbeat IPC: 0.878896 cumulative IPC: 0.805864 (Simulation time: 0 hr 16 min 45 sec) 
Heartbeat CPU 0 instructions: 430000001 cycles: 467113829 heartbeat IPC: 0.870559 cumulative IPC: 0.807683 (Simulation time: 0 hr 17 min 8 sec) 
Heartbeat CPU 0 instructions: 440000000 cycles: 479772872 heartbeat IPC: 0.789949 cumulative IPC: 0.80715 (Simulation time: 0 hr 17 min 32 sec) 
Heartbeat CPU 0 instructions: 450000002 cycles: 494927896 heartbeat IPC: 0.659847 cumulative IPC: 0.802035 (Simulation time: 0 hr 17 min 56 sec) 
Heartbeat CPU 0 instructions: 460000000 cycles: 510134850 heartbeat IPC: 0.657594 cumulative IPC: 0.797171 (Simulation time: 0 hr 18 min 20 sec) 
Heartbeat CPU 0 instructions: 470000003 cycles: 525261588 heartbeat IPC: 0.661081 cumulative IPC: 0.79276 (Simulation time: 0 hr 18 min 44 sec) 
Heartbeat CPU 0 instructions: 480000000 cycles: 540712295 heartbeat IPC: 0.647219 cumulative IPC: 0.788096 (Simulation time: 0 hr 19 min 10 sec) 
Heartbeat CPU 0 instructions: 490000001 cycles: 559491840 heartbeat IPC: 0.532494 cumulative IPC: 0.778514 (Simulation time: 0 hr 19 min 38 sec) 
Heartbeat CPU 0 instructions: 500000000 cycles: 570246467 heartbeat IPC: 0.929832 cumulative IPC: 0.781695 (Simulation time: 0 hr 20 min 1 sec) 
Heartbeat CPU 0 instructions: 510000002 cycles: 579781882 heartbeat IPC: 1.04872 cumulative IPC: 0.78658 (Simulation time: 0 hr 20 min 23 sec) 
Heartbeat CPU 0 instructions: 520000000 cycles: 589738548 heartbeat IPC: 1.00435 cumulative IPC: 0.790661 (Simulation time: 0 hr 20 min 45 sec) 
Heartbeat CPU 0 instructions: 530000002 cycles: 599826879 heartbeat IPC: 0.991244 cumulative IPC: 0.7944 (Simulation time: 0 hr 21 min 8 sec) 
Heartbeat CPU 0 instructions: 540000000 cycles: 609463123 heartbeat IPC: 1.03775 cumulative IPC: 0.798656 (Simulation time: 0 hr 21 min 32 sec) 
Heartbeat CPU 0 instructions: 550000002 cycles: 619586861 heartbeat IPC: 0.987778 cumulative IPC: 0.802069 (Simulation time: 0 hr 21 min 57 sec) 
Heartbeat CPU 0 instructions: 560000000 cycles: 628619263 heartbeat IPC: 1.10713 cumulative IPC: 0.806902 (Simulation time: 0 hr 22 min 19 sec) 
Heartbeat CPU 0 instructions: 570000003 cycles: 643125824 heartbeat IPC: 0.689343 cumulative IPC: 0.803985 (Simulation time: 0 hr 22 min 45 sec) 
Heartbeat CPU 0 instructions: 580000000 cycles: 659798556 heartbeat IPC: 0.599782 cumulative IPC: 0.798322 (Simulation time: 0 hr 23 min 14 sec) 
Heartbeat CPU 0 instructions: 590000002 cycles: 670280695 heartbeat IPC: 0.954004 cumulative IPC: 0.80099 (Simulation time: 0 hr 23 min 38 sec) 
Heartbeat CPU 0 instructions: 600000000 cycles: 681696477 heartbeat IPC: 0.87598 cumulative IPC: 0.802364 (Simulation time: 0 hr 24 min 2 sec) 
Finished CPU 0 instructions: 500000000 cycles: 623158756 cumulative IPC: 0.802364 (Simulation time: 0 hr 24 min 2 sec) 

CPU 0 Branch Prediction Accuracy: 99.5219% MPKI: 0.251582
Number of Branches: 26312578 Number of Mispredictions: 125791
Number of LOAD Instructions: 235643083
Number of LOAD Instructions (ROI): 235643083
Number of STORE Instructions: 37593550
Number of STORE Instructions (ROI): 37593550
Total Destination Memory Operands: 40480968
Total Destination Memory Operands (ROI): 40480968
Total Source Memory Operands: 235643083
Total Source Memory Operands (ROI): 235643083
Number of DEPENDED LOADS: 6699592
Number of DEPENDED LOADS (ROI): 6699592
Number of SQ_ADDED: 40480950
Number of SQ_ADDED (ROI): 40480950
Number of LQ_ADDED: 399153060
Number of LQ_ADDED (ROI): 399153060
Number of Instructions read from trace: 600000259

ChampSim completed all CPUs

Region of Interest Statistics

CPU 0 cumulative IPC: 0.802364 instructions: 500000000 cycles: 623158756
ITLB TOTAL     ACCESS:  109401343  HIT:  109400830  MISS:        513
ITLB LOAD      ACCESS:  109401343  HIT:  109400830  MISS:        513
ITLB RFO       ACCESS:          0  HIT:          0  MISS:          0
ITLB PREFETCH  ACCESS:          0  HIT:          0  MISS:          0
ITLB WRITEBACK ACCESS:          0  HIT:          0  MISS:          0
ITLB PREFETCH  REQUESTED:          0  ISSUED:          0  USEFUL:          0  USELESS:          0
ITLB TOTAL MSHR MERGED:        975
ITLB LOAD MSHR MERGED:        975
ITLB RFO MSHR MERGED:          0
ITLB PREFETCH MSHR MERGED:          0
ITLB WRITEBACK MSHR MERGED:          0
ITLB TOTAL ACCESSES:  109402318 HITS:  109400830 MISSES:       1488
ITLB LOAD ACCESSES:  109402318 HITS:  109400830 MISSES:       1488
ITLB RFO ACCESSES:          0 HITS:          0 MISSES:          0
ITLB PREFETCH ACCESSES:          0 HITS:          0 MISSES:          0
ITLB WRITEBACK ACCESSES:          0 HITS:          0 MISSES:          0
ITLB RQ ACCESS:  500000003
ITLB RQ TO_CACHE:  109402318
ITLB RQ MERGED:  390597685
ITLB RQ FORWARD:          0
ITLB WQ ACCESS:          0
ITLB WQ TO_CACHE:          0
ITLB WQ MERGED:          0
ITLB WQ FORWARD:          0
DTLB TOTAL     ACCESS:  130397303  HIT:  130139711  MISS:     257592
DTLB LOAD      ACCESS:  109082964  HIT:  108862188  MISS:     220776
DTLB RFO       ACCESS:   21314339  HIT:   21277523  MISS:      36816
DTLB PREFETCH  ACCESS:          0  HIT:          0  MISS:          0
DTLB WRITEBACK ACCESS:          0  HIT:          0  MISS:          0
DTLB PREFETCH  REQUESTED:          0  ISSUED:          0  USEFUL:          0  USELESS:          0
DTLB TOTAL MSHR MERGED:     122459
DTLB LOAD MSHR MERGED:      84535
DTLB RFO MSHR MERGED:      37924
DTLB PREFETCH MSHR MERGED:          0
DTLB WRITEBACK MSHR MERGED:          0
DTLB TOTAL ACCESSES:  130519762 HITS:  130139711 MISSES:     380051
DTLB LOAD ACCESSES:  109167499 HITS:  108862188 MISSES:     305311
DTLB RFO ACCESSES:   21352263 HITS:   21277523 MISSES:      74740
DTLB PREFETCH ACCESSES:          0 HITS:          0 MISSES:          0
DTLB WRITEBACK ACCESSES:          0 HITS:          0 MISSES:          0
DTLB RQ ACCESS:  218634886
DTLB RQ TO_CACHE:  130519763
DTLB RQ MERGED:   88115123
DTLB RQ FORWARD:          0
DTLB WQ ACCESS:          0
DTLB WQ TO_CACHE:          0
DTLB WQ MERGED:          0
DTLB WQ FORWARD:          0
L1D TOTAL     ACCESS:  204574681  HIT:  193502954  MISS:   11071727
L1D LOAD      ACCESS:  106117190  HIT:  102840843  MISS:    3276347
L1D RFO       ACCESS:   26956417  HIT:   25204125  MISS:    1752292
L1D PREFETCH  ACCESS:   71501074  HIT:   65457986  MISS:    6043088
L1D WRITEBACK ACCESS:          0  HIT:          0  MISS:          0
L1D PREFETCH  REQUESTED:  108975948  ISSUED:  107321326  USEFUL:    5590784  USELESS:     452298
L1D TOTAL MSHR MERGED:   18625195
L1D LOAD MSHR MERGED:    4980027
L1D RFO MSHR MERGED:    6472485
L1D PREFETCH MSHR MERGED:    7172683
L1D WRITEBACK MSHR MERGED:          0
L1D TOTAL ACCESSES:  223266485 HITS:  193569563 MISSES:   29696922
L1D LOAD ACCESSES:  109004608 HITS:  102869503 MISSES:    6135105
L1D RFO ACCESSES:   33425453 HITS:   25204125 MISSES:    8221328
L1D PREFETCH ACCESSES:   80836424 HITS:   65495935 MISSES:   15340489
L1D WRITEBACK ACCESSES:          0 HITS:          0 MISSES:          0
L1D RQ ACCESS:  184991448
L1D RQ TO_CACHE:  108975948
L1D RQ MERGED:   75986840
L1D RQ FORWARD:          0
L1D WQ ACCESS:   33643426
L1D WQ TO_CACHE:   33425452
L1D WQ MERGED:     217974
L1D WQ FORWARD:      66609
L1I TOTAL     ACCESS:  134087054  HIT:  134062476  MISS:      24578
L1I LOAD      ACCESS:  134087054  HIT:  134062476  MISS:      24578
L1I RFO       ACCESS:          0  HIT:          0  MISS:          0
L1I PREFETCH  ACCESS:          0  HIT:          0  MISS:          0
L1I WRITEBACK ACCESS:          0  HIT:          0  MISS:          0
L1I PREFETCH  REQUESTED:          0  ISSUED:          0  USEFUL:          0  USELESS:          0
L1I TOTAL MSHR MERGED:      30525
L1I LOAD MSHR MERGED:      30525
L1I RFO MSHR MERGED:          0
L1I PREFETCH MSHR MERGED:          0
L1I WRITEBACK MSHR MERGED:          0
L1I TOTAL ACCESSES:  134117579 HITS:  134062476 MISSES:      55103
L1I LOAD ACCESSES:  134117579 HITS:  134062476 MISSES:      55103
L1I RFO ACCESSES:          0 HITS:          0 MISSES:          0
L1I PREFETCH ACCESSES:          0 HITS:          0 MISSES:          0
L1I WRITEBACK ACCESSES:          0 HITS:          0 MISSES:          0
L1I RQ ACCESS:  500000005
L1I RQ TO_CACHE:  134117579
L1I RQ MERGED:  365882426
L1I RQ FORWARD:          0
L1I WQ ACCESS:          0
L1I WQ TO_CACHE:          0
L1I WQ MERGED:          0
L1I WQ FORWARD:          0
L2C TOTAL     ACCESS:   14942984  HIT:    6944788  MISS:    7998196
L2C LOAD      ACCESS:    1179464  HIT:     297990  MISS:     881474
L2C RFO       ACCESS:    1748644  HIT:     369589  MISS:    1379055
L2C PREFETCH  ACCESS:    8333088  HIT:    2604087  MISS:    5729001
L2C WRITEBACK ACCESS:    3681788  HIT:    3673122  MISS:       8666
L2C PREFETCH  REQUESTED:     385981  ISSUED:     385975  USEFUL:     114155  USELESS:    5615674
L2C TOTAL MSHR MERGED:      42095
L2C LOAD MSHR MERGED:       2224
L2C RFO MSHR MERGED:       1207
L2C PREFETCH MSHR MERGED:      38664
L2C WRITEBACK MSHR MERGED:          0
L2C TOTAL ACCESSES:   15099861 HITS:    6945411 MISSES:    8154450
L2C LOAD ACCESSES:    1179656 HITS:     298182 MISSES:     881474
L2C RFO ACCESSES:    1748843 HITS:     369788 MISSES:    1379055
L2C PREFETCH ACCESSES:    8489574 HITS:    2604319 MISSES:    5885255
L2C WRITEBACK ACCESSES:    3681788 HITS:    3673122 MISSES:       8666
L2C RQ ACCESS:    2928499
L2C RQ TO_CACHE:    2928108
L2C RQ MERGED:          0
L2C RQ FORWARD:          0
L2C WQ ACCESS:    3681788
L2C WQ TO_CACHE:    3681788
L2C WQ MERGED:          0
L2C WQ FORWARD:        623
LLC TOTAL     ACCESS:   11182976  HIT:    3672292  MISS:    7510684
LLC LOAD      ACCESS:     879245  HIT:     217888  MISS:     661357
LLC RFO       ACCESS:    1377847  HIT:     165241  MISS:    1212606
LLC PREFETCH  ACCESS:    5821469  HIT:    1038457  MISS:    4783012
LLC WRITEBACK ACCESS:    3104415  HIT:    2250706  MISS:     853709
LLC PREFETCH  REQUESTED:          0  ISSUED:          0  USEFUL:     147009  USELESS:    4627247
LLC TOTAL MSHR MERGED:      17555
LLC LOAD MSHR MERGED:       4888
LLC RFO MSHR MERGED:        627
LLC PREFETCH MSHR MERGED:      12040
LLC WRITEBACK MSHR MERGED:          0
LLC TOTAL ACCESSES:   11200546 HITS:    3672307 MISSES:    7528239
LLC LOAD ACCESSES:     879250 HITS:     217893 MISSES:     661357
LLC RFO ACCESSES:    1377848 HITS:     165242 MISSES:    1212606
LLC PREFETCH ACCESSES:    5839033 HITS:    1038466 MISSES:    4800567
LLC WRITEBACK ACCESSES:    3104415 HITS:    2250706 MISSES:     853709
LLC 0 RQ ACCESS:    2257098
LLC 0 RQ TO_CACHE:    2257092
LLC 0 RQ MERGED:          0
LLC 0 RQ FORWARD:          0
LLC WQ ACCESS:    3104415
LLC WQ TO_CACHE:    3104415
LLC WQ MERGED:          0
LLC WQ FORWARD:         15
Major fault: 0 Minor fault: 11519
CPU 0 L1D next line prefetcher final stats
CPU 0 L2C PC-based stride prefetcher final stats
All Misses: 9296491
All Hits: 4497781
SD Algo Stats - Switches: 0 SRR-Repls: 746486 BRR-Repls: 0

DRAM Statistics
 CHANNEL 0
 RQ ROW_BUFFER_HIT:    3822217  ROW_BUFFER_MISS:    2833829
 DBUS_CONGESTED:    5004121
 WQ ROW_BUFFER_HIT:     559381  ROW_BUFFER_MISS:    2098675  FULL:          0

 AVG_CONGESTED_CYCLE: 13
LOADS RETIRED: 190375692
INSTR RETIRED: 500000000
