
*** ChampSim Multicore Out-of-Order Simulator ***

Warmup Instructions: 100000000
Simulation Instructions: 500000000
Number of CPUs: 1
LLC sets: 2048
LLC ways: 16
Clean RRIP Policies: 1113010111130101 Dirty RRIP Policies: 1113110111131101 PSEL Width: 10 Track Set: 4294967295 PSEL Mask: 1 Demote Mask: 3000214130002141DS Algo: 0Window size: 0
Off-chip DRAM Size: 4096 MB Channels: 1 Width: 64-bit Data Rate: 1600 MT/s

CPU 0 runs /mnt/beegfs/iconst01/spec2017/Gcc.trace.gz
NOT SORTED
TRACE STRING: /mnt/beegfs/iconst01/spec2017/Gcc.trace.gz
SORTED
TRACE STRING: /mnt/beegfs/iconst01/spec2017/Gcc.trace.gz
INITIAL
TRACE STRING: /mnt/beegfs/iconst01/spec2017/Gcc.trace.gz

champsim_seed used: 269

CPU 0 L1D next line prefetcher
CPU 0 L2C IP-based stride prefetcher
Initialize DRRIP state
Assign rand_sets[0]: 454  LLC: 2048
rand_sets[0]: 454
Assign rand_sets[1]: 1662  LLC: 2048
rand_sets[1]: 1662
Assign rand_sets[2]: 1921  LLC: 2048
rand_sets[2]: 1921
Assign rand_sets[3]: 1131  LLC: 2048
rand_sets[3]: 1131
Assign rand_sets[4]: 331  LLC: 2048
rand_sets[4]: 331
Assign rand_sets[5]: 1531  LLC: 2048
rand_sets[5]: 1531
Assign rand_sets[6]: 482  LLC: 2048
rand_sets[6]: 482
Assign rand_sets[7]: 1275  LLC: 2048
rand_sets[7]: 1275
Assign rand_sets[8]: 1876  LLC: 2048
rand_sets[8]: 1876
Assign rand_sets[9]: 2038  LLC: 2048
rand_sets[9]: 2038
Assign rand_sets[10]: 701  LLC: 2048
rand_sets[10]: 701
Assign rand_sets[11]: 479  LLC: 2048
rand_sets[11]: 479
Assign rand_sets[12]: 892  LLC: 2048
rand_sets[12]: 892
Assign rand_sets[13]: 1820  LLC: 2048
rand_sets[13]: 1820
Assign rand_sets[14]: 1505  LLC: 2048
rand_sets[14]: 1505
Assign rand_sets[15]: 1159  LLC: 2048
rand_sets[15]: 1159
Assign rand_sets[16]: 513  LLC: 2048
rand_sets[16]: 513
Assign rand_sets[17]: 703  LLC: 2048
rand_sets[17]: 703
Assign rand_sets[18]: 561  LLC: 2048
rand_sets[18]: 561
Assign rand_sets[19]: 990  LLC: 2048
rand_sets[19]: 990
Assign rand_sets[20]: 342  LLC: 2048
rand_sets[20]: 342
Assign rand_sets[21]: 882  LLC: 2048
rand_sets[21]: 882
Assign rand_sets[22]: 15  LLC: 2048
rand_sets[22]: 15
Assign rand_sets[23]: 71  LLC: 2048
rand_sets[23]: 71
Assign rand_sets[24]: 1127  LLC: 2048
rand_sets[24]: 1127
Assign rand_sets[25]: 1382  LLC: 2048
rand_sets[25]: 1382
Assign rand_sets[26]: 647  LLC: 2048
rand_sets[26]: 647
Assign rand_sets[27]: 857  LLC: 2048
rand_sets[27]: 857
Assign rand_sets[28]: 1450  LLC: 2048
rand_sets[28]: 1450
Assign rand_sets[29]: 1160  LLC: 2048
rand_sets[29]: 1160
Assign rand_sets[30]: 1852  LLC: 2048
rand_sets[30]: 1852
Assign rand_sets[31]: 1881  LLC: 2048
rand_sets[31]: 1881
Assign rand_sets[32]: 1770  LLC: 2048
rand_sets[32]: 1770
Assign rand_sets[33]: 1622  LLC: 2048
rand_sets[33]: 1622
Assign rand_sets[34]: 275  LLC: 2048
rand_sets[34]: 275
Assign rand_sets[35]: 635  LLC: 2048
rand_sets[35]: 635
Assign rand_sets[36]: 466  LLC: 2048
rand_sets[36]: 466
Assign rand_sets[37]: 1413  LLC: 2048
rand_sets[37]: 1413
Assign rand_sets[38]: 417  LLC: 2048
rand_sets[38]: 417
Assign rand_sets[39]: 472  LLC: 2048
rand_sets[39]: 472
Assign rand_sets[40]: 1340  LLC: 2048
rand_sets[40]: 1340
Assign rand_sets[41]: 852  LLC: 2048
rand_sets[41]: 852
Assign rand_sets[42]: 1365  LLC: 2048
rand_sets[42]: 1365
Assign rand_sets[43]: 47  LLC: 2048
rand_sets[43]: 47
Assign rand_sets[44]: 823  LLC: 2048
rand_sets[44]: 823
Assign rand_sets[45]: 686  LLC: 2048
rand_sets[45]: 686
Assign rand_sets[46]: 1637  LLC: 2048
rand_sets[46]: 1637
Assign rand_sets[47]: 1115  LLC: 2048
rand_sets[47]: 1115
Assign rand_sets[48]: 986  LLC: 2048
rand_sets[48]: 986
Assign rand_sets[49]: 258  LLC: 2048
rand_sets[49]: 258
Assign rand_sets[50]: 633  LLC: 2048
rand_sets[50]: 633
Assign rand_sets[51]: 920  LLC: 2048
rand_sets[51]: 920
Assign rand_sets[52]: 204  LLC: 2048
rand_sets[52]: 204
Assign rand_sets[53]: 227  LLC: 2048
rand_sets[53]: 227
Assign rand_sets[54]: 1818  LLC: 2048
rand_sets[54]: 1818
Assign rand_sets[55]: 886  LLC: 2048
rand_sets[55]: 886
Assign rand_sets[56]: 1422  LLC: 2048
rand_sets[56]: 1422
Assign rand_sets[57]: 607  LLC: 2048
rand_sets[57]: 607
Assign rand_sets[58]: 217  LLC: 2048
rand_sets[58]: 217
Assign rand_sets[59]: 1945  LLC: 2048
rand_sets[59]: 1945
Assign rand_sets[60]: 143  LLC: 2048
rand_sets[60]: 143
Assign rand_sets[61]: 1311  LLC: 2048
rand_sets[61]: 1311
Assign rand_sets[62]: 319  LLC: 2048
rand_sets[62]: 319
Assign rand_sets[63]: 1846  LLC: 2048
rand_sets[63]: 1846
 CLEAN-RRIP-POLICY-1: 1-1-1-3-0-1-0-1- CLEAN-RRIP-POLICY-2: 1-1-1-3-0-1-0-1-
 DIRTY-RRIP-POLICY-1: 1-1-1-3-1-1-0-1- DIRTY-RRIP-POLICY-2: 1-1-1-3-1-1-0-1-
 PSEL width: 10
Heartbeat CPU 0 instructions: 10000001 cycles: 7315980 heartbeat IPC: 1.36687 cumulative IPC: 1.36687 (Simulation time: 0 hr 0 min 15 sec) 
Heartbeat CPU 0 instructions: 20000000 cycles: 14307434 heartbeat IPC: 1.43032 cumulative IPC: 1.39787 (Simulation time: 0 hr 0 min 30 sec) 
Heartbeat CPU 0 instructions: 30000001 cycles: 21020236 heartbeat IPC: 1.48969 cumulative IPC: 1.4272 (Simulation time: 0 hr 0 min 47 sec) 
Heartbeat CPU 0 instructions: 40000000 cycles: 27480990 heartbeat IPC: 1.54781 cumulative IPC: 1.45555 (Simulation time: 0 hr 1 min 3 sec) 
Heartbeat CPU 0 instructions: 50000001 cycles: 33582572 heartbeat IPC: 1.63892 cumulative IPC: 1.48887 (Simulation time: 0 hr 1 min 19 sec) 
Heartbeat CPU 0 instructions: 60000000 cycles: 40063636 heartbeat IPC: 1.54296 cumulative IPC: 1.49762 (Simulation time: 0 hr 1 min 35 sec) 
Heartbeat CPU 0 instructions: 70000000 cycles: 47100779 heartbeat IPC: 1.42103 cumulative IPC: 1.48617 (Simulation time: 0 hr 1 min 51 sec) 
Heartbeat CPU 0 instructions: 80000000 cycles: 54190040 heartbeat IPC: 1.41058 cumulative IPC: 1.47629 (Simulation time: 0 hr 2 min 6 sec) 
Heartbeat CPU 0 instructions: 90000003 cycles: 61194161 heartbeat IPC: 1.42773 cumulative IPC: 1.47073 (Simulation time: 0 hr 2 min 21 sec) 
Heartbeat CPU 0 instructions: 100000000 cycles: 68361063 heartbeat IPC: 1.3953 cumulative IPC: 1.46282 (Simulation time: 0 hr 2 min 35 sec) 

Warmup complete CPU 0 instructions: 100000004 cycles: 68361064 (Simulation time: 0 hr 2 min 35 sec) 

Heartbeat CPU 0 instructions: 110000003 cycles: 95948885 heartbeat IPC: 0.362479 cumulative IPC: 0.362479 (Simulation time: 0 hr 3 min 5 sec) 
Heartbeat CPU 0 instructions: 120000000 cycles: 123377371 heartbeat IPC: 0.364584 cumulative IPC: 0.363529 (Simulation time: 0 hr 3 min 35 sec) 
Heartbeat CPU 0 instructions: 130000000 cycles: 148337240 heartbeat IPC: 0.400643 cumulative IPC: 0.375112 (Simulation time: 0 hr 4 min 5 sec) 
Heartbeat CPU 0 instructions: 140000000 cycles: 177660352 heartbeat IPC: 0.341028 cumulative IPC: 0.365968 (Simulation time: 0 hr 4 min 34 sec) 
Heartbeat CPU 0 instructions: 150000000 cycles: 207450079 heartbeat IPC: 0.335686 cumulative IPC: 0.359482 (Simulation time: 0 hr 5 min 3 sec) 
Heartbeat CPU 0 instructions: 160000000 cycles: 234829119 heartbeat IPC: 0.365243 cumulative IPC: 0.360429 (Simulation time: 0 hr 5 min 32 sec) 
Heartbeat CPU 0 instructions: 170000001 cycles: 262792254 heartbeat IPC: 0.357614 cumulative IPC: 0.360025 (Simulation time: 0 hr 6 min 3 sec) 
Heartbeat CPU 0 instructions: 180000000 cycles: 291166176 heartbeat IPC: 0.352436 cumulative IPC: 0.359058 (Simulation time: 0 hr 6 min 33 sec) 
Heartbeat CPU 0 instructions: 190000002 cycles: 319078073 heartbeat IPC: 0.35827 cumulative IPC: 0.35897 (Simulation time: 0 hr 7 min 3 sec) 
Heartbeat CPU 0 instructions: 200000000 cycles: 347359774 heartbeat IPC: 0.353585 cumulative IPC: 0.358425 (Simulation time: 0 hr 7 min 33 sec) 
Heartbeat CPU 0 instructions: 210000002 cycles: 375115167 heartbeat IPC: 0.36029 cumulative IPC: 0.358593 (Simulation time: 0 hr 8 min 3 sec) 
Heartbeat CPU 0 instructions: 220000000 cycles: 404109824 heartbeat IPC: 0.344891 cumulative IPC: 0.35741 (Simulation time: 0 hr 8 min 31 sec) 
Heartbeat CPU 0 instructions: 230000000 cycles: 431593575 heartbeat IPC: 0.363851 cumulative IPC: 0.357897 (Simulation time: 0 hr 9 min 0 sec) 
Heartbeat CPU 0 instructions: 240000000 cycles: 457529758 heartbeat IPC: 0.385562 cumulative IPC: 0.359741 (Simulation time: 0 hr 9 min 28 sec) 
Heartbeat CPU 0 instructions: 250000000 cycles: 487587486 heartbeat IPC: 0.332693 cumulative IPC: 0.357802 (Simulation time: 0 hr 10 min 0 sec) 
Heartbeat CPU 0 instructions: 260000000 cycles: 514644543 heartbeat IPC: 0.369589 cumulative IPC: 0.358517 (Simulation time: 0 hr 10 min 29 sec) 
Heartbeat CPU 0 instructions: 270000003 cycles: 542970096 heartbeat IPC: 0.353038 cumulative IPC: 0.35819 (Simulation time: 0 hr 10 min 59 sec) 
Heartbeat CPU 0 instructions: 280000000 cycles: 571027598 heartbeat IPC: 0.356411 cumulative IPC: 0.35809 (Simulation time: 0 hr 11 min 30 sec) 
Heartbeat CPU 0 instructions: 290000000 cycles: 599817244 heartbeat IPC: 0.347347 cumulative IPC: 0.357508 (Simulation time: 0 hr 12 min 1 sec) 
Heartbeat CPU 0 instructions: 300000000 cycles: 629501560 heartbeat IPC: 0.336878 cumulative IPC: 0.356417 (Simulation time: 0 hr 12 min 30 sec) 
Heartbeat CPU 0 instructions: 310000001 cycles: 658787985 heartbeat IPC: 0.341455 cumulative IPC: 0.355675 (Simulation time: 0 hr 13 min 0 sec) 
Heartbeat CPU 0 instructions: 320000000 cycles: 686875414 heartbeat IPC: 0.356031 cumulative IPC: 0.355691 (Simulation time: 0 hr 13 min 29 sec) 
Heartbeat CPU 0 instructions: 330000000 cycles: 715410852 heartbeat IPC: 0.350441 cumulative IPC: 0.35546 (Simulation time: 0 hr 13 min 58 sec) 
Heartbeat CPU 0 instructions: 340000000 cycles: 744611466 heartbeat IPC: 0.342459 cumulative IPC: 0.354898 (Simulation time: 0 hr 14 min 28 sec) 
Heartbeat CPU 0 instructions: 350000003 cycles: 771553864 heartbeat IPC: 0.371162 cumulative IPC: 0.355521 (Simulation time: 0 hr 14 min 57 sec) 
Heartbeat CPU 0 instructions: 360000000 cycles: 799585794 heartbeat IPC: 0.356736 cumulative IPC: 0.355568 (Simulation time: 0 hr 15 min 25 sec) 
Heartbeat CPU 0 instructions: 370000000 cycles: 827753010 heartbeat IPC: 0.355023 cumulative IPC: 0.355548 (Simulation time: 0 hr 15 min 53 sec) 
Heartbeat CPU 0 instructions: 380000000 cycles: 856241773 heartbeat IPC: 0.351016 cumulative IPC: 0.355384 (Simulation time: 0 hr 16 min 21 sec) 
Heartbeat CPU 0 instructions: 390000001 cycles: 883837500 heartbeat IPC: 0.362375 cumulative IPC: 0.35562 (Simulation time: 0 hr 16 min 49 sec) 
Heartbeat CPU 0 instructions: 400000000 cycles: 912457401 heartbeat IPC: 0.349407 cumulative IPC: 0.35541 (Simulation time: 0 hr 17 min 18 sec) 
Heartbeat CPU 0 instructions: 410000001 cycles: 939757945 heartbeat IPC: 0.366293 cumulative IPC: 0.355751 (Simulation time: 0 hr 17 min 46 sec) 
Heartbeat CPU 0 instructions: 420000000 cycles: 967072434 heartbeat IPC: 0.366106 cumulative IPC: 0.356065 (Simulation time: 0 hr 18 min 14 sec) 
Heartbeat CPU 0 instructions: 430000002 cycles: 994739809 heartbeat IPC: 0.361437 cumulative IPC: 0.356226 (Simulation time: 0 hr 18 min 42 sec) 
Heartbeat CPU 0 instructions: 440000000 cycles: 1024188884 heartbeat IPC: 0.339569 cumulative IPC: 0.355713 (Simulation time: 0 hr 19 min 11 sec) 
Heartbeat CPU 0 instructions: 450000002 cycles: 1053400194 heartbeat IPC: 0.342333 cumulative IPC: 0.355316 (Simulation time: 0 hr 19 min 39 sec) 
Heartbeat CPU 0 instructions: 460000000 cycles: 1081085713 heartbeat IPC: 0.3612 cumulative IPC: 0.355477 (Simulation time: 0 hr 20 min 8 sec) 
Heartbeat CPU 0 instructions: 470000000 cycles: 1108718392 heartbeat IPC: 0.36189 cumulative IPC: 0.355647 (Simulation time: 0 hr 20 min 36 sec) 
Heartbeat CPU 0 instructions: 480000000 cycles: 1136600759 heartbeat IPC: 0.35865 cumulative IPC: 0.355725 (Simulation time: 0 hr 21 min 4 sec) 
Heartbeat CPU 0 instructions: 490000000 cycles: 1164192234 heartbeat IPC: 0.362431 cumulative IPC: 0.355894 (Simulation time: 0 hr 21 min 32 sec) 
Heartbeat CPU 0 instructions: 500000000 cycles: 1192446465 heartbeat IPC: 0.353929 cumulative IPC: 0.355845 (Simulation time: 0 hr 22 min 1 sec) 
Heartbeat CPU 0 instructions: 510000000 cycles: 1227669216 heartbeat IPC: 0.283907 cumulative IPC: 0.353659 (Simulation time: 0 hr 22 min 33 sec) 
Heartbeat CPU 0 instructions: 520000000 cycles: 1255666517 heartbeat IPC: 0.357177 cumulative IPC: 0.353742 (Simulation time: 0 hr 23 min 2 sec) 
Heartbeat CPU 0 instructions: 530000001 cycles: 1284990022 heartbeat IPC: 0.341023 cumulative IPC: 0.353436 (Simulation time: 0 hr 23 min 32 sec) 
Heartbeat CPU 0 instructions: 540000000 cycles: 1313005608 heartbeat IPC: 0.356944 cumulative IPC: 0.353515 (Simulation time: 0 hr 24 min 1 sec) 
Heartbeat CPU 0 instructions: 550000001 cycles: 1342178113 heartbeat IPC: 0.342789 cumulative IPC: 0.353269 (Simulation time: 0 hr 24 min 32 sec) 
Heartbeat CPU 0 instructions: 560000000 cycles: 1367535894 heartbeat IPC: 0.394356 cumulative IPC: 0.354071 (Simulation time: 0 hr 25 min 1 sec) 
Heartbeat CPU 0 instructions: 570000000 cycles: 1396891489 heartbeat IPC: 0.340651 cumulative IPC: 0.353774 (Simulation time: 0 hr 25 min 30 sec) 
Heartbeat CPU 0 instructions: 580000000 cycles: 1424788323 heartbeat IPC: 0.358464 cumulative IPC: 0.353871 (Simulation time: 0 hr 26 min 0 sec) 
Heartbeat CPU 0 instructions: 590000001 cycles: 1449586454 heartbeat IPC: 0.403256 cumulative IPC: 0.354757 (Simulation time: 0 hr 26 min 28 sec) 
Heartbeat CPU 0 instructions: 600000000 cycles: 1475734494 heartbeat IPC: 0.382438 cumulative IPC: 0.355272 (Simulation time: 0 hr 26 min 56 sec) 
Finished CPU 0 instructions: 500000000 cycles: 1407373452 cumulative IPC: 0.355272 (Simulation time: 0 hr 26 min 56 sec) 

CPU 0 Branch Prediction Accuracy: 86.4311% MPKI: 26.2662
Number of Branches: 96788573 Number of Mispredictions: 13133102
Number of LOAD Instructions: 164682285
Number of LOAD Instructions (ROI): 164682285
Number of STORE Instructions: 78194750
Number of STORE Instructions (ROI): 78194750
Total Destination Memory Operands: 83268534
Total Destination Memory Operands (ROI): 83268534
Total Source Memory Operands: 164712438
Total Source Memory Operands (ROI): 164712438
Number of DEPENDED LOADS: 7062407
Number of DEPENDED LOADS (ROI): 7062407
Number of SQ_ADDED: 83268522
Number of SQ_ADDED (ROI): 83268522
Number of LQ_ADDED: 236709152
Number of LQ_ADDED (ROI): 236709152
Number of Instructions read from trace: 600000066

ChampSim completed all CPUs

Region of Interest Statistics

CPU 0 cumulative IPC: 0.355272 instructions: 500000000 cycles: 1407373452
ITLB TOTAL     ACCESS:  100507852  HIT:  100303406  MISS:     204446
ITLB LOAD      ACCESS:  100507852  HIT:  100303406  MISS:     204446
ITLB RFO       ACCESS:          0  HIT:          0  MISS:          0
ITLB PREFETCH  ACCESS:          0  HIT:          0  MISS:          0
ITLB WRITEBACK ACCESS:          0  HIT:          0  MISS:          0
ITLB PREFETCH  REQUESTED:          0  ISSUED:          0  USEFUL:          0  USELESS:          0
ITLB TOTAL MSHR MERGED:     172424
ITLB LOAD MSHR MERGED:     172424
ITLB RFO MSHR MERGED:          0
ITLB PREFETCH MSHR MERGED:          0
ITLB WRITEBACK MSHR MERGED:          0
ITLB TOTAL ACCESSES:  100680276 HITS:  100303406 MISSES:     376870
ITLB LOAD ACCESSES:  100680276 HITS:  100303406 MISSES:     376870
ITLB RFO ACCESSES:          0 HITS:          0 MISSES:          0
ITLB PREFETCH ACCESSES:          0 HITS:          0 MISSES:          0
ITLB WRITEBACK ACCESSES:          0 HITS:          0 MISSES:          0
ITLB RQ ACCESS:  500000057
ITLB RQ TO_CACHE:  100680276
ITLB RQ MERGED:  399319781
ITLB RQ FORWARD:          0
ITLB WQ ACCESS:          0
ITLB WQ TO_CACHE:          0
ITLB WQ MERGED:          0
ITLB WQ FORWARD:          0
DTLB TOTAL     ACCESS:  165333328  HIT:  164698982  MISS:     634346
DTLB LOAD      ACCESS:  106289818  HIT:  105719824  MISS:     569994
DTLB RFO       ACCESS:   59043510  HIT:   58979158  MISS:      64352
DTLB PREFETCH  ACCESS:          0  HIT:          0  MISS:          0
DTLB WRITEBACK ACCESS:          0  HIT:          0  MISS:          0
DTLB PREFETCH  REQUESTED:          0  ISSUED:          0  USEFUL:          0  USELESS:          0
DTLB TOTAL MSHR MERGED:      99978
DTLB LOAD MSHR MERGED:      59443
DTLB RFO MSHR MERGED:      40535
DTLB PREFETCH MSHR MERGED:          0
DTLB WRITEBACK MSHR MERGED:          0
DTLB TOTAL ACCESSES:  165433306 HITS:  164698982 MISSES:     734324
DTLB LOAD ACCESSES:  106349261 HITS:  105719824 MISSES:     629437
DTLB RFO ACCESSES:   59084045 HITS:   58979158 MISSES:     104887
DTLB PREFETCH ACCESSES:          0 HITS:          0 MISSES:          0
DTLB WRITEBACK ACCESSES:          0 HITS:          0 MISSES:          0
DTLB RQ ACCESS:  200308503
DTLB RQ TO_CACHE:  165433306
DTLB RQ MERGED:   34875197
DTLB RQ FORWARD:          0
DTLB WQ ACCESS:          0
DTLB WQ TO_CACHE:          0
DTLB WQ MERGED:          0
DTLB WQ FORWARD:          0
L1D TOTAL     ACCESS:  281806838  HIT:  273897560  MISS:    7909278
L1D LOAD      ACCESS:  110413526  HIT:  107135198  MISS:    3278328
L1D RFO       ACCESS:   67104061  HIT:   66212919  MISS:     891142
L1D PREFETCH  ACCESS:  104289251  HIT:  100549443  MISS:    3739808
L1D WRITEBACK ACCESS:          0  HIT:          0  MISS:          0
L1D PREFETCH  REQUESTED:  110814164  ISSUED:  109114915  USEFUL:    1660616  USELESS:    2079156
L1D TOTAL MSHR MERGED:    2891571
L1D LOAD MSHR MERGED:     498423
L1D RFO MSHR MERGED:    1882382
L1D PREFETCH MSHR MERGED:     510766
L1D WRITEBACK MSHR MERGED:          0
L1D TOTAL ACCESSES:  284725913 HITS:  273925064 MISSES:   10800849
L1D LOAD ACCESSES:  110815680 HITS:  107136714 MISSES:    3678966
L1D RFO ACCESSES:   68974115 HITS:   66212919 MISSES:    2761196
L1D PREFETCH ACCESSES:  104936118 HITS:  100575431 MISSES:    4360687
L1D WRITEBACK ACCESSES:          0 HITS:          0 MISSES:          0
L1D RQ ACCESS:  130755900
L1D RQ TO_CACHE:  110814167
L1D RQ MERGED:   19940217
L1D RQ FORWARD:          0
L1D WQ ACCESS:   69552603
L1D WQ TO_CACHE:   68974116
L1D WQ MERGED:     578487
L1D WQ FORWARD:      27504
L1I TOTAL     ACCESS:  126555707  HIT:  122317154  MISS:    4238553
L1I LOAD      ACCESS:  126555707  HIT:  122317154  MISS:    4238553
L1I RFO       ACCESS:          0  HIT:          0  MISS:          0
L1I PREFETCH  ACCESS:          0  HIT:          0  MISS:          0
L1I WRITEBACK ACCESS:          0  HIT:          0  MISS:          0
L1I PREFETCH  REQUESTED:          0  ISSUED:          0  USEFUL:          0  USELESS:          0
L1I TOTAL MSHR MERGED:    1834371
L1I LOAD MSHR MERGED:    1834371
L1I RFO MSHR MERGED:          0
L1I PREFETCH MSHR MERGED:          0
L1I WRITEBACK MSHR MERGED:          0
L1I TOTAL ACCESSES:  128390081 HITS:  122317154 MISSES:    6072927
L1I LOAD ACCESSES:  128390081 HITS:  122317154 MISSES:    6072927
L1I RFO ACCESSES:          0 HITS:          0 MISSES:          0
L1I PREFETCH ACCESSES:          0 HITS:          0 MISSES:          0
L1I WRITEBACK ACCESSES:          0 HITS:          0 MISSES:          0
L1I RQ ACCESS:  500000057
L1I RQ TO_CACHE:  128390081
L1I RQ MERGED:  371609976
L1I RQ FORWARD:          0
L1I WQ ACCESS:          0
L1I WQ TO_CACHE:          0
L1I WQ MERGED:          0
L1I WQ FORWARD:          0
L2C TOTAL     ACCESS:   14904593  HIT:   11158132  MISS:    3746461
L2C LOAD      ACCESS:    7418887  HIT:    5098721  MISS:    2320166
L2C RFO       ACCESS:     878716  HIT:     409910  MISS:     468806
L2C PREFETCH  ACCESS:    4567763  HIT:    3627530  MISS:     940233
L2C WRITEBACK ACCESS:    2039227  HIT:    2021971  MISS:      17256
L2C PREFETCH  REQUESTED:     842675  ISSUED:     842675  USEFUL:     203242  USELESS:     736697
L2C TOTAL MSHR MERGED:       7529
L2C LOAD MSHR MERGED:        895
L2C RFO MSHR MERGED:          0
L2C PREFETCH MSHR MERGED:       6634
L2C WRITEBACK MSHR MERGED:          0
L2C TOTAL ACCESSES:   14913069 HITS:   11158581 MISSES:    3754488
L2C LOAD ACCESSES:    7419096 HITS:    5098930 MISSES:    2320166
L2C RFO ACCESSES:     878814 HITS:     410008 MISSES:     468806
L2C PREFETCH ACCESSES:    4575932 HITS:    3627672 MISSES:     948260
L2C WRITEBACK ACCESSES:    2039227 HITS:    2021971 MISSES:      17256
L2C RQ ACCESS:    8297913
L2C RQ TO_CACHE:    8297606
L2C RQ MERGED:          0
L2C RQ FORWARD:          0
L2C WQ ACCESS:    2039227
L2C WQ TO_CACHE:    2039227
L2C WQ MERGED:          0
L2C WQ FORWARD:        449
LLC TOTAL     ACCESS:    4609824  HIT:    3964262  MISS:     645562
LLC LOAD      ACCESS:    2319258  HIT:    2102167  MISS:     217091
LLC RFO       ACCESS:     468796  HIT:     382662  MISS:      86134
LLC PREFETCH  ACCESS:     941480  HIT:     640017  MISS:     301463
LLC WRITEBACK ACCESS:     880290  HIT:     839416  MISS:      40874
LLC PREFETCH  REQUESTED:          0  ISSUED:          0  USEFUL:      17123  USELESS:     285123
LLC TOTAL MSHR MERGED:        129
LLC LOAD MSHR MERGED:         41
LLC RFO MSHR MERGED:          0
LLC PREFETCH MSHR MERGED:         88
LLC WRITEBACK MSHR MERGED:          0
LLC TOTAL ACCESSES:    4609987 HITS:    3964296 MISSES:     645691
LLC LOAD ACCESSES:    2319271 HITS:    2102180 MISSES:     217091
LLC RFO ACCESSES:     468806 HITS:     382672 MISSES:      86134
LLC PREFETCH ACCESSES:     941620 HITS:     640028 MISSES:     301592
LLC WRITEBACK ACCESSES:     880290 HITS:     839416 MISSES:      40874
LLC 0 RQ ACCESS:    2788077
LLC 0 RQ TO_CACHE:    2788054
LLC 0 RQ MERGED:          0
LLC 0 RQ FORWARD:          0
LLC WQ ACCESS:     880290
LLC WQ TO_CACHE:     880290
LLC WQ MERGED:          0
LLC WQ FORWARD:         34
Major fault: 0 Minor fault: 12862
CPU 0 L1D next line prefetcher final stats
CPU 0 L2C PC-based stride prefetcher final stats
All Misses: 758666
All Hits: 4668164
SD Algo Stats - Switches: 0 SRR-Repls: 253303 BRR-Repls: 0

DRAM Statistics
 CHANNEL 0
 RQ ROW_BUFFER_HIT:     118145  ROW_BUFFER_MISS:     485109
 DBUS_CONGESTED:     402487
 WQ ROW_BUFFER_HIT:      22081  ROW_BUFFER_MISS:     211910  FULL:          0

 AVG_CONGESTED_CYCLE: 13
LOADS RETIRED: 136549171
INSTR RETIRED: 500000000
