
*** ChampSim Multicore Out-of-Order Simulator ***

Warmup Instructions: 100000000
Simulation Instructions: 500000000
Number of CPUs: 1
LLC sets: 2048
LLC ways: 16
Clean RRIP Policies: 2000011120000111 Dirty RRIP Policies: 2000112120001121 PSEL Width: 10 Track Set: 4294967295 PSEL Mask: 1 Demote Mask: 1012141410121414DS Algo: 0Window size: 0
Off-chip DRAM Size: 4096 MB Channels: 1 Width: 64-bit Data Rate: 1600 MT/s

CPU 0 runs /mnt/beegfs/iconst01/spec2017/Gcc.trace.gz
NOT SORTED
TRACE STRING: /mnt/beegfs/iconst01/spec2017/Gcc.trace.gz
SORTED
TRACE STRING: /mnt/beegfs/iconst01/spec2017/Gcc.trace.gz
INITIAL
TRACE STRING: /mnt/beegfs/iconst01/spec2017/Gcc.trace.gz

champsim_seed used: 269

CPU 0 L1D next line prefetcher
CPU 0 L2C IP-based stride prefetcher
Initialize DRRIP state
Assign rand_sets[0]: 454  LLC: 2048
rand_sets[0]: 454
Assign rand_sets[1]: 1662  LLC: 2048
rand_sets[1]: 1662
Assign rand_sets[2]: 1921  LLC: 2048
rand_sets[2]: 1921
Assign rand_sets[3]: 1131  LLC: 2048
rand_sets[3]: 1131
Assign rand_sets[4]: 331  LLC: 2048
rand_sets[4]: 331
Assign rand_sets[5]: 1531  LLC: 2048
rand_sets[5]: 1531
Assign rand_sets[6]: 482  LLC: 2048
rand_sets[6]: 482
Assign rand_sets[7]: 1275  LLC: 2048
rand_sets[7]: 1275
Assign rand_sets[8]: 1876  LLC: 2048
rand_sets[8]: 1876
Assign rand_sets[9]: 2038  LLC: 2048
rand_sets[9]: 2038
Assign rand_sets[10]: 701  LLC: 2048
rand_sets[10]: 701
Assign rand_sets[11]: 479  LLC: 2048
rand_sets[11]: 479
Assign rand_sets[12]: 892  LLC: 2048
rand_sets[12]: 892
Assign rand_sets[13]: 1820  LLC: 2048
rand_sets[13]: 1820
Assign rand_sets[14]: 1505  LLC: 2048
rand_sets[14]: 1505
Assign rand_sets[15]: 1159  LLC: 2048
rand_sets[15]: 1159
Assign rand_sets[16]: 513  LLC: 2048
rand_sets[16]: 513
Assign rand_sets[17]: 703  LLC: 2048
rand_sets[17]: 703
Assign rand_sets[18]: 561  LLC: 2048
rand_sets[18]: 561
Assign rand_sets[19]: 990  LLC: 2048
rand_sets[19]: 990
Assign rand_sets[20]: 342  LLC: 2048
rand_sets[20]: 342
Assign rand_sets[21]: 882  LLC: 2048
rand_sets[21]: 882
Assign rand_sets[22]: 15  LLC: 2048
rand_sets[22]: 15
Assign rand_sets[23]: 71  LLC: 2048
rand_sets[23]: 71
Assign rand_sets[24]: 1127  LLC: 2048
rand_sets[24]: 1127
Assign rand_sets[25]: 1382  LLC: 2048
rand_sets[25]: 1382
Assign rand_sets[26]: 647  LLC: 2048
rand_sets[26]: 647
Assign rand_sets[27]: 857  LLC: 2048
rand_sets[27]: 857
Assign rand_sets[28]: 1450  LLC: 2048
rand_sets[28]: 1450
Assign rand_sets[29]: 1160  LLC: 2048
rand_sets[29]: 1160
Assign rand_sets[30]: 1852  LLC: 2048
rand_sets[30]: 1852
Assign rand_sets[31]: 1881  LLC: 2048
rand_sets[31]: 1881
Assign rand_sets[32]: 1770  LLC: 2048
rand_sets[32]: 1770
Assign rand_sets[33]: 1622  LLC: 2048
rand_sets[33]: 1622
Assign rand_sets[34]: 275  LLC: 2048
rand_sets[34]: 275
Assign rand_sets[35]: 635  LLC: 2048
rand_sets[35]: 635
Assign rand_sets[36]: 466  LLC: 2048
rand_sets[36]: 466
Assign rand_sets[37]: 1413  LLC: 2048
rand_sets[37]: 1413
Assign rand_sets[38]: 417  LLC: 2048
rand_sets[38]: 417
Assign rand_sets[39]: 472  LLC: 2048
rand_sets[39]: 472
Assign rand_sets[40]: 1340  LLC: 2048
rand_sets[40]: 1340
Assign rand_sets[41]: 852  LLC: 2048
rand_sets[41]: 852
Assign rand_sets[42]: 1365  LLC: 2048
rand_sets[42]: 1365
Assign rand_sets[43]: 47  LLC: 2048
rand_sets[43]: 47
Assign rand_sets[44]: 823  LLC: 2048
rand_sets[44]: 823
Assign rand_sets[45]: 686  LLC: 2048
rand_sets[45]: 686
Assign rand_sets[46]: 1637  LLC: 2048
rand_sets[46]: 1637
Assign rand_sets[47]: 1115  LLC: 2048
rand_sets[47]: 1115
Assign rand_sets[48]: 986  LLC: 2048
rand_sets[48]: 986
Assign rand_sets[49]: 258  LLC: 2048
rand_sets[49]: 258
Assign rand_sets[50]: 633  LLC: 2048
rand_sets[50]: 633
Assign rand_sets[51]: 920  LLC: 2048
rand_sets[51]: 920
Assign rand_sets[52]: 204  LLC: 2048
rand_sets[52]: 204
Assign rand_sets[53]: 227  LLC: 2048
rand_sets[53]: 227
Assign rand_sets[54]: 1818  LLC: 2048
rand_sets[54]: 1818
Assign rand_sets[55]: 886  LLC: 2048
rand_sets[55]: 886
Assign rand_sets[56]: 1422  LLC: 2048
rand_sets[56]: 1422
Assign rand_sets[57]: 607  LLC: 2048
rand_sets[57]: 607
Assign rand_sets[58]: 217  LLC: 2048
rand_sets[58]: 217
Assign rand_sets[59]: 1945  LLC: 2048
rand_sets[59]: 1945
Assign rand_sets[60]: 143  LLC: 2048
rand_sets[60]: 143
Assign rand_sets[61]: 1311  LLC: 2048
rand_sets[61]: 1311
Assign rand_sets[62]: 319  LLC: 2048
rand_sets[62]: 319
Assign rand_sets[63]: 1846  LLC: 2048
rand_sets[63]: 1846
 CLEAN-RRIP-POLICY-1: 2-0-0-0-0-1-1-1- CLEAN-RRIP-POLICY-2: 2-0-0-0-0-1-1-1-
 DIRTY-RRIP-POLICY-1: 2-0-0-0-1-1-2-1- DIRTY-RRIP-POLICY-2: 2-0-0-0-1-1-2-1-
 PSEL width: 10
Heartbeat CPU 0 instructions: 10000001 cycles: 7315914 heartbeat IPC: 1.36688 cumulative IPC: 1.36688 (Simulation time: 0 hr 0 min 15 sec) 
Heartbeat CPU 0 instructions: 20000000 cycles: 14307829 heartbeat IPC: 1.43022 cumulative IPC: 1.39784 (Simulation time: 0 hr 0 min 30 sec) 
Heartbeat CPU 0 instructions: 30000001 cycles: 21021609 heartbeat IPC: 1.48947 cumulative IPC: 1.4271 (Simulation time: 0 hr 0 min 46 sec) 
Heartbeat CPU 0 instructions: 40000000 cycles: 27482831 heartbeat IPC: 1.54769 cumulative IPC: 1.45545 (Simulation time: 0 hr 1 min 3 sec) 
Heartbeat CPU 0 instructions: 50000001 cycles: 33585075 heartbeat IPC: 1.63874 cumulative IPC: 1.48876 (Simulation time: 0 hr 1 min 19 sec) 
Heartbeat CPU 0 instructions: 60000000 cycles: 40066586 heartbeat IPC: 1.54285 cumulative IPC: 1.49751 (Simulation time: 0 hr 1 min 35 sec) 
Heartbeat CPU 0 instructions: 70000000 cycles: 47106267 heartbeat IPC: 1.42052 cumulative IPC: 1.486 (Simulation time: 0 hr 1 min 50 sec) 
Heartbeat CPU 0 instructions: 80000000 cycles: 54197043 heartbeat IPC: 1.41028 cumulative IPC: 1.4761 (Simulation time: 0 hr 2 min 5 sec) 
Heartbeat CPU 0 instructions: 90000003 cycles: 61202363 heartbeat IPC: 1.42749 cumulative IPC: 1.47053 (Simulation time: 0 hr 2 min 21 sec) 
Heartbeat CPU 0 instructions: 100000000 cycles: 68370751 heartbeat IPC: 1.39501 cumulative IPC: 1.46261 (Simulation time: 0 hr 2 min 36 sec) 

Warmup complete CPU 0 instructions: 100000004 cycles: 68370752 (Simulation time: 0 hr 2 min 36 sec) 

Heartbeat CPU 0 instructions: 110000003 cycles: 96321781 heartbeat IPC: 0.357769 cumulative IPC: 0.357769 (Simulation time: 0 hr 3 min 5 sec) 
Heartbeat CPU 0 instructions: 120000000 cycles: 123954004 heartbeat IPC: 0.361896 cumulative IPC: 0.359821 (Simulation time: 0 hr 3 min 35 sec) 
Heartbeat CPU 0 instructions: 130000000 cycles: 149153267 heartbeat IPC: 0.396837 cumulative IPC: 0.371367 (Simulation time: 0 hr 4 min 5 sec) 
Heartbeat CPU 0 instructions: 140000000 cycles: 179003561 heartbeat IPC: 0.335005 cumulative IPC: 0.361556 (Simulation time: 0 hr 4 min 34 sec) 
Heartbeat CPU 0 instructions: 150000000 cycles: 209162351 heartbeat IPC: 0.331578 cumulative IPC: 0.355135 (Simulation time: 0 hr 5 min 4 sec) 
Heartbeat CPU 0 instructions: 160000000 cycles: 236714125 heartbeat IPC: 0.362953 cumulative IPC: 0.356414 (Simulation time: 0 hr 5 min 32 sec) 
Heartbeat CPU 0 instructions: 170000001 cycles: 264994345 heartbeat IPC: 0.353604 cumulative IPC: 0.35601 (Simulation time: 0 hr 6 min 4 sec) 
Heartbeat CPU 0 instructions: 180000000 cycles: 293640673 heartbeat IPC: 0.349085 cumulative IPC: 0.35513 (Simulation time: 0 hr 6 min 34 sec) 
Heartbeat CPU 0 instructions: 190000002 cycles: 321939960 heartbeat IPC: 0.353366 cumulative IPC: 0.354933 (Simulation time: 0 hr 7 min 3 sec) 
Heartbeat CPU 0 instructions: 200000000 cycles: 350439667 heartbeat IPC: 0.350881 cumulative IPC: 0.354523 (Simulation time: 0 hr 7 min 34 sec) 
Heartbeat CPU 0 instructions: 210000002 cycles: 378509548 heartbeat IPC: 0.356254 cumulative IPC: 0.35468 (Simulation time: 0 hr 8 min 4 sec) 
Heartbeat CPU 0 instructions: 220000000 cycles: 407921014 heartbeat IPC: 0.340003 cumulative IPC: 0.353409 (Simulation time: 0 hr 8 min 32 sec) 
Heartbeat CPU 0 instructions: 230000000 cycles: 435744564 heartbeat IPC: 0.359408 cumulative IPC: 0.353863 (Simulation time: 0 hr 9 min 1 sec) 
Heartbeat CPU 0 instructions: 240000000 cycles: 461925666 heartbeat IPC: 0.381955 cumulative IPC: 0.355732 (Simulation time: 0 hr 9 min 29 sec) 
Heartbeat CPU 0 instructions: 250000000 cycles: 492278783 heartbeat IPC: 0.329455 cumulative IPC: 0.35385 (Simulation time: 0 hr 10 min 0 sec) 
Heartbeat CPU 0 instructions: 260000000 cycles: 519613950 heartbeat IPC: 0.365829 cumulative IPC: 0.354576 (Simulation time: 0 hr 10 min 30 sec) 
Heartbeat CPU 0 instructions: 270000003 cycles: 548329841 heartbeat IPC: 0.348239 cumulative IPC: 0.354197 (Simulation time: 0 hr 11 min 0 sec) 
Heartbeat CPU 0 instructions: 280000000 cycles: 576725732 heartbeat IPC: 0.352164 cumulative IPC: 0.354083 (Simulation time: 0 hr 11 min 31 sec) 
Heartbeat CPU 0 instructions: 290000000 cycles: 605775573 heartbeat IPC: 0.344236 cumulative IPC: 0.353551 (Simulation time: 0 hr 12 min 2 sec) 
Heartbeat CPU 0 instructions: 300000000 cycles: 636052486 heartbeat IPC: 0.330285 cumulative IPC: 0.35231 (Simulation time: 0 hr 12 min 31 sec) 
Heartbeat CPU 0 instructions: 310000001 cycles: 665648852 heartbeat IPC: 0.337879 cumulative IPC: 0.351595 (Simulation time: 0 hr 13 min 1 sec) 
Heartbeat CPU 0 instructions: 320000000 cycles: 694170364 heartbeat IPC: 0.350613 cumulative IPC: 0.35155 (Simulation time: 0 hr 13 min 30 sec) 
Heartbeat CPU 0 instructions: 330000000 cycles: 723052889 heartbeat IPC: 0.34623 cumulative IPC: 0.351316 (Simulation time: 0 hr 13 min 59 sec) 
Heartbeat CPU 0 instructions: 340000000 cycles: 752569625 heartbeat IPC: 0.338791 cumulative IPC: 0.350775 (Simulation time: 0 hr 14 min 29 sec) 
Heartbeat CPU 0 instructions: 350000003 cycles: 779793206 heartbeat IPC: 0.367329 cumulative IPC: 0.351409 (Simulation time: 0 hr 14 min 58 sec) 
Heartbeat CPU 0 instructions: 360000000 cycles: 808193320 heartbeat IPC: 0.352111 cumulative IPC: 0.351436 (Simulation time: 0 hr 15 min 27 sec) 
Heartbeat CPU 0 instructions: 370000000 cycles: 836598077 heartbeat IPC: 0.352054 cumulative IPC: 0.351458 (Simulation time: 0 hr 15 min 55 sec) 
Heartbeat CPU 0 instructions: 380000000 cycles: 865330117 heartbeat IPC: 0.348044 cumulative IPC: 0.351335 (Simulation time: 0 hr 16 min 23 sec) 
Heartbeat CPU 0 instructions: 390000001 cycles: 893147022 heartbeat IPC: 0.359494 cumulative IPC: 0.351611 (Simulation time: 0 hr 16 min 52 sec) 
Heartbeat CPU 0 instructions: 400000000 cycles: 921997154 heartbeat IPC: 0.346619 cumulative IPC: 0.351442 (Simulation time: 0 hr 17 min 20 sec) 
Heartbeat CPU 0 instructions: 410000001 cycles: 949406560 heartbeat IPC: 0.364838 cumulative IPC: 0.351859 (Simulation time: 0 hr 17 min 48 sec) 
Heartbeat CPU 0 instructions: 420000000 cycles: 976828840 heartbeat IPC: 0.364667 cumulative IPC: 0.352245 (Simulation time: 0 hr 18 min 16 sec) 
Heartbeat CPU 0 instructions: 430000002 cycles: 1004707253 heartbeat IPC: 0.358701 cumulative IPC: 0.352437 (Simulation time: 0 hr 18 min 44 sec) 
Heartbeat CPU 0 instructions: 440000000 cycles: 1034594011 heartbeat IPC: 0.334596 cumulative IPC: 0.351886 (Simulation time: 0 hr 19 min 13 sec) 
Heartbeat CPU 0 instructions: 450000002 cycles: 1064086393 heartbeat IPC: 0.339071 cumulative IPC: 0.351506 (Simulation time: 0 hr 19 min 41 sec) 
Heartbeat CPU 0 instructions: 460000000 cycles: 1091927539 heartbeat IPC: 0.359181 cumulative IPC: 0.351715 (Simulation time: 0 hr 20 min 10 sec) 
Heartbeat CPU 0 instructions: 470000000 cycles: 1119686205 heartbeat IPC: 0.360248 cumulative IPC: 0.35194 (Simulation time: 0 hr 20 min 38 sec) 
Heartbeat CPU 0 instructions: 480000000 cycles: 1147689770 heartbeat IPC: 0.357097 cumulative IPC: 0.352074 (Simulation time: 0 hr 21 min 5 sec) 
Heartbeat CPU 0 instructions: 490000000 cycles: 1175382128 heartbeat IPC: 0.36111 cumulative IPC: 0.3523 (Simulation time: 0 hr 21 min 32 sec) 
Heartbeat CPU 0 instructions: 500000000 cycles: 1203831463 heartbeat IPC: 0.351502 cumulative IPC: 0.35228 (Simulation time: 0 hr 21 min 59 sec) 
Heartbeat CPU 0 instructions: 510000000 cycles: 1239139523 heartbeat IPC: 0.283221 cumulative IPC: 0.350197 (Simulation time: 0 hr 22 min 30 sec) 
Heartbeat CPU 0 instructions: 520000000 cycles: 1267338512 heartbeat IPC: 0.354623 cumulative IPC: 0.350301 (Simulation time: 0 hr 22 min 58 sec) 
Heartbeat CPU 0 instructions: 530000001 cycles: 1296936231 heartbeat IPC: 0.337864 cumulative IPC: 0.350002 (Simulation time: 0 hr 23 min 26 sec) 
Heartbeat CPU 0 instructions: 540000000 cycles: 1325217524 heartbeat IPC: 0.353591 cumulative IPC: 0.350082 (Simulation time: 0 hr 23 min 55 sec) 
Heartbeat CPU 0 instructions: 550000001 cycles: 1354571958 heartbeat IPC: 0.340664 cumulative IPC: 0.349867 (Simulation time: 0 hr 24 min 24 sec) 
Heartbeat CPU 0 instructions: 560000000 cycles: 1380149472 heartbeat IPC: 0.390968 cumulative IPC: 0.350669 (Simulation time: 0 hr 24 min 52 sec) 
Heartbeat CPU 0 instructions: 570000000 cycles: 1410027366 heartbeat IPC: 0.334696 cumulative IPC: 0.350313 (Simulation time: 0 hr 25 min 21 sec) 
Heartbeat CPU 0 instructions: 580000000 cycles: 1438238543 heartbeat IPC: 0.354469 cumulative IPC: 0.350399 (Simulation time: 0 hr 25 min 49 sec) 
Heartbeat CPU 0 instructions: 590000001 cycles: 1463223298 heartbeat IPC: 0.400244 cumulative IPC: 0.351292 (Simulation time: 0 hr 26 min 16 sec) 
Heartbeat CPU 0 instructions: 600000000 cycles: 1489617753 heartbeat IPC: 0.378867 cumulative IPC: 0.351804 (Simulation time: 0 hr 26 min 43 sec) 
Finished CPU 0 instructions: 500000000 cycles: 1421247023 cumulative IPC: 0.351804 (Simulation time: 0 hr 26 min 43 sec) 

CPU 0 Branch Prediction Accuracy: 86.4311% MPKI: 26.2662
Number of Branches: 96788573 Number of Mispredictions: 13133102
Number of LOAD Instructions: 164682285
Number of LOAD Instructions (ROI): 164682285
Number of STORE Instructions: 78194750
Number of STORE Instructions (ROI): 78194750
Total Destination Memory Operands: 83268534
Total Destination Memory Operands (ROI): 83268534
Total Source Memory Operands: 164712438
Total Source Memory Operands (ROI): 164712438
Number of DEPENDED LOADS: 7067359
Number of DEPENDED LOADS (ROI): 7067359
Number of SQ_ADDED: 83268522
Number of SQ_ADDED (ROI): 83268522
Number of LQ_ADDED: 236729082
Number of LQ_ADDED (ROI): 236729082
Number of Instructions read from trace: 600000066

ChampSim completed all CPUs

Region of Interest Statistics

CPU 0 cumulative IPC: 0.351804 instructions: 500000000 cycles: 1421247023
ITLB TOTAL     ACCESS:  100508542  HIT:  100304096  MISS:     204446
ITLB LOAD      ACCESS:  100508542  HIT:  100304096  MISS:     204446
ITLB RFO       ACCESS:          0  HIT:          0  MISS:          0
ITLB PREFETCH  ACCESS:          0  HIT:          0  MISS:          0
ITLB WRITEBACK ACCESS:          0  HIT:          0  MISS:          0
ITLB PREFETCH  REQUESTED:          0  ISSUED:          0  USEFUL:          0  USELESS:          0
ITLB TOTAL MSHR MERGED:     172424
ITLB LOAD MSHR MERGED:     172424
ITLB RFO MSHR MERGED:          0
ITLB PREFETCH MSHR MERGED:          0
ITLB WRITEBACK MSHR MERGED:          0
ITLB TOTAL ACCESSES:  100680966 HITS:  100304096 MISSES:     376870
ITLB LOAD ACCESSES:  100680966 HITS:  100304096 MISSES:     376870
ITLB RFO ACCESSES:          0 HITS:          0 MISSES:          0
ITLB PREFETCH ACCESSES:          0 HITS:          0 MISSES:          0
ITLB WRITEBACK ACCESSES:          0 HITS:          0 MISSES:          0
ITLB RQ ACCESS:  500000057
ITLB RQ TO_CACHE:  100680966
ITLB RQ MERGED:  399319091
ITLB RQ FORWARD:          0
ITLB WQ ACCESS:          0
ITLB WQ TO_CACHE:          0
ITLB WQ MERGED:          0
ITLB WQ FORWARD:          0
DTLB TOTAL     ACCESS:  165329205  HIT:  164694861  MISS:     634344
DTLB LOAD      ACCESS:  106287888  HIT:  105717884  MISS:     570004
DTLB RFO       ACCESS:   59041317  HIT:   58976977  MISS:      64340
DTLB PREFETCH  ACCESS:          0  HIT:          0  MISS:          0
DTLB WRITEBACK ACCESS:          0  HIT:          0  MISS:          0
DTLB PREFETCH  REQUESTED:          0  ISSUED:          0  USEFUL:          0  USELESS:          0
DTLB TOTAL MSHR MERGED:      99682
DTLB LOAD MSHR MERGED:      59391
DTLB RFO MSHR MERGED:      40291
DTLB PREFETCH MSHR MERGED:          0
DTLB WRITEBACK MSHR MERGED:          0
DTLB TOTAL ACCESSES:  165428887 HITS:  164694861 MISSES:     734026
DTLB LOAD ACCESSES:  106347279 HITS:  105717884 MISSES:     629395
DTLB RFO ACCESSES:   59081608 HITS:   58976977 MISSES:     104631
DTLB PREFETCH ACCESSES:          0 HITS:          0 MISSES:          0
DTLB WRITEBACK ACCESSES:          0 HITS:          0 MISSES:          0
DTLB RQ ACCESS:  200303609
DTLB RQ TO_CACHE:  165428887
DTLB RQ MERGED:   34874722
DTLB RQ FORWARD:          0
DTLB WQ ACCESS:          0
DTLB WQ TO_CACHE:          0
DTLB WQ MERGED:          0
DTLB WQ FORWARD:          0
L1D TOTAL     ACCESS:  281787591  HIT:  273878286  MISS:    7909305
L1D LOAD      ACCESS:  110418787  HIT:  107144085  MISS:    3274702
L1D RFO       ACCESS:   67065939  HIT:   66172848  MISS:     893091
L1D PREFETCH  ACCESS:  104302865  HIT:  100561353  MISS:    3741512
L1D WRITEBACK ACCESS:          0  HIT:          0  MISS:          0
L1D PREFETCH  REQUESTED:  110810793  ISSUED:  109111492  USEFUL:    1662474  USELESS:    2079002
L1D TOTAL MSHR MERGED:    2904614
L1D LOAD MSHR MERGED:     486259
L1D RFO MSHR MERGED:    1921827
L1D PREFETCH MSHR MERGED:     496528
L1D WRITEBACK MSHR MERGED:          0
L1D TOTAL ACCESSES:  284720214 HITS:  273906295 MISSES:   10813919
L1D LOAD ACCESSES:  110812782 HITS:  107146074 MISSES:    3666708
L1D RFO ACCESSES:   68973462 HITS:   66172848 MISSES:    2800614
L1D PREFETCH ACCESSES:  104933970 HITS:  100587373 MISSES:    4346597
L1D WRITEBACK ACCESSES:          0 HITS:          0 MISSES:          0
L1D RQ ACCESS:  130751006
L1D RQ TO_CACHE:  110810796
L1D RQ MERGED:   19938221
L1D RQ FORWARD:          0
L1D WQ ACCESS:   69552603
L1D WQ TO_CACHE:   68973463
L1D WQ MERGED:     579140
L1D WQ FORWARD:      28009
L1I TOTAL     ACCESS:  126556418  HIT:  122317866  MISS:    4238552
L1I LOAD      ACCESS:  126556418  HIT:  122317866  MISS:    4238552
L1I RFO       ACCESS:          0  HIT:          0  MISS:          0
L1I PREFETCH  ACCESS:          0  HIT:          0  MISS:          0
L1I WRITEBACK ACCESS:          0  HIT:          0  MISS:          0
L1I PREFETCH  REQUESTED:          0  ISSUED:          0  USEFUL:          0  USELESS:          0
L1I TOTAL MSHR MERGED:    1834988
L1I LOAD MSHR MERGED:    1834988
L1I RFO MSHR MERGED:          0
L1I PREFETCH MSHR MERGED:          0
L1I WRITEBACK MSHR MERGED:          0
L1I TOTAL ACCESSES:  128391409 HITS:  122317866 MISSES:    6073543
L1I LOAD ACCESSES:  128391409 HITS:  122317866 MISSES:    6073543
L1I RFO ACCESSES:          0 HITS:          0 MISSES:          0
L1I PREFETCH ACCESSES:          0 HITS:          0 MISSES:          0
L1I WRITEBACK ACCESSES:          0 HITS:          0 MISSES:          0
L1I RQ ACCESS:  500000057
L1I RQ TO_CACHE:  128391409
L1I RQ MERGED:  371608648
L1I RQ FORWARD:          0
L1I WQ ACCESS:          0
L1I WQ TO_CACHE:          0
L1I WQ MERGED:          0
L1I WQ FORWARD:          0
L2C TOTAL     ACCESS:   14902644  HIT:   11156301  MISS:    3746343
L2C LOAD      ACCESS:    7418791  HIT:    5098100  MISS:    2320691
L2C RFO       ACCESS:     878685  HIT:     409909  MISS:     468776
L2C PREFETCH  ACCESS:    4565943  HIT:    3626328  MISS:     939615
L2C WRITEBACK ACCESS:    2039225  HIT:    2021964  MISS:      17261
L2C PREFETCH  REQUESTED:     842626  ISSUED:     842626  USEFUL:     202580  USELESS:     736741
L2C TOTAL MSHR MERGED:       9393
L2C LOAD MSHR MERGED:       1507
L2C RFO MSHR MERGED:          0
L2C PREFETCH MSHR MERGED:       7886
L2C WRITEBACK MSHR MERGED:          0
L2C TOTAL ACCESSES:   14913030 HITS:   11156759 MISSES:    3756271
L2C LOAD ACCESSES:    7419001 HITS:    5098310 MISSES:    2320691
L2C RFO ACCESSES:     878787 HITS:     410011 MISSES:     468776
L2C PREFETCH ACCESSES:    4576017 HITS:    3626474 MISSES:     949543
L2C WRITEBACK ACCESSES:    2039225 HITS:    2021964 MISSES:      17261
L2C RQ ACCESS:    8297791
L2C RQ TO_CACHE:    8297479
L2C RQ MERGED:          0
L2C RQ FORWARD:          0
L2C WQ ACCESS:    2039225
L2C WQ TO_CACHE:    2039225
L2C WQ MERGED:          0
L2C WQ FORWARD:        458
LLC TOTAL     ACCESS:    4609683  HIT:    3847098  MISS:     762585
LLC LOAD      ACCESS:    2319171  HIT:    1997417  MISS:     321754
LLC RFO       ACCESS:     468765  HIT:     298293  MISS:     170472
LLC PREFETCH  ACCESS:     941505  HIT:     702947  MISS:     238558
LLC WRITEBACK ACCESS:     880242  HIT:     848441  MISS:      31801
LLC PREFETCH  REQUESTED:          0  ISSUED:          0  USEFUL:      55604  USELESS:     182054
LLC TOTAL MSHR MERGED:        133
LLC LOAD MSHR MERGED:         40
LLC RFO MSHR MERGED:          0
LLC PREFETCH MSHR MERGED:         93
LLC WRITEBACK MSHR MERGED:          0
LLC TOTAL ACCESSES:    4609851 HITS:    3847133 MISSES:     762718
LLC LOAD ACCESSES:    2319184 HITS:    1997430 MISSES:     321754
LLC RFO ACCESSES:     468776 HITS:     298304 MISSES:     170472
LLC PREFETCH ACCESSES:     941649 HITS:     702958 MISSES:     238691
LLC WRITEBACK ACCESSES:     880242 HITS:     848441 MISSES:      31801
LLC 0 RQ ACCESS:    2787960
LLC 0 RQ TO_CACHE:    2787936
LLC 0 RQ MERGED:          0
LLC 0 RQ FORWARD:          0
LLC WQ ACCESS:     880242
LLC WQ TO_CACHE:     880242
LLC WQ MERGED:          0
LLC WQ FORWARD:         35
Major fault: 0 Minor fault: 12862
CPU 0 L1D next line prefetcher final stats
CPU 0 L2C PC-based stride prefetcher final stats
All Misses: 894194
All Hits: 4532495
SD Algo Stats - Switches: 0 SRR-Repls: 375420 BRR-Repls: 0

DRAM Statistics
 CHANNEL 0
 RQ ROW_BUFFER_HIT:     179528  ROW_BUFFER_MISS:     547145
 DBUS_CONGESTED:     582209
 WQ ROW_BUFFER_HIT:      52080  ROW_BUFFER_MISS:     345154  FULL:          0

 AVG_CONGESTED_CYCLE: 14
LOADS RETIRED: 136549171
INSTR RETIRED: 500000000
