
*** ChampSim Multicore Out-of-Order Simulator ***

Warmup Instructions: 100000000
Simulation Instructions: 500000000
Number of CPUs: 1
LLC sets: 2048
LLC ways: 16
Clean RRIP Policies: 1211030112110301 Dirty RRIP Policies: 2211130122111301 PSEL Width: 10 Track Set: 4294967295 PSEL Mask: 1 Demote Mask: 3040201030402010DS Algo: 0Window size: 0
Off-chip DRAM Size: 4096 MB Channels: 1 Width: 64-bit Data Rate: 1600 MT/s

CPU 0 runs /mnt/beegfs/iconst01/spec2017/Gcc.trace.gz
NOT SORTED
TRACE STRING: /mnt/beegfs/iconst01/spec2017/Gcc.trace.gz
SORTED
TRACE STRING: /mnt/beegfs/iconst01/spec2017/Gcc.trace.gz
INITIAL
TRACE STRING: /mnt/beegfs/iconst01/spec2017/Gcc.trace.gz

champsim_seed used: 269

CPU 0 L1D next line prefetcher
CPU 0 L2C IP-based stride prefetcher
Initialize DRRIP state
Assign rand_sets[0]: 454  LLC: 2048
rand_sets[0]: 454
Assign rand_sets[1]: 1662  LLC: 2048
rand_sets[1]: 1662
Assign rand_sets[2]: 1921  LLC: 2048
rand_sets[2]: 1921
Assign rand_sets[3]: 1131  LLC: 2048
rand_sets[3]: 1131
Assign rand_sets[4]: 331  LLC: 2048
rand_sets[4]: 331
Assign rand_sets[5]: 1531  LLC: 2048
rand_sets[5]: 1531
Assign rand_sets[6]: 482  LLC: 2048
rand_sets[6]: 482
Assign rand_sets[7]: 1275  LLC: 2048
rand_sets[7]: 1275
Assign rand_sets[8]: 1876  LLC: 2048
rand_sets[8]: 1876
Assign rand_sets[9]: 2038  LLC: 2048
rand_sets[9]: 2038
Assign rand_sets[10]: 701  LLC: 2048
rand_sets[10]: 701
Assign rand_sets[11]: 479  LLC: 2048
rand_sets[11]: 479
Assign rand_sets[12]: 892  LLC: 2048
rand_sets[12]: 892
Assign rand_sets[13]: 1820  LLC: 2048
rand_sets[13]: 1820
Assign rand_sets[14]: 1505  LLC: 2048
rand_sets[14]: 1505
Assign rand_sets[15]: 1159  LLC: 2048
rand_sets[15]: 1159
Assign rand_sets[16]: 513  LLC: 2048
rand_sets[16]: 513
Assign rand_sets[17]: 703  LLC: 2048
rand_sets[17]: 703
Assign rand_sets[18]: 561  LLC: 2048
rand_sets[18]: 561
Assign rand_sets[19]: 990  LLC: 2048
rand_sets[19]: 990
Assign rand_sets[20]: 342  LLC: 2048
rand_sets[20]: 342
Assign rand_sets[21]: 882  LLC: 2048
rand_sets[21]: 882
Assign rand_sets[22]: 15  LLC: 2048
rand_sets[22]: 15
Assign rand_sets[23]: 71  LLC: 2048
rand_sets[23]: 71
Assign rand_sets[24]: 1127  LLC: 2048
rand_sets[24]: 1127
Assign rand_sets[25]: 1382  LLC: 2048
rand_sets[25]: 1382
Assign rand_sets[26]: 647  LLC: 2048
rand_sets[26]: 647
Assign rand_sets[27]: 857  LLC: 2048
rand_sets[27]: 857
Assign rand_sets[28]: 1450  LLC: 2048
rand_sets[28]: 1450
Assign rand_sets[29]: 1160  LLC: 2048
rand_sets[29]: 1160
Assign rand_sets[30]: 1852  LLC: 2048
rand_sets[30]: 1852
Assign rand_sets[31]: 1881  LLC: 2048
rand_sets[31]: 1881
Assign rand_sets[32]: 1770  LLC: 2048
rand_sets[32]: 1770
Assign rand_sets[33]: 1622  LLC: 2048
rand_sets[33]: 1622
Assign rand_sets[34]: 275  LLC: 2048
rand_sets[34]: 275
Assign rand_sets[35]: 635  LLC: 2048
rand_sets[35]: 635
Assign rand_sets[36]: 466  LLC: 2048
rand_sets[36]: 466
Assign rand_sets[37]: 1413  LLC: 2048
rand_sets[37]: 1413
Assign rand_sets[38]: 417  LLC: 2048
rand_sets[38]: 417
Assign rand_sets[39]: 472  LLC: 2048
rand_sets[39]: 472
Assign rand_sets[40]: 1340  LLC: 2048
rand_sets[40]: 1340
Assign rand_sets[41]: 852  LLC: 2048
rand_sets[41]: 852
Assign rand_sets[42]: 1365  LLC: 2048
rand_sets[42]: 1365
Assign rand_sets[43]: 47  LLC: 2048
rand_sets[43]: 47
Assign rand_sets[44]: 823  LLC: 2048
rand_sets[44]: 823
Assign rand_sets[45]: 686  LLC: 2048
rand_sets[45]: 686
Assign rand_sets[46]: 1637  LLC: 2048
rand_sets[46]: 1637
Assign rand_sets[47]: 1115  LLC: 2048
rand_sets[47]: 1115
Assign rand_sets[48]: 986  LLC: 2048
rand_sets[48]: 986
Assign rand_sets[49]: 258  LLC: 2048
rand_sets[49]: 258
Assign rand_sets[50]: 633  LLC: 2048
rand_sets[50]: 633
Assign rand_sets[51]: 920  LLC: 2048
rand_sets[51]: 920
Assign rand_sets[52]: 204  LLC: 2048
rand_sets[52]: 204
Assign rand_sets[53]: 227  LLC: 2048
rand_sets[53]: 227
Assign rand_sets[54]: 1818  LLC: 2048
rand_sets[54]: 1818
Assign rand_sets[55]: 886  LLC: 2048
rand_sets[55]: 886
Assign rand_sets[56]: 1422  LLC: 2048
rand_sets[56]: 1422
Assign rand_sets[57]: 607  LLC: 2048
rand_sets[57]: 607
Assign rand_sets[58]: 217  LLC: 2048
rand_sets[58]: 217
Assign rand_sets[59]: 1945  LLC: 2048
rand_sets[59]: 1945
Assign rand_sets[60]: 143  LLC: 2048
rand_sets[60]: 143
Assign rand_sets[61]: 1311  LLC: 2048
rand_sets[61]: 1311
Assign rand_sets[62]: 319  LLC: 2048
rand_sets[62]: 319
Assign rand_sets[63]: 1846  LLC: 2048
rand_sets[63]: 1846
 CLEAN-RRIP-POLICY-1: 1-2-1-1-0-3-0-1- CLEAN-RRIP-POLICY-2: 1-2-1-1-0-3-0-1-
 DIRTY-RRIP-POLICY-1: 2-2-1-1-1-3-0-1- DIRTY-RRIP-POLICY-2: 2-2-1-1-1-3-0-1-
 PSEL width: 10
Heartbeat CPU 0 instructions: 10000001 cycles: 7315906 heartbeat IPC: 1.36688 cumulative IPC: 1.36688 (Simulation time: 0 hr 0 min 13 sec) 
Heartbeat CPU 0 instructions: 20000000 cycles: 14307690 heartbeat IPC: 1.43025 cumulative IPC: 1.39785 (Simulation time: 0 hr 0 min 27 sec) 
Heartbeat CPU 0 instructions: 30000001 cycles: 21020904 heartbeat IPC: 1.4896 cumulative IPC: 1.42715 (Simulation time: 0 hr 0 min 43 sec) 
Heartbeat CPU 0 instructions: 40000000 cycles: 27481827 heartbeat IPC: 1.54777 cumulative IPC: 1.45551 (Simulation time: 0 hr 0 min 58 sec) 
Heartbeat CPU 0 instructions: 50000001 cycles: 33583803 heartbeat IPC: 1.63881 cumulative IPC: 1.48881 (Simulation time: 0 hr 1 min 13 sec) 
Heartbeat CPU 0 instructions: 60000000 cycles: 40065138 heartbeat IPC: 1.54289 cumulative IPC: 1.49756 (Simulation time: 0 hr 1 min 28 sec) 
Heartbeat CPU 0 instructions: 70000000 cycles: 47104811 heartbeat IPC: 1.42052 cumulative IPC: 1.48605 (Simulation time: 0 hr 1 min 42 sec) 
Heartbeat CPU 0 instructions: 80000000 cycles: 54194857 heartbeat IPC: 1.41043 cumulative IPC: 1.47615 (Simulation time: 0 hr 1 min 56 sec) 
Heartbeat CPU 0 instructions: 90000003 cycles: 61199689 heartbeat IPC: 1.42759 cumulative IPC: 1.4706 (Simulation time: 0 hr 2 min 10 sec) 
Heartbeat CPU 0 instructions: 100000000 cycles: 68367485 heartbeat IPC: 1.39513 cumulative IPC: 1.46268 (Simulation time: 0 hr 2 min 24 sec) 

Warmup complete CPU 0 instructions: 100000004 cycles: 68367486 (Simulation time: 0 hr 2 min 24 sec) 

Heartbeat CPU 0 instructions: 110000003 cycles: 96104121 heartbeat IPC: 0.360534 cumulative IPC: 0.360534 (Simulation time: 0 hr 2 min 51 sec) 
Heartbeat CPU 0 instructions: 120000000 cycles: 123609314 heartbeat IPC: 0.363568 cumulative IPC: 0.362044 (Simulation time: 0 hr 3 min 19 sec) 
Heartbeat CPU 0 instructions: 130000000 cycles: 148640146 heartbeat IPC: 0.399507 cumulative IPC: 0.373726 (Simulation time: 0 hr 3 min 46 sec) 
Heartbeat CPU 0 instructions: 140000000 cycles: 178277360 heartbeat IPC: 0.337414 cumulative IPC: 0.363935 (Simulation time: 0 hr 4 min 13 sec) 
Heartbeat CPU 0 instructions: 150000000 cycles: 208193024 heartbeat IPC: 0.334273 cumulative IPC: 0.357588 (Simulation time: 0 hr 4 min 40 sec) 
Heartbeat CPU 0 instructions: 160000000 cycles: 235640949 heartbeat IPC: 0.364326 cumulative IPC: 0.358694 (Simulation time: 0 hr 5 min 6 sec) 
Heartbeat CPU 0 instructions: 170000001 cycles: 263736586 heartbeat IPC: 0.355927 cumulative IPC: 0.358296 (Simulation time: 0 hr 5 min 35 sec) 
Heartbeat CPU 0 instructions: 180000000 cycles: 292263149 heartbeat IPC: 0.35055 cumulative IPC: 0.357309 (Simulation time: 0 hr 6 min 3 sec) 
Heartbeat CPU 0 instructions: 190000002 cycles: 320394406 heartbeat IPC: 0.355477 cumulative IPC: 0.357105 (Simulation time: 0 hr 6 min 30 sec) 
Heartbeat CPU 0 instructions: 200000000 cycles: 348801755 heartbeat IPC: 0.352022 cumulative IPC: 0.35659 (Simulation time: 0 hr 6 min 58 sec) 
Heartbeat CPU 0 instructions: 210000002 cycles: 376757347 heartbeat IPC: 0.35771 cumulative IPC: 0.356691 (Simulation time: 0 hr 7 min 25 sec) 
Heartbeat CPU 0 instructions: 220000000 cycles: 406014001 heartbeat IPC: 0.341803 cumulative IPC: 0.355401 (Simulation time: 0 hr 7 min 52 sec) 
Heartbeat CPU 0 instructions: 230000000 cycles: 433614302 heartbeat IPC: 0.362315 cumulative IPC: 0.355924 (Simulation time: 0 hr 8 min 18 sec) 
Heartbeat CPU 0 instructions: 240000000 cycles: 459545283 heartbeat IPC: 0.385639 cumulative IPC: 0.357894 (Simulation time: 0 hr 8 min 44 sec) 
Heartbeat CPU 0 instructions: 250000000 cycles: 489737912 heartbeat IPC: 0.331207 cumulative IPC: 0.355981 (Simulation time: 0 hr 9 min 13 sec) 
Heartbeat CPU 0 instructions: 260000000 cycles: 516871571 heartbeat IPC: 0.368546 cumulative IPC: 0.356741 (Simulation time: 0 hr 9 min 40 sec) 
Heartbeat CPU 0 instructions: 270000003 cycles: 545408720 heartbeat IPC: 0.350421 cumulative IPC: 0.356363 (Simulation time: 0 hr 10 min 8 sec) 
Heartbeat CPU 0 instructions: 280000000 cycles: 573675133 heartbeat IPC: 0.353777 cumulative IPC: 0.356219 (Simulation time: 0 hr 10 min 36 sec) 
Heartbeat CPU 0 instructions: 290000000 cycles: 602651972 heartbeat IPC: 0.345103 cumulative IPC: 0.355616 (Simulation time: 0 hr 11 min 5 sec) 
Heartbeat CPU 0 instructions: 300000000 cycles: 632774706 heartbeat IPC: 0.331975 cumulative IPC: 0.354354 (Simulation time: 0 hr 11 min 32 sec) 
Heartbeat CPU 0 instructions: 310000001 cycles: 662242478 heartbeat IPC: 0.339354 cumulative IPC: 0.35361 (Simulation time: 0 hr 11 min 59 sec) 
Heartbeat CPU 0 instructions: 320000000 cycles: 690580567 heartbeat IPC: 0.352882 cumulative IPC: 0.353577 (Simulation time: 0 hr 12 min 25 sec) 
Heartbeat CPU 0 instructions: 330000000 cycles: 719315234 heartbeat IPC: 0.348012 cumulative IPC: 0.353331 (Simulation time: 0 hr 12 min 52 sec) 
Heartbeat CPU 0 instructions: 340000000 cycles: 748671458 heartbeat IPC: 0.340643 cumulative IPC: 0.352783 (Simulation time: 0 hr 13 min 19 sec) 
Heartbeat CPU 0 instructions: 350000003 cycles: 775792655 heartbeat IPC: 0.368715 cumulative IPC: 0.353394 (Simulation time: 0 hr 13 min 45 sec) 
Heartbeat CPU 0 instructions: 360000000 cycles: 803962755 heartbeat IPC: 0.354986 cumulative IPC: 0.353455 (Simulation time: 0 hr 14 min 10 sec) 
Heartbeat CPU 0 instructions: 370000000 cycles: 832125800 heartbeat IPC: 0.355075 cumulative IPC: 0.353515 (Simulation time: 0 hr 14 min 36 sec) 
Heartbeat CPU 0 instructions: 380000000 cycles: 860654132 heartbeat IPC: 0.350529 cumulative IPC: 0.353407 (Simulation time: 0 hr 15 min 1 sec) 
Heartbeat CPU 0 instructions: 390000001 cycles: 888273690 heartbeat IPC: 0.362062 cumulative IPC: 0.353699 (Simulation time: 0 hr 15 min 26 sec) 
Heartbeat CPU 0 instructions: 400000000 cycles: 916936228 heartbeat IPC: 0.348887 cumulative IPC: 0.353536 (Simulation time: 0 hr 15 min 52 sec) 
Heartbeat CPU 0 instructions: 410000001 cycles: 944206957 heartbeat IPC: 0.366694 cumulative IPC: 0.353946 (Simulation time: 0 hr 16 min 17 sec) 
Heartbeat CPU 0 instructions: 420000000 cycles: 971491692 heartbeat IPC: 0.366505 cumulative IPC: 0.354326 (Simulation time: 0 hr 16 min 42 sec) 
Heartbeat CPU 0 instructions: 430000002 cycles: 999210411 heartbeat IPC: 0.360767 cumulative IPC: 0.354517 (Simulation time: 0 hr 17 min 7 sec) 
Heartbeat CPU 0 instructions: 440000000 cycles: 1028882461 heartbeat IPC: 0.337017 cumulative IPC: 0.353977 (Simulation time: 0 hr 17 min 32 sec) 
Heartbeat CPU 0 instructions: 450000002 cycles: 1058181209 heartbeat IPC: 0.341312 cumulative IPC: 0.353602 (Simulation time: 0 hr 17 min 58 sec) 
Heartbeat CPU 0 instructions: 460000000 cycles: 1085879782 heartbeat IPC: 0.361029 cumulative IPC: 0.353804 (Simulation time: 0 hr 18 min 23 sec) 
Heartbeat CPU 0 instructions: 470000000 cycles: 1113506476 heartbeat IPC: 0.361969 cumulative IPC: 0.35402 (Simulation time: 0 hr 18 min 48 sec) 
Heartbeat CPU 0 instructions: 480000000 cycles: 1141374418 heartbeat IPC: 0.358835 cumulative IPC: 0.354145 (Simulation time: 0 hr 19 min 13 sec) 
Heartbeat CPU 0 instructions: 490000000 cycles: 1168946134 heartbeat IPC: 0.362691 cumulative IPC: 0.354359 (Simulation time: 0 hr 19 min 38 sec) 
Heartbeat CPU 0 instructions: 500000000 cycles: 1197296712 heartbeat IPC: 0.352726 cumulative IPC: 0.354318 (Simulation time: 0 hr 20 min 3 sec) 
Heartbeat CPU 0 instructions: 510000000 cycles: 1231804783 heartbeat IPC: 0.289787 cumulative IPC: 0.352404 (Simulation time: 0 hr 20 min 32 sec) 
Heartbeat CPU 0 instructions: 520000000 cycles: 1259787779 heartbeat IPC: 0.35736 cumulative IPC: 0.35252 (Simulation time: 0 hr 20 min 58 sec) 
Heartbeat CPU 0 instructions: 530000001 cycles: 1289147685 heartbeat IPC: 0.340601 cumulative IPC: 0.352234 (Simulation time: 0 hr 21 min 24 sec) 
Heartbeat CPU 0 instructions: 540000000 cycles: 1317228515 heartbeat IPC: 0.356115 cumulative IPC: 0.352321 (Simulation time: 0 hr 21 min 51 sec) 
Heartbeat CPU 0 instructions: 550000001 cycles: 1346443474 heartbeat IPC: 0.34229 cumulative IPC: 0.352092 (Simulation time: 0 hr 22 min 18 sec) 
Heartbeat CPU 0 instructions: 560000000 cycles: 1371860600 heartbeat IPC: 0.393435 cumulative IPC: 0.352898 (Simulation time: 0 hr 22 min 44 sec) 
Heartbeat CPU 0 instructions: 570000000 cycles: 1401515880 heartbeat IPC: 0.337208 cumulative IPC: 0.352549 (Simulation time: 0 hr 23 min 11 sec) 
Heartbeat CPU 0 instructions: 580000000 cycles: 1429505957 heartbeat IPC: 0.357269 cumulative IPC: 0.352646 (Simulation time: 0 hr 23 min 37 sec) 
Heartbeat CPU 0 instructions: 590000001 cycles: 1454237516 heartbeat IPC: 0.404342 cumulative IPC: 0.353568 (Simulation time: 0 hr 24 min 2 sec) 
Heartbeat CPU 0 instructions: 600000000 cycles: 1480295209 heartbeat IPC: 0.383764 cumulative IPC: 0.354126 (Simulation time: 0 hr 24 min 27 sec) 
Finished CPU 0 instructions: 500000000 cycles: 1411927745 cumulative IPC: 0.354126 (Simulation time: 0 hr 24 min 27 sec) 

CPU 0 Branch Prediction Accuracy: 86.4311% MPKI: 26.2662
Number of Branches: 96788573 Number of Mispredictions: 13133102
Number of LOAD Instructions: 164682285
Number of LOAD Instructions (ROI): 164682285
Number of STORE Instructions: 78194750
Number of STORE Instructions (ROI): 78194750
Total Destination Memory Operands: 83268534
Total Destination Memory Operands (ROI): 83268534
Total Source Memory Operands: 164712438
Total Source Memory Operands (ROI): 164712438
Number of DEPENDED LOADS: 7058848
Number of DEPENDED LOADS (ROI): 7058848
Number of SQ_ADDED: 83268522
Number of SQ_ADDED (ROI): 83268522
Number of LQ_ADDED: 236564188
Number of LQ_ADDED (ROI): 236564188
Number of Instructions read from trace: 600000066

ChampSim completed all CPUs

Region of Interest Statistics

CPU 0 cumulative IPC: 0.354126 instructions: 500000000 cycles: 1411927745
ITLB TOTAL     ACCESS:  100515813  HIT:  100311367  MISS:     204446
ITLB LOAD      ACCESS:  100515813  HIT:  100311367  MISS:     204446
ITLB RFO       ACCESS:          0  HIT:          0  MISS:          0
ITLB PREFETCH  ACCESS:          0  HIT:          0  MISS:          0
ITLB WRITEBACK ACCESS:          0  HIT:          0  MISS:          0
ITLB PREFETCH  REQUESTED:          0  ISSUED:          0  USEFUL:          0  USELESS:          0
ITLB TOTAL MSHR MERGED:     172426
ITLB LOAD MSHR MERGED:     172426
ITLB RFO MSHR MERGED:          0
ITLB PREFETCH MSHR MERGED:          0
ITLB WRITEBACK MSHR MERGED:          0
ITLB TOTAL ACCESSES:  100688239 HITS:  100311367 MISSES:     376872
ITLB LOAD ACCESSES:  100688239 HITS:  100311367 MISSES:     376872
ITLB RFO ACCESSES:          0 HITS:          0 MISSES:          0
ITLB PREFETCH ACCESSES:          0 HITS:          0 MISSES:          0
ITLB WRITEBACK ACCESSES:          0 HITS:          0 MISSES:          0
ITLB RQ ACCESS:  500000057
ITLB RQ TO_CACHE:  100688239
ITLB RQ MERGED:  399311818
ITLB RQ FORWARD:          0
ITLB WQ ACCESS:          0
ITLB WQ TO_CACHE:          0
ITLB WQ MERGED:          0
ITLB WQ FORWARD:          0
DTLB TOTAL     ACCESS:  165338260  HIT:  164703912  MISS:     634348
DTLB LOAD      ACCESS:  106293722  HIT:  105723795  MISS:     569927
DTLB RFO       ACCESS:   59044538  HIT:   58980117  MISS:      64421
DTLB PREFETCH  ACCESS:          0  HIT:          0  MISS:          0
DTLB WRITEBACK ACCESS:          0  HIT:          0  MISS:          0
DTLB PREFETCH  REQUESTED:          0  ISSUED:          0  USEFUL:          0  USELESS:          0
DTLB TOTAL MSHR MERGED:      99880
DTLB LOAD MSHR MERGED:      59431
DTLB RFO MSHR MERGED:      40449
DTLB PREFETCH MSHR MERGED:          0
DTLB WRITEBACK MSHR MERGED:          0
DTLB TOTAL ACCESSES:  165438140 HITS:  164703912 MISSES:     734228
DTLB LOAD ACCESSES:  106353153 HITS:  105723795 MISSES:     629358
DTLB RFO ACCESSES:   59084987 HITS:   58980117 MISSES:     104870
DTLB PREFETCH ACCESSES:          0 HITS:          0 MISSES:          0
DTLB WRITEBACK ACCESSES:          0 HITS:          0 MISSES:          0
DTLB RQ ACCESS:  200312036
DTLB RQ TO_CACHE:  165438140
DTLB RQ MERGED:   34873896
DTLB RQ FORWARD:          0
DTLB WQ ACCESS:          0
DTLB WQ TO_CACHE:          0
DTLB WQ MERGED:          0
DTLB WQ FORWARD:          0
L1D TOTAL     ACCESS:  281861068  HIT:  273951688  MISS:    7909380
L1D LOAD      ACCESS:  110429575  HIT:  107155602  MISS:    3273973
L1D RFO       ACCESS:   67111269  HIT:   66220337  MISS:     890932
L1D PREFETCH  ACCESS:  104320224  HIT:  100575749  MISS:    3744475
L1D WRITEBACK ACCESS:          0  HIT:          0  MISS:          0
L1D PREFETCH  REQUESTED:  110817867  ISSUED:  109118507  USEFUL:    1665191  USELESS:    2079248
L1D TOTAL MSHR MERGED:    2844815
L1D LOAD MSHR MERGED:     481781
L1D RFO MSHR MERGED:    1875033
L1D PREFETCH MSHR MERGED:     488001
L1D WRITEBACK MSHR MERGED:          0
L1D TOTAL ACCESSES:  284733417 HITS:  273979222 MISSES:   10754195
L1D LOAD ACCESSES:  110819410 HITS:  107157145 MISSES:    3662265
L1D RFO ACCESSES:   68974179 HITS:   66220337 MISSES:    2753842
L1D PREFETCH ACCESSES:  104939828 HITS:  100601740 MISSES:    4338088
L1D WRITEBACK ACCESSES:          0 HITS:          0 MISSES:          0
L1D RQ ACCESS:  130759433
L1D RQ TO_CACHE:  110817870
L1D RQ MERGED:   19940020
L1D RQ FORWARD:          0
L1D WQ ACCESS:   69552603
L1D WQ TO_CACHE:   68974180
L1D WQ MERGED:     578423
L1D WQ FORWARD:      27534
L1I TOTAL     ACCESS:  126563193  HIT:  122324641  MISS:    4238552
L1I LOAD      ACCESS:  126563193  HIT:  122324641  MISS:    4238552
L1I RFO       ACCESS:          0  HIT:          0  MISS:          0
L1I PREFETCH  ACCESS:          0  HIT:          0  MISS:          0
L1I WRITEBACK ACCESS:          0  HIT:          0  MISS:          0
L1I PREFETCH  REQUESTED:          0  ISSUED:          0  USEFUL:          0  USELESS:          0
L1I TOTAL MSHR MERGED:    1834763
L1I LOAD MSHR MERGED:    1834763
L1I RFO MSHR MERGED:          0
L1I PREFETCH MSHR MERGED:          0
L1I WRITEBACK MSHR MERGED:          0
L1I TOTAL ACCESSES:  128397959 HITS:  122324641 MISSES:    6073318
L1I LOAD ACCESSES:  128397959 HITS:  122324641 MISSES:    6073318
L1I RFO ACCESSES:          0 HITS:          0 MISSES:          0
L1I PREFETCH ACCESSES:          0 HITS:          0 MISSES:          0
L1I WRITEBACK ACCESSES:          0 HITS:          0 MISSES:          0
L1I RQ ACCESS:  500000057
L1I RQ TO_CACHE:  128397959
L1I RQ MERGED:  371602098
L1I RQ FORWARD:          0
L1I WQ ACCESS:          0
L1I WQ TO_CACHE:          0
L1I WQ MERGED:          0
L1I WQ FORWARD:          0
L2C TOTAL     ACCESS:   14905233  HIT:   11158725  MISS:    3746508
L2C LOAD      ACCESS:    7418830  HIT:    5098811  MISS:    2320019
L2C RFO       ACCESS:     878708  HIT:     409908  MISS:     468800
L2C PREFETCH  ACCESS:    4568445  HIT:    3628009  MISS:     940436
L2C WRITEBACK ACCESS:    2039250  HIT:    2021997  MISS:      17253
L2C PREFETCH  REQUESTED:     842792  ISSUED:     842792  USEFUL:     203349  USELESS:     736793
L2C TOTAL MSHR MERGED:       7139
L2C LOAD MSHR MERGED:        841
L2C RFO MSHR MERGED:          0
L2C PREFETCH MSHR MERGED:       6298
L2C WRITEBACK MSHR MERGED:          0
L2C TOTAL ACCESSES:   14913247 HITS:   11159175 MISSES:    3754072
L2C LOAD ACCESSES:    7419036 HITS:    5099017 MISSES:    2320019
L2C RFO ACCESSES:     878809 HITS:     410009 MISSES:     468800
L2C PREFETCH ACCESSES:    4576152 HITS:    3628152 MISSES:     948000
L2C WRITEBACK ACCESSES:    2039250 HITS:    2021997 MISSES:      17253
L2C RQ ACCESS:    8297848
L2C RQ TO_CACHE:    8297541
L2C RQ MERGED:          0
L2C RQ FORWARD:          0
L2C WQ ACCESS:    2039250
L2C WQ TO_CACHE:    2039250
L2C WQ MERGED:          0
L2C WQ FORWARD:        450
LLC TOTAL     ACCESS:    4609834  HIT:    4001358  MISS:     608476
LLC LOAD      ACCESS:    2319165  HIT:    2047140  MISS:     272025
LLC RFO       ACCESS:     468790  HIT:     388325  MISS:      80465
LLC PREFETCH  ACCESS:     941590  HIT:     717932  MISS:     223658
LLC WRITEBACK ACCESS:     880289  HIT:     847961  MISS:      32328
LLC PREFETCH  REQUESTED:          0  ISSUED:          0  USEFUL:      39226  USELESS:     185033
LLC TOTAL MSHR MERGED:         89
LLC LOAD MSHR MERGED:         28
LLC RFO MSHR MERGED:          0
LLC PREFETCH MSHR MERGED:         61
LLC WRITEBACK MSHR MERGED:          0
LLC TOTAL ACCESSES:    4609957 HITS:    4001392 MISSES:     608565
LLC LOAD ACCESSES:    2319178 HITS:    2047153 MISSES:     272025
LLC RFO ACCESSES:     468800 HITS:     388335 MISSES:      80465
LLC PREFETCH ACCESSES:     941690 HITS:     717943 MISSES:     223747
LLC WRITEBACK ACCESSES:     880289 HITS:     847961 MISSES:      32328
LLC 0 RQ ACCESS:    2787978
LLC 0 RQ TO_CACHE:    2787955
LLC 0 RQ MERGED:          0
LLC 0 RQ FORWARD:          0
LLC WQ ACCESS:     880289
LLC WQ TO_CACHE:     880289
LLC WQ MERGED:          0
LLC WQ FORWARD:         34
Major fault: 0 Minor fault: 12862
CPU 0 L1D next line prefetcher final stats
CPU 0 L2C PC-based stride prefetcher final stats
All Misses: 726457
All Hits: 4700383
SD Algo Stats - Switches: 0 SRR-Repls: 320621 BRR-Repls: 0

DRAM Statistics
 CHANNEL 0
 RQ ROW_BUFFER_HIT:     130384  ROW_BUFFER_MISS:     444230
 DBUS_CONGESTED:     368863
 WQ ROW_BUFFER_HIT:      17488  ROW_BUFFER_MISS:     187228  FULL:          0

 AVG_CONGESTED_CYCLE: 13
LOADS RETIRED: 136549171
INSTR RETIRED: 500000000
