
*** ChampSim Multicore Out-of-Order Simulator ***

Warmup Instructions: 100000000
Simulation Instructions: 500000000
Number of CPUs: 1
LLC sets: 2048
LLC ways: 16
Clean RRIP Policies: 2213230222132302 Dirty RRIP Policies: 1203130212031302 PSEL Width: 10 Track Set: 4294967295 PSEL Mask: 1 Demote Mask: 1440100014401000DS Algo: 0Window size: 0
Off-chip DRAM Size: 4096 MB Channels: 1 Width: 64-bit Data Rate: 1600 MT/s

CPU 0 runs /mnt/beegfs/iconst01/spec2017/Gcc.trace.gz
NOT SORTED
TRACE STRING: /mnt/beegfs/iconst01/spec2017/Gcc.trace.gz
SORTED
TRACE STRING: /mnt/beegfs/iconst01/spec2017/Gcc.trace.gz
INITIAL
TRACE STRING: /mnt/beegfs/iconst01/spec2017/Gcc.trace.gz

champsim_seed used: 269

CPU 0 L1D next line prefetcher
CPU 0 L2C IP-based stride prefetcher
Initialize DRRIP state
Assign rand_sets[0]: 454  LLC: 2048
rand_sets[0]: 454
Assign rand_sets[1]: 1662  LLC: 2048
rand_sets[1]: 1662
Assign rand_sets[2]: 1921  LLC: 2048
rand_sets[2]: 1921
Assign rand_sets[3]: 1131  LLC: 2048
rand_sets[3]: 1131
Assign rand_sets[4]: 331  LLC: 2048
rand_sets[4]: 331
Assign rand_sets[5]: 1531  LLC: 2048
rand_sets[5]: 1531
Assign rand_sets[6]: 482  LLC: 2048
rand_sets[6]: 482
Assign rand_sets[7]: 1275  LLC: 2048
rand_sets[7]: 1275
Assign rand_sets[8]: 1876  LLC: 2048
rand_sets[8]: 1876
Assign rand_sets[9]: 2038  LLC: 2048
rand_sets[9]: 2038
Assign rand_sets[10]: 701  LLC: 2048
rand_sets[10]: 701
Assign rand_sets[11]: 479  LLC: 2048
rand_sets[11]: 479
Assign rand_sets[12]: 892  LLC: 2048
rand_sets[12]: 892
Assign rand_sets[13]: 1820  LLC: 2048
rand_sets[13]: 1820
Assign rand_sets[14]: 1505  LLC: 2048
rand_sets[14]: 1505
Assign rand_sets[15]: 1159  LLC: 2048
rand_sets[15]: 1159
Assign rand_sets[16]: 513  LLC: 2048
rand_sets[16]: 513
Assign rand_sets[17]: 703  LLC: 2048
rand_sets[17]: 703
Assign rand_sets[18]: 561  LLC: 2048
rand_sets[18]: 561
Assign rand_sets[19]: 990  LLC: 2048
rand_sets[19]: 990
Assign rand_sets[20]: 342  LLC: 2048
rand_sets[20]: 342
Assign rand_sets[21]: 882  LLC: 2048
rand_sets[21]: 882
Assign rand_sets[22]: 15  LLC: 2048
rand_sets[22]: 15
Assign rand_sets[23]: 71  LLC: 2048
rand_sets[23]: 71
Assign rand_sets[24]: 1127  LLC: 2048
rand_sets[24]: 1127
Assign rand_sets[25]: 1382  LLC: 2048
rand_sets[25]: 1382
Assign rand_sets[26]: 647  LLC: 2048
rand_sets[26]: 647
Assign rand_sets[27]: 857  LLC: 2048
rand_sets[27]: 857
Assign rand_sets[28]: 1450  LLC: 2048
rand_sets[28]: 1450
Assign rand_sets[29]: 1160  LLC: 2048
rand_sets[29]: 1160
Assign rand_sets[30]: 1852  LLC: 2048
rand_sets[30]: 1852
Assign rand_sets[31]: 1881  LLC: 2048
rand_sets[31]: 1881
Assign rand_sets[32]: 1770  LLC: 2048
rand_sets[32]: 1770
Assign rand_sets[33]: 1622  LLC: 2048
rand_sets[33]: 1622
Assign rand_sets[34]: 275  LLC: 2048
rand_sets[34]: 275
Assign rand_sets[35]: 635  LLC: 2048
rand_sets[35]: 635
Assign rand_sets[36]: 466  LLC: 2048
rand_sets[36]: 466
Assign rand_sets[37]: 1413  LLC: 2048
rand_sets[37]: 1413
Assign rand_sets[38]: 417  LLC: 2048
rand_sets[38]: 417
Assign rand_sets[39]: 472  LLC: 2048
rand_sets[39]: 472
Assign rand_sets[40]: 1340  LLC: 2048
rand_sets[40]: 1340
Assign rand_sets[41]: 852  LLC: 2048
rand_sets[41]: 852
Assign rand_sets[42]: 1365  LLC: 2048
rand_sets[42]: 1365
Assign rand_sets[43]: 47  LLC: 2048
rand_sets[43]: 47
Assign rand_sets[44]: 823  LLC: 2048
rand_sets[44]: 823
Assign rand_sets[45]: 686  LLC: 2048
rand_sets[45]: 686
Assign rand_sets[46]: 1637  LLC: 2048
rand_sets[46]: 1637
Assign rand_sets[47]: 1115  LLC: 2048
rand_sets[47]: 1115
Assign rand_sets[48]: 986  LLC: 2048
rand_sets[48]: 986
Assign rand_sets[49]: 258  LLC: 2048
rand_sets[49]: 258
Assign rand_sets[50]: 633  LLC: 2048
rand_sets[50]: 633
Assign rand_sets[51]: 920  LLC: 2048
rand_sets[51]: 920
Assign rand_sets[52]: 204  LLC: 2048
rand_sets[52]: 204
Assign rand_sets[53]: 227  LLC: 2048
rand_sets[53]: 227
Assign rand_sets[54]: 1818  LLC: 2048
rand_sets[54]: 1818
Assign rand_sets[55]: 886  LLC: 2048
rand_sets[55]: 886
Assign rand_sets[56]: 1422  LLC: 2048
rand_sets[56]: 1422
Assign rand_sets[57]: 607  LLC: 2048
rand_sets[57]: 607
Assign rand_sets[58]: 217  LLC: 2048
rand_sets[58]: 217
Assign rand_sets[59]: 1945  LLC: 2048
rand_sets[59]: 1945
Assign rand_sets[60]: 143  LLC: 2048
rand_sets[60]: 143
Assign rand_sets[61]: 1311  LLC: 2048
rand_sets[61]: 1311
Assign rand_sets[62]: 319  LLC: 2048
rand_sets[62]: 319
Assign rand_sets[63]: 1846  LLC: 2048
rand_sets[63]: 1846
 CLEAN-RRIP-POLICY-1: 2-2-1-3-2-3-0-2- CLEAN-RRIP-POLICY-2: 2-2-1-3-2-3-0-2-
 DIRTY-RRIP-POLICY-1: 1-2-0-3-1-3-0-2- DIRTY-RRIP-POLICY-2: 1-2-0-3-1-3-0-2-
 PSEL width: 10
Heartbeat CPU 0 instructions: 10000001 cycles: 7315979 heartbeat IPC: 1.36687 cumulative IPC: 1.36687 (Simulation time: 0 hr 0 min 14 sec) 
Heartbeat CPU 0 instructions: 20000000 cycles: 14307782 heartbeat IPC: 1.43025 cumulative IPC: 1.39784 (Simulation time: 0 hr 0 min 27 sec) 
Heartbeat CPU 0 instructions: 30000001 cycles: 21020785 heartbeat IPC: 1.48965 cumulative IPC: 1.42716 (Simulation time: 0 hr 0 min 42 sec) 
Heartbeat CPU 0 instructions: 40000000 cycles: 27481582 heartbeat IPC: 1.5478 cumulative IPC: 1.45552 (Simulation time: 0 hr 0 min 57 sec) 
Heartbeat CPU 0 instructions: 50000001 cycles: 33583465 heartbeat IPC: 1.63884 cumulative IPC: 1.48883 (Simulation time: 0 hr 1 min 11 sec) 
Heartbeat CPU 0 instructions: 60000000 cycles: 40064786 heartbeat IPC: 1.5429 cumulative IPC: 1.49757 (Simulation time: 0 hr 1 min 26 sec) 
Heartbeat CPU 0 instructions: 70000000 cycles: 47104431 heartbeat IPC: 1.42053 cumulative IPC: 1.48606 (Simulation time: 0 hr 1 min 40 sec) 
Heartbeat CPU 0 instructions: 80000000 cycles: 54195274 heartbeat IPC: 1.41027 cumulative IPC: 1.47614 (Simulation time: 0 hr 1 min 53 sec) 
Heartbeat CPU 0 instructions: 90000003 cycles: 61200472 heartbeat IPC: 1.42751 cumulative IPC: 1.47058 (Simulation time: 0 hr 2 min 7 sec) 
Heartbeat CPU 0 instructions: 100000000 cycles: 68368506 heartbeat IPC: 1.39508 cumulative IPC: 1.46266 (Simulation time: 0 hr 2 min 20 sec) 

Warmup complete CPU 0 instructions: 100000004 cycles: 68368507 (Simulation time: 0 hr 2 min 20 sec) 

Heartbeat CPU 0 instructions: 110000003 cycles: 96057960 heartbeat IPC: 0.361148 cumulative IPC: 0.361148 (Simulation time: 0 hr 2 min 46 sec) 
Heartbeat CPU 0 instructions: 120000000 cycles: 123531029 heartbeat IPC: 0.363993 cumulative IPC: 0.362565 (Simulation time: 0 hr 3 min 12 sec) 
Heartbeat CPU 0 instructions: 130000000 cycles: 148540639 heartbeat IPC: 0.399846 cumulative IPC: 0.374195 (Simulation time: 0 hr 3 min 38 sec) 
Heartbeat CPU 0 instructions: 140000000 cycles: 178257524 heartbeat IPC: 0.336509 cumulative IPC: 0.364004 (Simulation time: 0 hr 4 min 3 sec) 
Heartbeat CPU 0 instructions: 150000000 cycles: 208201534 heartbeat IPC: 0.333957 cumulative IPC: 0.357569 (Simulation time: 0 hr 4 min 28 sec) 
Heartbeat CPU 0 instructions: 160000000 cycles: 235659976 heartbeat IPC: 0.364187 cumulative IPC: 0.358655 (Simulation time: 0 hr 4 min 53 sec) 
Heartbeat CPU 0 instructions: 170000001 cycles: 263692762 heartbeat IPC: 0.356725 cumulative IPC: 0.358378 (Simulation time: 0 hr 5 min 19 sec) 
Heartbeat CPU 0 instructions: 180000000 cycles: 292180208 heartbeat IPC: 0.351032 cumulative IPC: 0.357443 (Simulation time: 0 hr 5 min 45 sec) 
Heartbeat CPU 0 instructions: 190000002 cycles: 320264137 heartbeat IPC: 0.356076 cumulative IPC: 0.357291 (Simulation time: 0 hr 6 min 11 sec) 
Heartbeat CPU 0 instructions: 200000000 cycles: 348658851 heartbeat IPC: 0.352178 cumulative IPC: 0.356773 (Simulation time: 0 hr 6 min 37 sec) 
Heartbeat CPU 0 instructions: 210000002 cycles: 376591976 heartbeat IPC: 0.357998 cumulative IPC: 0.356884 (Simulation time: 0 hr 7 min 2 sec) 
Heartbeat CPU 0 instructions: 220000000 cycles: 405945303 heartbeat IPC: 0.340677 cumulative IPC: 0.355475 (Simulation time: 0 hr 7 min 27 sec) 
Heartbeat CPU 0 instructions: 230000000 cycles: 433521475 heartbeat IPC: 0.362632 cumulative IPC: 0.356015 (Simulation time: 0 hr 7 min 52 sec) 
Heartbeat CPU 0 instructions: 240000000 cycles: 459467205 heartbeat IPC: 0.38542 cumulative IPC: 0.357966 (Simulation time: 0 hr 8 min 16 sec) 
Heartbeat CPU 0 instructions: 250000000 cycles: 489616903 heartbeat IPC: 0.331678 cumulative IPC: 0.356084 (Simulation time: 0 hr 8 min 43 sec) 
Heartbeat CPU 0 instructions: 260000000 cycles: 516720680 heartbeat IPC: 0.368952 cumulative IPC: 0.356862 (Simulation time: 0 hr 9 min 8 sec) 
Heartbeat CPU 0 instructions: 270000003 cycles: 545167363 heartbeat IPC: 0.351535 cumulative IPC: 0.356544 (Simulation time: 0 hr 9 min 34 sec) 
Heartbeat CPU 0 instructions: 280000000 cycles: 573392715 heartbeat IPC: 0.354291 cumulative IPC: 0.356419 (Simulation time: 0 hr 10 min 1 sec) 
Heartbeat CPU 0 instructions: 290000000 cycles: 602369245 heartbeat IPC: 0.345107 cumulative IPC: 0.355805 (Simulation time: 0 hr 10 min 28 sec) 
Heartbeat CPU 0 instructions: 300000000 cycles: 632533414 heartbeat IPC: 0.331519 cumulative IPC: 0.354506 (Simulation time: 0 hr 10 min 53 sec) 
Heartbeat CPU 0 instructions: 310000001 cycles: 662051519 heartbeat IPC: 0.338775 cumulative IPC: 0.353724 (Simulation time: 0 hr 11 min 19 sec) 
Heartbeat CPU 0 instructions: 320000000 cycles: 690374969 heartbeat IPC: 0.353064 cumulative IPC: 0.353694 (Simulation time: 0 hr 11 min 44 sec) 
Heartbeat CPU 0 instructions: 330000000 cycles: 719087621 heartbeat IPC: 0.348279 cumulative IPC: 0.353455 (Simulation time: 0 hr 12 min 9 sec) 
Heartbeat CPU 0 instructions: 340000000 cycles: 748418920 heartbeat IPC: 0.340933 cumulative IPC: 0.352915 (Simulation time: 0 hr 12 min 34 sec) 
Heartbeat CPU 0 instructions: 350000003 cycles: 775529308 heartbeat IPC: 0.368862 cumulative IPC: 0.353526 (Simulation time: 0 hr 12 min 59 sec) 
Heartbeat CPU 0 instructions: 360000000 cycles: 803797887 heartbeat IPC: 0.35375 cumulative IPC: 0.353535 (Simulation time: 0 hr 13 min 23 sec) 
Heartbeat CPU 0 instructions: 370000000 cycles: 832010233 heartbeat IPC: 0.354455 cumulative IPC: 0.353569 (Simulation time: 0 hr 13 min 47 sec) 
Heartbeat CPU 0 instructions: 380000000 cycles: 860541962 heartbeat IPC: 0.350487 cumulative IPC: 0.353458 (Simulation time: 0 hr 14 min 11 sec) 
Heartbeat CPU 0 instructions: 390000001 cycles: 888153756 heartbeat IPC: 0.362164 cumulative IPC: 0.353751 (Simulation time: 0 hr 14 min 35 sec) 
Heartbeat CPU 0 instructions: 400000000 cycles: 916808712 heartbeat IPC: 0.34898 cumulative IPC: 0.35359 (Simulation time: 0 hr 14 min 59 sec) 
Heartbeat CPU 0 instructions: 410000001 cycles: 944106022 heartbeat IPC: 0.366336 cumulative IPC: 0.353987 (Simulation time: 0 hr 15 min 23 sec) 
Heartbeat CPU 0 instructions: 420000000 cycles: 971421073 heartbeat IPC: 0.366098 cumulative IPC: 0.354354 (Simulation time: 0 hr 15 min 47 sec) 
Heartbeat CPU 0 instructions: 430000002 cycles: 999164418 heartbeat IPC: 0.360447 cumulative IPC: 0.354535 (Simulation time: 0 hr 16 min 10 sec) 
Heartbeat CPU 0 instructions: 440000000 cycles: 1028851455 heartbeat IPC: 0.336847 cumulative IPC: 0.353989 (Simulation time: 0 hr 16 min 35 sec) 
Heartbeat CPU 0 instructions: 450000002 cycles: 1058138550 heartbeat IPC: 0.341447 cumulative IPC: 0.353617 (Simulation time: 0 hr 16 min 59 sec) 
Heartbeat CPU 0 instructions: 460000000 cycles: 1085867170 heartbeat IPC: 0.360638 cumulative IPC: 0.353809 (Simulation time: 0 hr 17 min 23 sec) 
Heartbeat CPU 0 instructions: 470000000 cycles: 1113502492 heartbeat IPC: 0.361856 cumulative IPC: 0.354022 (Simulation time: 0 hr 17 min 47 sec) 
Heartbeat CPU 0 instructions: 480000000 cycles: 1141379878 heartbeat IPC: 0.358714 cumulative IPC: 0.354144 (Simulation time: 0 hr 18 min 11 sec) 
Heartbeat CPU 0 instructions: 490000000 cycles: 1168964948 heartbeat IPC: 0.362515 cumulative IPC: 0.354353 (Simulation time: 0 hr 18 min 34 sec) 
Heartbeat CPU 0 instructions: 500000000 cycles: 1197315470 heartbeat IPC: 0.352727 cumulative IPC: 0.354312 (Simulation time: 0 hr 18 min 58 sec) 
Heartbeat CPU 0 instructions: 510000000 cycles: 1231379562 heartbeat IPC: 0.293564 cumulative IPC: 0.352533 (Simulation time: 0 hr 19 min 26 sec) 
Heartbeat CPU 0 instructions: 520000000 cycles: 1259452992 heartbeat IPC: 0.356209 cumulative IPC: 0.35262 (Simulation time: 0 hr 19 min 51 sec) 
Heartbeat CPU 0 instructions: 530000001 cycles: 1289222203 heartbeat IPC: 0.335918 cumulative IPC: 0.352213 (Simulation time: 0 hr 20 min 16 sec) 
Heartbeat CPU 0 instructions: 540000000 cycles: 1317398219 heartbeat IPC: 0.354912 cumulative IPC: 0.352273 (Simulation time: 0 hr 20 min 41 sec) 
Heartbeat CPU 0 instructions: 550000001 cycles: 1346593297 heartbeat IPC: 0.342524 cumulative IPC: 0.352051 (Simulation time: 0 hr 21 min 7 sec) 
Heartbeat CPU 0 instructions: 560000000 cycles: 1372020426 heartbeat IPC: 0.393281 cumulative IPC: 0.352855 (Simulation time: 0 hr 21 min 31 sec) 
Heartbeat CPU 0 instructions: 570000000 cycles: 1401636670 heartbeat IPC: 0.337653 cumulative IPC: 0.352517 (Simulation time: 0 hr 21 min 57 sec) 
Heartbeat CPU 0 instructions: 580000000 cycles: 1429662770 heartbeat IPC: 0.35681 cumulative IPC: 0.352606 (Simulation time: 0 hr 22 min 22 sec) 
Heartbeat CPU 0 instructions: 590000001 cycles: 1454408265 heartbeat IPC: 0.404114 cumulative IPC: 0.353525 (Simulation time: 0 hr 22 min 45 sec) 
Heartbeat CPU 0 instructions: 600000000 cycles: 1480476855 heartbeat IPC: 0.383603 cumulative IPC: 0.35408 (Simulation time: 0 hr 23 min 10 sec) 
Finished CPU 0 instructions: 500000000 cycles: 1412108370 cumulative IPC: 0.35408 (Simulation time: 0 hr 23 min 10 sec) 

CPU 0 Branch Prediction Accuracy: 86.4311% MPKI: 26.2662
Number of Branches: 96788573 Number of Mispredictions: 13133102
Number of LOAD Instructions: 164682285
Number of LOAD Instructions (ROI): 164682285
Number of STORE Instructions: 78194750
Number of STORE Instructions (ROI): 78194750
Total Destination Memory Operands: 83268534
Total Destination Memory Operands (ROI): 83268534
Total Source Memory Operands: 164712438
Total Source Memory Operands (ROI): 164712438
Number of DEPENDED LOADS: 7055340
Number of DEPENDED LOADS (ROI): 7055340
Number of SQ_ADDED: 83268522
Number of SQ_ADDED (ROI): 83268522
Number of LQ_ADDED: 236777062
Number of LQ_ADDED (ROI): 236777062
Number of Instructions read from trace: 600000066

ChampSim completed all CPUs

Region of Interest Statistics

CPU 0 cumulative IPC: 0.35408 instructions: 500000000 cycles: 1412108370
ITLB TOTAL     ACCESS:  100523596  HIT:  100319150  MISS:     204446
ITLB LOAD      ACCESS:  100523596  HIT:  100319150  MISS:     204446
ITLB RFO       ACCESS:          0  HIT:          0  MISS:          0
ITLB PREFETCH  ACCESS:          0  HIT:          0  MISS:          0
ITLB WRITEBACK ACCESS:          0  HIT:          0  MISS:          0
ITLB PREFETCH  REQUESTED:          0  ISSUED:          0  USEFUL:          0  USELESS:          0
ITLB TOTAL MSHR MERGED:     172424
ITLB LOAD MSHR MERGED:     172424
ITLB RFO MSHR MERGED:          0
ITLB PREFETCH MSHR MERGED:          0
ITLB WRITEBACK MSHR MERGED:          0
ITLB TOTAL ACCESSES:  100696020 HITS:  100319150 MISSES:     376870
ITLB LOAD ACCESSES:  100696020 HITS:  100319150 MISSES:     376870
ITLB RFO ACCESSES:          0 HITS:          0 MISSES:          0
ITLB PREFETCH ACCESSES:          0 HITS:          0 MISSES:          0
ITLB WRITEBACK ACCESSES:          0 HITS:          0 MISSES:          0
ITLB RQ ACCESS:  500000057
ITLB RQ TO_CACHE:  100696020
ITLB RQ MERGED:  399304037
ITLB RQ FORWARD:          0
ITLB WQ ACCESS:          0
ITLB WQ TO_CACHE:          0
ITLB WQ MERGED:          0
ITLB WQ FORWARD:          0
DTLB TOTAL     ACCESS:  165341600  HIT:  164707247  MISS:     634353
DTLB LOAD      ACCESS:  106296041  HIT:  105726123  MISS:     569918
DTLB RFO       ACCESS:   59045559  HIT:   58981124  MISS:      64435
DTLB PREFETCH  ACCESS:          0  HIT:          0  MISS:          0
DTLB WRITEBACK ACCESS:          0  HIT:          0  MISS:          0
DTLB PREFETCH  REQUESTED:          0  ISSUED:          0  USEFUL:          0  USELESS:          0
DTLB TOTAL MSHR MERGED:      99932
DTLB LOAD MSHR MERGED:      59419
DTLB RFO MSHR MERGED:      40513
DTLB PREFETCH MSHR MERGED:          0
DTLB WRITEBACK MSHR MERGED:          0
DTLB TOTAL ACCESSES:  165441532 HITS:  164707247 MISSES:     734285
DTLB LOAD ACCESSES:  106355460 HITS:  105726123 MISSES:     629337
DTLB RFO ACCESSES:   59086072 HITS:   58981124 MISSES:     104948
DTLB PREFETCH ACCESSES:          0 HITS:          0 MISSES:          0
DTLB WRITEBACK ACCESSES:          0 HITS:          0 MISSES:          0
DTLB RQ ACCESS:  200315540
DTLB RQ TO_CACHE:  165441532
DTLB RQ MERGED:   34874008
DTLB RQ FORWARD:          0
DTLB WQ ACCESS:          0
DTLB WQ TO_CACHE:          0
DTLB WQ MERGED:          0
DTLB WQ FORWARD:          0
L1D TOTAL     ACCESS:  281863761  HIT:  273954381  MISS:    7909380
L1D LOAD      ACCESS:  110422968  HIT:  107145015  MISS:    3277953
L1D RFO       ACCESS:   67135040  HIT:   66245150  MISS:     889890
L1D PREFETCH  ACCESS:  104305753  HIT:  100564216  MISS:    3741537
L1D WRITEBACK ACCESS:          0  HIT:          0  MISS:          0
L1D PREFETCH  REQUESTED:  110821856  ISSUED:  109122544  USEFUL:    1662097  USELESS:    2079404
L1D TOTAL MSHR MERGED:    2849988
L1D LOAD MSHR MERGED:     496330
L1D RFO MSHR MERGED:    1850269
L1D PREFETCH MSHR MERGED:     503389
L1D WRITEBACK MSHR MERGED:          0
L1D TOTAL ACCESSES:  284741163 HITS:  273981795 MISSES:   10759368
L1D LOAD ACCESSES:  110823281 HITS:  107146440 MISSES:    3676841
L1D RFO ACCESSES:   68974219 HITS:   66245150 MISSES:    2729069
L1D PREFETCH ACCESSES:  104943663 HITS:  100590205 MISSES:    4353458
L1D WRITEBACK ACCESSES:          0 HITS:          0 MISSES:          0
L1D RQ ACCESS:  130762937
L1D RQ TO_CACHE:  110821859
L1D RQ MERGED:   19939653
L1D RQ FORWARD:          0
L1D WQ ACCESS:   69552603
L1D WQ TO_CACHE:   68974220
L1D WQ MERGED:     578383
L1D WQ FORWARD:      27414
L1I TOTAL     ACCESS:  126570387  HIT:  122331834  MISS:    4238553
L1I LOAD      ACCESS:  126570387  HIT:  122331834  MISS:    4238553
L1I RFO       ACCESS:          0  HIT:          0  MISS:          0
L1I PREFETCH  ACCESS:          0  HIT:          0  MISS:          0
L1I WRITEBACK ACCESS:          0  HIT:          0  MISS:          0
L1I PREFETCH  REQUESTED:          0  ISSUED:          0  USEFUL:          0  USELESS:          0
L1I TOTAL MSHR MERGED:    1834960
L1I LOAD MSHR MERGED:    1834960
L1I RFO MSHR MERGED:          0
L1I PREFETCH MSHR MERGED:          0
L1I WRITEBACK MSHR MERGED:          0
L1I TOTAL ACCESSES:  128405350 HITS:  122331834 MISSES:    6073516
L1I LOAD ACCESSES:  128405350 HITS:  122331834 MISSES:    6073516
L1I RFO ACCESSES:          0 HITS:          0 MISSES:          0
L1I PREFETCH ACCESSES:          0 HITS:          0 MISSES:          0
L1I WRITEBACK ACCESSES:          0 HITS:          0 MISSES:          0
L1I RQ ACCESS:  500000057
L1I RQ TO_CACHE:  128405350
L1I RQ MERGED:  371594707
L1I RQ FORWARD:          0
L1I WQ ACCESS:          0
L1I WQ TO_CACHE:          0
L1I WQ MERGED:          0
L1I WQ FORWARD:          0
L2C TOTAL     ACCESS:   14905790  HIT:   11159270  MISS:    3746520
L2C LOAD      ACCESS:    7418856  HIT:    5098990  MISS:    2319866
L2C RFO       ACCESS:     878704  HIT:     409897  MISS:     468807
L2C PREFETCH  ACCESS:    4568979  HIT:    3628388  MISS:     940591
L2C WRITEBACK ACCESS:    2039251  HIT:    2021995  MISS:      17256
L2C PREFETCH  REQUESTED:     842803  ISSUED:     842803  USEFUL:     203495  USELESS:     736802
L2C TOTAL MSHR MERGED:       6595
L2C LOAD MSHR MERGED:        670
L2C RFO MSHR MERGED:          0
L2C PREFETCH MSHR MERGED:       5925
L2C WRITEBACK MSHR MERGED:          0
L2C TOTAL ACCESSES:   14913252 HITS:   11159719 MISSES:    3753533
L2C LOAD ACCESSES:    7419064 HITS:    5099198 MISSES:    2319866
L2C RFO ACCESSES:     878800 HITS:     409993 MISSES:     468807
L2C PREFETCH ACCESSES:    4576137 HITS:    3628533 MISSES:     947604
L2C WRITEBACK ACCESSES:    2039251 HITS:    2021995 MISSES:      17256
L2C RQ ACCESS:    8297867
L2C RQ TO_CACHE:    8297563
L2C RQ MERGED:          0
L2C RQ FORWARD:          0
L2C WQ ACCESS:    2039251
L2C WQ TO_CACHE:    2039251
L2C WQ MERGED:          0
L2C WQ FORWARD:        449
LLC TOTAL     ACCESS:    4609855  HIT:    3976899  MISS:     632956
LLC LOAD      ACCESS:    2319180  HIT:    2040988  MISS:     278192
LLC RFO       ACCESS:     468797  HIT:     428609  MISS:      40188
LLC PREFETCH  ACCESS:     941578  HIT:     666787  MISS:     274791
LLC WRITEBACK ACCESS:     880300  HIT:     840515  MISS:      39785
LLC PREFETCH  REQUESTED:          0  ISSUED:          0  USEFUL:      12937  USELESS:     261803
LLC TOTAL MSHR MERGED:         83
LLC LOAD MSHR MERGED:         24
LLC RFO MSHR MERGED:          0
LLC PREFETCH MSHR MERGED:         59
LLC WRITEBACK MSHR MERGED:          0
LLC TOTAL ACCESSES:    4609975 HITS:    3976936 MISSES:     633039
LLC LOAD ACCESSES:    2319196 HITS:    2041004 MISSES:     278192
LLC RFO ACCESSES:     468807 HITS:     428619 MISSES:      40188
LLC PREFETCH ACCESSES:     941672 HITS:     666798 MISSES:     274874
LLC WRITEBACK ACCESSES:     880300 HITS:     840515 MISSES:      39785
LLC 0 RQ ACCESS:    2788003
LLC 0 RQ TO_CACHE:    2787977
LLC 0 RQ MERGED:          0
LLC 0 RQ FORWARD:          0
LLC WQ ACCESS:     880300
LLC WQ TO_CACHE:     880300
LLC WQ MERGED:          0
LLC WQ FORWARD:         37
Major fault: 0 Minor fault: 12862
CPU 0 L1D next line prefetcher final stats
CPU 0 L2C PC-based stride prefetcher final stats
All Misses: 757714
All Hits: 4669147
SD Algo Stats - Switches: 0 SRR-Repls: 328999 BRR-Repls: 0

DRAM Statistics
 CHANNEL 0
 RQ ROW_BUFFER_HIT:     127105  ROW_BUFFER_MISS:     465592
 DBUS_CONGESTED:     295526
 WQ ROW_BUFFER_HIT:       7417  ROW_BUFFER_MISS:     128686  FULL:          0

 AVG_CONGESTED_CYCLE: 13
LOADS RETIRED: 136549171
INSTR RETIRED: 500000000
