
*** ChampSim Multicore Out-of-Order Simulator ***

Warmup Instructions: 100000000
Simulation Instructions: 500000000
Number of CPUs: 1
LLC sets: 2048
LLC ways: 16
Clean RRIP Policies: 1113100111131001 Dirty RRIP Policies: 1103100111031001 PSEL Width: 10 Track Set: 4294967295 PSEL Mask: 1 Demote Mask: 4002144440021444DS Algo: 0Window size: 0
Off-chip DRAM Size: 4096 MB Channels: 1 Width: 64-bit Data Rate: 1600 MT/s

CPU 0 runs /mnt/beegfs/iconst01/spec2017/Gcc.trace.gz
NOT SORTED
TRACE STRING: /mnt/beegfs/iconst01/spec2017/Gcc.trace.gz
SORTED
TRACE STRING: /mnt/beegfs/iconst01/spec2017/Gcc.trace.gz
INITIAL
TRACE STRING: /mnt/beegfs/iconst01/spec2017/Gcc.trace.gz

champsim_seed used: 269

CPU 0 L1D next line prefetcher
CPU 0 L2C IP-based stride prefetcher
Initialize DRRIP state
Assign rand_sets[0]: 454  LLC: 2048
rand_sets[0]: 454
Assign rand_sets[1]: 1662  LLC: 2048
rand_sets[1]: 1662
Assign rand_sets[2]: 1921  LLC: 2048
rand_sets[2]: 1921
Assign rand_sets[3]: 1131  LLC: 2048
rand_sets[3]: 1131
Assign rand_sets[4]: 331  LLC: 2048
rand_sets[4]: 331
Assign rand_sets[5]: 1531  LLC: 2048
rand_sets[5]: 1531
Assign rand_sets[6]: 482  LLC: 2048
rand_sets[6]: 482
Assign rand_sets[7]: 1275  LLC: 2048
rand_sets[7]: 1275
Assign rand_sets[8]: 1876  LLC: 2048
rand_sets[8]: 1876
Assign rand_sets[9]: 2038  LLC: 2048
rand_sets[9]: 2038
Assign rand_sets[10]: 701  LLC: 2048
rand_sets[10]: 701
Assign rand_sets[11]: 479  LLC: 2048
rand_sets[11]: 479
Assign rand_sets[12]: 892  LLC: 2048
rand_sets[12]: 892
Assign rand_sets[13]: 1820  LLC: 2048
rand_sets[13]: 1820
Assign rand_sets[14]: 1505  LLC: 2048
rand_sets[14]: 1505
Assign rand_sets[15]: 1159  LLC: 2048
rand_sets[15]: 1159
Assign rand_sets[16]: 513  LLC: 2048
rand_sets[16]: 513
Assign rand_sets[17]: 703  LLC: 2048
rand_sets[17]: 703
Assign rand_sets[18]: 561  LLC: 2048
rand_sets[18]: 561
Assign rand_sets[19]: 990  LLC: 2048
rand_sets[19]: 990
Assign rand_sets[20]: 342  LLC: 2048
rand_sets[20]: 342
Assign rand_sets[21]: 882  LLC: 2048
rand_sets[21]: 882
Assign rand_sets[22]: 15  LLC: 2048
rand_sets[22]: 15
Assign rand_sets[23]: 71  LLC: 2048
rand_sets[23]: 71
Assign rand_sets[24]: 1127  LLC: 2048
rand_sets[24]: 1127
Assign rand_sets[25]: 1382  LLC: 2048
rand_sets[25]: 1382
Assign rand_sets[26]: 647  LLC: 2048
rand_sets[26]: 647
Assign rand_sets[27]: 857  LLC: 2048
rand_sets[27]: 857
Assign rand_sets[28]: 1450  LLC: 2048
rand_sets[28]: 1450
Assign rand_sets[29]: 1160  LLC: 2048
rand_sets[29]: 1160
Assign rand_sets[30]: 1852  LLC: 2048
rand_sets[30]: 1852
Assign rand_sets[31]: 1881  LLC: 2048
rand_sets[31]: 1881
Assign rand_sets[32]: 1770  LLC: 2048
rand_sets[32]: 1770
Assign rand_sets[33]: 1622  LLC: 2048
rand_sets[33]: 1622
Assign rand_sets[34]: 275  LLC: 2048
rand_sets[34]: 275
Assign rand_sets[35]: 635  LLC: 2048
rand_sets[35]: 635
Assign rand_sets[36]: 466  LLC: 2048
rand_sets[36]: 466
Assign rand_sets[37]: 1413  LLC: 2048
rand_sets[37]: 1413
Assign rand_sets[38]: 417  LLC: 2048
rand_sets[38]: 417
Assign rand_sets[39]: 472  LLC: 2048
rand_sets[39]: 472
Assign rand_sets[40]: 1340  LLC: 2048
rand_sets[40]: 1340
Assign rand_sets[41]: 852  LLC: 2048
rand_sets[41]: 852
Assign rand_sets[42]: 1365  LLC: 2048
rand_sets[42]: 1365
Assign rand_sets[43]: 47  LLC: 2048
rand_sets[43]: 47
Assign rand_sets[44]: 823  LLC: 2048
rand_sets[44]: 823
Assign rand_sets[45]: 686  LLC: 2048
rand_sets[45]: 686
Assign rand_sets[46]: 1637  LLC: 2048
rand_sets[46]: 1637
Assign rand_sets[47]: 1115  LLC: 2048
rand_sets[47]: 1115
Assign rand_sets[48]: 986  LLC: 2048
rand_sets[48]: 986
Assign rand_sets[49]: 258  LLC: 2048
rand_sets[49]: 258
Assign rand_sets[50]: 633  LLC: 2048
rand_sets[50]: 633
Assign rand_sets[51]: 920  LLC: 2048
rand_sets[51]: 920
Assign rand_sets[52]: 204  LLC: 2048
rand_sets[52]: 204
Assign rand_sets[53]: 227  LLC: 2048
rand_sets[53]: 227
Assign rand_sets[54]: 1818  LLC: 2048
rand_sets[54]: 1818
Assign rand_sets[55]: 886  LLC: 2048
rand_sets[55]: 886
Assign rand_sets[56]: 1422  LLC: 2048
rand_sets[56]: 1422
Assign rand_sets[57]: 607  LLC: 2048
rand_sets[57]: 607
Assign rand_sets[58]: 217  LLC: 2048
rand_sets[58]: 217
Assign rand_sets[59]: 1945  LLC: 2048
rand_sets[59]: 1945
Assign rand_sets[60]: 143  LLC: 2048
rand_sets[60]: 143
Assign rand_sets[61]: 1311  LLC: 2048
rand_sets[61]: 1311
Assign rand_sets[62]: 319  LLC: 2048
rand_sets[62]: 319
Assign rand_sets[63]: 1846  LLC: 2048
rand_sets[63]: 1846
 CLEAN-RRIP-POLICY-1: 1-1-1-3-1-0-0-1- CLEAN-RRIP-POLICY-2: 1-1-1-3-1-0-0-1-
 DIRTY-RRIP-POLICY-1: 1-1-0-3-1-0-0-1- DIRTY-RRIP-POLICY-2: 1-1-0-3-1-0-0-1-
 PSEL width: 10
Heartbeat CPU 0 instructions: 10000001 cycles: 7315978 heartbeat IPC: 1.36687 cumulative IPC: 1.36687 (Simulation time: 0 hr 0 min 15 sec) 
Heartbeat CPU 0 instructions: 20000000 cycles: 14307480 heartbeat IPC: 1.43031 cumulative IPC: 1.39787 (Simulation time: 0 hr 0 min 30 sec) 
Heartbeat CPU 0 instructions: 30000001 cycles: 21020279 heartbeat IPC: 1.48969 cumulative IPC: 1.42719 (Simulation time: 0 hr 0 min 46 sec) 
Heartbeat CPU 0 instructions: 40000000 cycles: 27481031 heartbeat IPC: 1.54781 cumulative IPC: 1.45555 (Simulation time: 0 hr 1 min 2 sec) 
Heartbeat CPU 0 instructions: 50000001 cycles: 33582661 heartbeat IPC: 1.63891 cumulative IPC: 1.48886 (Simulation time: 0 hr 1 min 18 sec) 
Heartbeat CPU 0 instructions: 60000000 cycles: 40063750 heartbeat IPC: 1.54295 cumulative IPC: 1.49761 (Simulation time: 0 hr 1 min 34 sec) 
Heartbeat CPU 0 instructions: 70000000 cycles: 47101003 heartbeat IPC: 1.42101 cumulative IPC: 1.48617 (Simulation time: 0 hr 1 min 49 sec) 
Heartbeat CPU 0 instructions: 80000000 cycles: 54190287 heartbeat IPC: 1.41058 cumulative IPC: 1.47628 (Simulation time: 0 hr 2 min 4 sec) 
Heartbeat CPU 0 instructions: 90000003 cycles: 61194402 heartbeat IPC: 1.42773 cumulative IPC: 1.47072 (Simulation time: 0 hr 2 min 19 sec) 
Heartbeat CPU 0 instructions: 100000000 cycles: 68361299 heartbeat IPC: 1.3953 cumulative IPC: 1.46282 (Simulation time: 0 hr 2 min 34 sec) 

Warmup complete CPU 0 instructions: 100000004 cycles: 68361300 (Simulation time: 0 hr 2 min 34 sec) 

Heartbeat CPU 0 instructions: 110000003 cycles: 95944346 heartbeat IPC: 0.362542 cumulative IPC: 0.362541 (Simulation time: 0 hr 3 min 4 sec) 
Heartbeat CPU 0 instructions: 120000000 cycles: 123372807 heartbeat IPC: 0.364585 cumulative IPC: 0.36356 (Simulation time: 0 hr 3 min 34 sec) 
Heartbeat CPU 0 instructions: 130000000 cycles: 148319163 heartbeat IPC: 0.40086 cumulative IPC: 0.375198 (Simulation time: 0 hr 4 min 3 sec) 
Heartbeat CPU 0 instructions: 140000000 cycles: 177633058 heartbeat IPC: 0.341135 cumulative IPC: 0.36606 (Simulation time: 0 hr 4 min 33 sec) 
Heartbeat CPU 0 instructions: 150000000 cycles: 207415908 heartbeat IPC: 0.335764 cumulative IPC: 0.359571 (Simulation time: 0 hr 5 min 2 sec) 
Heartbeat CPU 0 instructions: 160000000 cycles: 234792192 heartbeat IPC: 0.36528 cumulative IPC: 0.36051 (Simulation time: 0 hr 5 min 31 sec) 
Heartbeat CPU 0 instructions: 170000001 cycles: 262749326 heartbeat IPC: 0.35769 cumulative IPC: 0.360104 (Simulation time: 0 hr 6 min 2 sec) 
Heartbeat CPU 0 instructions: 180000000 cycles: 291119230 heartbeat IPC: 0.352486 cumulative IPC: 0.359134 (Simulation time: 0 hr 6 min 32 sec) 
Heartbeat CPU 0 instructions: 190000002 cycles: 319021575 heartbeat IPC: 0.358393 cumulative IPC: 0.359052 (Simulation time: 0 hr 7 min 2 sec) 
Heartbeat CPU 0 instructions: 200000000 cycles: 347301700 heartbeat IPC: 0.353605 cumulative IPC: 0.358499 (Simulation time: 0 hr 7 min 32 sec) 
Heartbeat CPU 0 instructions: 210000002 cycles: 375051793 heartbeat IPC: 0.360359 cumulative IPC: 0.358668 (Simulation time: 0 hr 8 min 2 sec) 
Heartbeat CPU 0 instructions: 220000000 cycles: 404047096 heartbeat IPC: 0.344883 cumulative IPC: 0.357477 (Simulation time: 0 hr 8 min 30 sec) 
Heartbeat CPU 0 instructions: 230000000 cycles: 431522425 heartbeat IPC: 0.363963 cumulative IPC: 0.357968 (Simulation time: 0 hr 8 min 59 sec) 
Heartbeat CPU 0 instructions: 240000000 cycles: 457432369 heartbeat IPC: 0.385952 cumulative IPC: 0.359831 (Simulation time: 0 hr 9 min 27 sec) 
Heartbeat CPU 0 instructions: 250000000 cycles: 487489974 heartbeat IPC: 0.332695 cumulative IPC: 0.357885 (Simulation time: 0 hr 9 min 58 sec) 
Heartbeat CPU 0 instructions: 260000000 cycles: 514540279 heartbeat IPC: 0.369682 cumulative IPC: 0.3586 (Simulation time: 0 hr 10 min 28 sec) 
Heartbeat CPU 0 instructions: 270000003 cycles: 542862825 heartbeat IPC: 0.353076 cumulative IPC: 0.358271 (Simulation time: 0 hr 10 min 58 sec) 
Heartbeat CPU 0 instructions: 280000000 cycles: 570914493 heartbeat IPC: 0.356485 cumulative IPC: 0.358171 (Simulation time: 0 hr 11 min 29 sec) 
Heartbeat CPU 0 instructions: 290000000 cycles: 599697649 heartbeat IPC: 0.347425 cumulative IPC: 0.357589 (Simulation time: 0 hr 12 min 0 sec) 
Heartbeat CPU 0 instructions: 300000000 cycles: 629379706 heartbeat IPC: 0.336904 cumulative IPC: 0.356495 (Simulation time: 0 hr 12 min 29 sec) 
Heartbeat CPU 0 instructions: 310000001 cycles: 658668834 heartbeat IPC: 0.341424 cumulative IPC: 0.355747 (Simulation time: 0 hr 12 min 59 sec) 
Heartbeat CPU 0 instructions: 320000000 cycles: 686754410 heartbeat IPC: 0.356055 cumulative IPC: 0.355761 (Simulation time: 0 hr 13 min 28 sec) 
Heartbeat CPU 0 instructions: 330000000 cycles: 715300591 heartbeat IPC: 0.35031 cumulative IPC: 0.35552 (Simulation time: 0 hr 13 min 57 sec) 
Heartbeat CPU 0 instructions: 340000000 cycles: 744491145 heartbeat IPC: 0.342577 cumulative IPC: 0.354961 (Simulation time: 0 hr 14 min 27 sec) 
Heartbeat CPU 0 instructions: 350000003 cycles: 771441908 heartbeat IPC: 0.371047 cumulative IPC: 0.355578 (Simulation time: 0 hr 14 min 56 sec) 
Heartbeat CPU 0 instructions: 360000000 cycles: 799461010 heartbeat IPC: 0.356899 cumulative IPC: 0.355629 (Simulation time: 0 hr 15 min 24 sec) 
Heartbeat CPU 0 instructions: 370000000 cycles: 827628506 heartbeat IPC: 0.355019 cumulative IPC: 0.355606 (Simulation time: 0 hr 15 min 52 sec) 
Heartbeat CPU 0 instructions: 380000000 cycles: 856114620 heartbeat IPC: 0.351048 cumulative IPC: 0.355441 (Simulation time: 0 hr 16 min 21 sec) 
Heartbeat CPU 0 instructions: 390000001 cycles: 883709121 heartbeat IPC: 0.362391 cumulative IPC: 0.355676 (Simulation time: 0 hr 16 min 49 sec) 
Heartbeat CPU 0 instructions: 400000000 cycles: 912334865 heartbeat IPC: 0.349336 cumulative IPC: 0.355461 (Simulation time: 0 hr 17 min 17 sec) 
Heartbeat CPU 0 instructions: 410000001 cycles: 939642437 heartbeat IPC: 0.366199 cumulative IPC: 0.355798 (Simulation time: 0 hr 17 min 46 sec) 
Heartbeat CPU 0 instructions: 420000000 cycles: 966952328 heartbeat IPC: 0.366168 cumulative IPC: 0.356113 (Simulation time: 0 hr 18 min 14 sec) 
Heartbeat CPU 0 instructions: 430000002 cycles: 994626474 heartbeat IPC: 0.361348 cumulative IPC: 0.356269 (Simulation time: 0 hr 18 min 42 sec) 
Heartbeat CPU 0 instructions: 440000000 cycles: 1024072107 heartbeat IPC: 0.339609 cumulative IPC: 0.355756 (Simulation time: 0 hr 19 min 11 sec) 
Heartbeat CPU 0 instructions: 450000002 cycles: 1053287661 heartbeat IPC: 0.342283 cumulative IPC: 0.355357 (Simulation time: 0 hr 19 min 39 sec) 
Heartbeat CPU 0 instructions: 460000000 cycles: 1080968147 heartbeat IPC: 0.361265 cumulative IPC: 0.355518 (Simulation time: 0 hr 20 min 8 sec) 
Heartbeat CPU 0 instructions: 470000000 cycles: 1108603980 heartbeat IPC: 0.361849 cumulative IPC: 0.355686 (Simulation time: 0 hr 20 min 36 sec) 
Heartbeat CPU 0 instructions: 480000000 cycles: 1136488092 heartbeat IPC: 0.358627 cumulative IPC: 0.355763 (Simulation time: 0 hr 21 min 4 sec) 
Heartbeat CPU 0 instructions: 490000000 cycles: 1164085565 heartbeat IPC: 0.362352 cumulative IPC: 0.355929 (Simulation time: 0 hr 21 min 33 sec) 
Heartbeat CPU 0 instructions: 500000000 cycles: 1192344455 heartbeat IPC: 0.353871 cumulative IPC: 0.355877 (Simulation time: 0 hr 22 min 1 sec) 
Heartbeat CPU 0 instructions: 510000000 cycles: 1227536856 heartbeat IPC: 0.284152 cumulative IPC: 0.3537 (Simulation time: 0 hr 22 min 34 sec) 
Heartbeat CPU 0 instructions: 520000000 cycles: 1255500707 heartbeat IPC: 0.357605 cumulative IPC: 0.353792 (Simulation time: 0 hr 23 min 3 sec) 
Heartbeat CPU 0 instructions: 530000001 cycles: 1284683490 heartbeat IPC: 0.342668 cumulative IPC: 0.353525 (Simulation time: 0 hr 23 min 32 sec) 
Heartbeat CPU 0 instructions: 540000000 cycles: 1312648914 heartbeat IPC: 0.357584 cumulative IPC: 0.353616 (Simulation time: 0 hr 24 min 2 sec) 
Heartbeat CPU 0 instructions: 550000001 cycles: 1341806391 heartbeat IPC: 0.342965 cumulative IPC: 0.353372 (Simulation time: 0 hr 24 min 33 sec) 
Heartbeat CPU 0 instructions: 560000000 cycles: 1367143209 heartbeat IPC: 0.394683 cumulative IPC: 0.354178 (Simulation time: 0 hr 25 min 1 sec) 
Heartbeat CPU 0 instructions: 570000000 cycles: 1396461636 heartbeat IPC: 0.341082 cumulative IPC: 0.353889 (Simulation time: 0 hr 25 min 31 sec) 
Heartbeat CPU 0 instructions: 580000000 cycles: 1424341492 heartbeat IPC: 0.358682 cumulative IPC: 0.353987 (Simulation time: 0 hr 26 min 1 sec) 
Heartbeat CPU 0 instructions: 590000001 cycles: 1449098686 heartbeat IPC: 0.403923 cumulative IPC: 0.354883 (Simulation time: 0 hr 26 min 29 sec) 
Heartbeat CPU 0 instructions: 600000000 cycles: 1475219903 heartbeat IPC: 0.382831 cumulative IPC: 0.355402 (Simulation time: 0 hr 26 min 57 sec) 
Finished CPU 0 instructions: 500000000 cycles: 1406858625 cumulative IPC: 0.355402 (Simulation time: 0 hr 26 min 57 sec) 

CPU 0 Branch Prediction Accuracy: 86.4311% MPKI: 26.2662
Number of Branches: 96788573 Number of Mispredictions: 13133102
Number of LOAD Instructions: 164682285
Number of LOAD Instructions (ROI): 164682285
Number of STORE Instructions: 78194750
Number of STORE Instructions (ROI): 78194750
Total Destination Memory Operands: 83268534
Total Destination Memory Operands (ROI): 83268534
Total Source Memory Operands: 164712438
Total Source Memory Operands (ROI): 164712438
Number of DEPENDED LOADS: 7061711
Number of DEPENDED LOADS (ROI): 7061711
Number of SQ_ADDED: 83268522
Number of SQ_ADDED (ROI): 83268522
Number of LQ_ADDED: 236702782
Number of LQ_ADDED (ROI): 236702782
Number of Instructions read from trace: 600000066

ChampSim completed all CPUs

Region of Interest Statistics

CPU 0 cumulative IPC: 0.355402 instructions: 500000000 cycles: 1406858625
ITLB TOTAL     ACCESS:  100509049  HIT:  100304603  MISS:     204446
ITLB LOAD      ACCESS:  100509049  HIT:  100304603  MISS:     204446
ITLB RFO       ACCESS:          0  HIT:          0  MISS:          0
ITLB PREFETCH  ACCESS:          0  HIT:          0  MISS:          0
ITLB WRITEBACK ACCESS:          0  HIT:          0  MISS:          0
ITLB PREFETCH  REQUESTED:          0  ISSUED:          0  USEFUL:          0  USELESS:          0
ITLB TOTAL MSHR MERGED:     172424
ITLB LOAD MSHR MERGED:     172424
ITLB RFO MSHR MERGED:          0
ITLB PREFETCH MSHR MERGED:          0
ITLB WRITEBACK MSHR MERGED:          0
ITLB TOTAL ACCESSES:  100681473 HITS:  100304603 MISSES:     376870
ITLB LOAD ACCESSES:  100681473 HITS:  100304603 MISSES:     376870
ITLB RFO ACCESSES:          0 HITS:          0 MISSES:          0
ITLB PREFETCH ACCESSES:          0 HITS:          0 MISSES:          0
ITLB WRITEBACK ACCESSES:          0 HITS:          0 MISSES:          0
ITLB RQ ACCESS:  500000057
ITLB RQ TO_CACHE:  100681473
ITLB RQ MERGED:  399318584
ITLB RQ FORWARD:          0
ITLB WQ ACCESS:          0
ITLB WQ TO_CACHE:          0
ITLB WQ MERGED:          0
ITLB WQ FORWARD:          0
DTLB TOTAL     ACCESS:  165333850  HIT:  164699501  MISS:     634349
DTLB LOAD      ACCESS:  106290202  HIT:  105720208  MISS:     569994
DTLB RFO       ACCESS:   59043648  HIT:   58979293  MISS:      64355
DTLB PREFETCH  ACCESS:          0  HIT:          0  MISS:          0
DTLB WRITEBACK ACCESS:          0  HIT:          0  MISS:          0
DTLB PREFETCH  REQUESTED:          0  ISSUED:          0  USEFUL:          0  USELESS:          0
DTLB TOTAL MSHR MERGED:     100021
DTLB LOAD MSHR MERGED:      59479
DTLB RFO MSHR MERGED:      40542
DTLB PREFETCH MSHR MERGED:          0
DTLB WRITEBACK MSHR MERGED:          0
DTLB TOTAL ACCESSES:  165433871 HITS:  164699501 MISSES:     734370
DTLB LOAD ACCESSES:  106349681 HITS:  105720208 MISSES:     629473
DTLB RFO ACCESSES:   59084190 HITS:   58979293 MISSES:     104897
DTLB PREFETCH ACCESSES:          0 HITS:          0 MISSES:          0
DTLB WRITEBACK ACCESSES:          0 HITS:          0 MISSES:          0
DTLB RQ ACCESS:  200309199
DTLB RQ TO_CACHE:  165433871
DTLB RQ MERGED:   34875328
DTLB RQ FORWARD:          0
DTLB WQ ACCESS:          0
DTLB WQ TO_CACHE:          0
DTLB WQ MERGED:          0
DTLB WQ FORWARD:          0
L1D TOTAL     ACCESS:  281810068  HIT:  273900775  MISS:    7909293
L1D LOAD      ACCESS:  110413211  HIT:  107134961  MISS:    3278250
L1D RFO       ACCESS:   67106004  HIT:   66214979  MISS:     891025
L1D PREFETCH  ACCESS:  104290853  HIT:  100550835  MISS:    3740018
L1D WRITEBACK ACCESS:          0  HIT:          0  MISS:          0
L1D PREFETCH  REQUESTED:  110814596  ISSUED:  109115323  USEFUL:    1660804  USELESS:    2079178
L1D TOTAL MSHR MERGED:    2888833
L1D LOAD MSHR MERGED:     499058
L1D RFO MSHR MERGED:    1880343
L1D PREFETCH MSHR MERGED:     509432
L1D WRITEBACK MSHR MERGED:          0
L1D TOTAL ACCESSES:  284726453 HITS:  273928327 MISSES:   10798126
L1D LOAD ACCESSES:  110816129 HITS:  107136494 MISSES:    3679635
L1D RFO ACCESSES:   68974114 HITS:   66214979 MISSES:    2759135
L1D PREFETCH ACCESSES:  104936210 HITS:  100576854 MISSES:    4359356
L1D WRITEBACK ACCESSES:          0 HITS:          0 MISSES:          0
L1D RQ ACCESS:  130756596
L1D RQ TO_CACHE:  110814599
L1D RQ MERGED:   19940464
L1D RQ FORWARD:          0
L1D WQ ACCESS:   69552603
L1D WQ TO_CACHE:   68974115
L1D WQ MERGED:     578488
L1D WQ FORWARD:      27552
L1I TOTAL     ACCESS:  126556891  HIT:  122318337  MISS:    4238554
L1I LOAD      ACCESS:  126556891  HIT:  122318337  MISS:    4238554
L1I RFO       ACCESS:          0  HIT:          0  MISS:          0
L1I PREFETCH  ACCESS:          0  HIT:          0  MISS:          0
L1I WRITEBACK ACCESS:          0  HIT:          0  MISS:          0
L1I PREFETCH  REQUESTED:          0  ISSUED:          0  USEFUL:          0  USELESS:          0
L1I TOTAL MSHR MERGED:    1834423
L1I LOAD MSHR MERGED:    1834423
L1I RFO MSHR MERGED:          0
L1I PREFETCH MSHR MERGED:          0
L1I WRITEBACK MSHR MERGED:          0
L1I TOTAL ACCESSES:  128391317 HITS:  122318337 MISSES:    6072980
L1I LOAD ACCESSES:  128391317 HITS:  122318337 MISSES:    6072980
L1I RFO ACCESSES:          0 HITS:          0 MISSES:          0
L1I PREFETCH ACCESSES:          0 HITS:          0 MISSES:          0
L1I WRITEBACK ACCESSES:          0 HITS:          0 MISSES:          0
L1I RQ ACCESS:  500000057
L1I RQ TO_CACHE:  128391317
L1I RQ MERGED:  371608740
L1I RQ FORWARD:          0
L1I WQ ACCESS:          0
L1I WQ TO_CACHE:          0
L1I WQ MERGED:          0
L1I WQ FORWARD:          0
L2C TOTAL     ACCESS:   14904619  HIT:   11158197  MISS:    3746422
L2C LOAD      ACCESS:    7418921  HIT:    5098760  MISS:    2320161
L2C RFO       ACCESS:     878694  HIT:     409909  MISS:     468785
L2C PREFETCH  ACCESS:    4567772  HIT:    3627551  MISS:     940221
L2C WRITEBACK ACCESS:    2039232  HIT:    2021977  MISS:      17255
L2C PREFETCH  REQUESTED:     842739  ISSUED:     842739  USEFUL:     203224  USELESS:     736703
L2C TOTAL MSHR MERGED:       7566
L2C LOAD MSHR MERGED:        910
L2C RFO MSHR MERGED:          0
L2C PREFETCH MSHR MERGED:       6656
L2C WRITEBACK MSHR MERGED:          0
L2C TOTAL ACCESSES:   14913110 HITS:   11158646 MISSES:    3754464
L2C LOAD ACCESSES:    7419131 HITS:    5098970 MISSES:    2320161
L2C RFO ACCESSES:     878792 HITS:     410007 MISSES:     468785
L2C PREFETCH ACCESSES:    4575955 HITS:    3627692 MISSES:     948263
L2C WRITEBACK ACCESSES:    2039232 HITS:    2021977 MISSES:      17255
L2C RQ ACCESS:    8297926
L2C RQ TO_CACHE:    8297618
L2C RQ MERGED:          0
L2C RQ FORWARD:          0
L2C WQ ACCESS:    2039232
L2C WQ TO_CACHE:    2039232
L2C WQ MERGED:          0
L2C WQ FORWARD:        449
LLC TOTAL     ACCESS:    4609742  HIT:    3976726  MISS:     633016
LLC LOAD      ACCESS:    2319237  HIT:    2104196  MISS:     215041
LLC RFO       ACCESS:     468774  HIT:     386114  MISS:      82660
LLC PREFETCH  ACCESS:     941470  HIT:     642865  MISS:     298605
LLC WRITEBACK ACCESS:     880261  HIT:     843551  MISS:      36710
LLC PREFETCH  REQUESTED:          0  ISSUED:          0  USEFUL:      16812  USELESS:     282638
LLC TOTAL MSHR MERGED:        116
LLC LOAD MSHR MERGED:         41
LLC RFO MSHR MERGED:          0
LLC PREFETCH MSHR MERGED:         75
LLC WRITEBACK MSHR MERGED:          0
LLC TOTAL ACCESSES:    4609893 HITS:    3976761 MISSES:     633132
LLC LOAD ACCESSES:    2319251 HITS:    2104210 MISSES:     215041
LLC RFO ACCESSES:     468785 HITS:     386125 MISSES:      82660
LLC PREFETCH ACCESSES:     941596 HITS:     642875 MISSES:     298721
LLC WRITEBACK ACCESSES:     880261 HITS:     843551 MISSES:      36710
LLC 0 RQ ACCESS:    2788036
LLC 0 RQ TO_CACHE:    2788011
LLC 0 RQ MERGED:          0
LLC 0 RQ FORWARD:          0
LLC WQ ACCESS:     880261
LLC WQ TO_CACHE:     880261
LLC WQ MERGED:          0
LLC WQ FORWARD:         35
Major fault: 0 Minor fault: 12862
CPU 0 L1D next line prefetcher final stats
CPU 0 L2C PC-based stride prefetcher final stats
All Misses: 744555
All Hits: 4682193
SD Algo Stats - Switches: 0 SRR-Repls: 251775 BRR-Repls: 0

DRAM Statistics
 CHANNEL 0
 RQ ROW_BUFFER_HIT:     116339  ROW_BUFFER_MISS:     478775
 DBUS_CONGESTED:     391409
 WQ ROW_BUFFER_HIT:      20468  ROW_BUFFER_MISS:     203992  FULL:          0

 AVG_CONGESTED_CYCLE: 13
LOADS RETIRED: 136549171
INSTR RETIRED: 500000000
