
*** ChampSim Multicore Out-of-Order Simulator ***

Warmup Instructions: 100000000
Simulation Instructions: 500000000
Number of CPUs: 1
LLC sets: 2048
LLC ways: 16
Clean RRIP Policies: 313102303131023 Dirty RRIP Policies: 2323201323232013 PSEL Width: 10 Track Set: 4294967295 PSEL Mask: 1 Demote Mask: 2030143320301433DS Algo: 0Window size: 0
Off-chip DRAM Size: 4096 MB Channels: 1 Width: 64-bit Data Rate: 1600 MT/s

CPU 0 runs /mnt/beegfs/iconst01/spec2017/Gcc.trace.gz
NOT SORTED
TRACE STRING: /mnt/beegfs/iconst01/spec2017/Gcc.trace.gz
SORTED
TRACE STRING: /mnt/beegfs/iconst01/spec2017/Gcc.trace.gz
INITIAL
TRACE STRING: /mnt/beegfs/iconst01/spec2017/Gcc.trace.gz

champsim_seed used: 269

CPU 0 L1D next line prefetcher
CPU 0 L2C IP-based stride prefetcher
Initialize DRRIP state
Assign rand_sets[0]: 454  LLC: 2048
rand_sets[0]: 454
Assign rand_sets[1]: 1662  LLC: 2048
rand_sets[1]: 1662
Assign rand_sets[2]: 1921  LLC: 2048
rand_sets[2]: 1921
Assign rand_sets[3]: 1131  LLC: 2048
rand_sets[3]: 1131
Assign rand_sets[4]: 331  LLC: 2048
rand_sets[4]: 331
Assign rand_sets[5]: 1531  LLC: 2048
rand_sets[5]: 1531
Assign rand_sets[6]: 482  LLC: 2048
rand_sets[6]: 482
Assign rand_sets[7]: 1275  LLC: 2048
rand_sets[7]: 1275
Assign rand_sets[8]: 1876  LLC: 2048
rand_sets[8]: 1876
Assign rand_sets[9]: 2038  LLC: 2048
rand_sets[9]: 2038
Assign rand_sets[10]: 701  LLC: 2048
rand_sets[10]: 701
Assign rand_sets[11]: 479  LLC: 2048
rand_sets[11]: 479
Assign rand_sets[12]: 892  LLC: 2048
rand_sets[12]: 892
Assign rand_sets[13]: 1820  LLC: 2048
rand_sets[13]: 1820
Assign rand_sets[14]: 1505  LLC: 2048
rand_sets[14]: 1505
Assign rand_sets[15]: 1159  LLC: 2048
rand_sets[15]: 1159
Assign rand_sets[16]: 513  LLC: 2048
rand_sets[16]: 513
Assign rand_sets[17]: 703  LLC: 2048
rand_sets[17]: 703
Assign rand_sets[18]: 561  LLC: 2048
rand_sets[18]: 561
Assign rand_sets[19]: 990  LLC: 2048
rand_sets[19]: 990
Assign rand_sets[20]: 342  LLC: 2048
rand_sets[20]: 342
Assign rand_sets[21]: 882  LLC: 2048
rand_sets[21]: 882
Assign rand_sets[22]: 15  LLC: 2048
rand_sets[22]: 15
Assign rand_sets[23]: 71  LLC: 2048
rand_sets[23]: 71
Assign rand_sets[24]: 1127  LLC: 2048
rand_sets[24]: 1127
Assign rand_sets[25]: 1382  LLC: 2048
rand_sets[25]: 1382
Assign rand_sets[26]: 647  LLC: 2048
rand_sets[26]: 647
Assign rand_sets[27]: 857  LLC: 2048
rand_sets[27]: 857
Assign rand_sets[28]: 1450  LLC: 2048
rand_sets[28]: 1450
Assign rand_sets[29]: 1160  LLC: 2048
rand_sets[29]: 1160
Assign rand_sets[30]: 1852  LLC: 2048
rand_sets[30]: 1852
Assign rand_sets[31]: 1881  LLC: 2048
rand_sets[31]: 1881
Assign rand_sets[32]: 1770  LLC: 2048
rand_sets[32]: 1770
Assign rand_sets[33]: 1622  LLC: 2048
rand_sets[33]: 1622
Assign rand_sets[34]: 275  LLC: 2048
rand_sets[34]: 275
Assign rand_sets[35]: 635  LLC: 2048
rand_sets[35]: 635
Assign rand_sets[36]: 466  LLC: 2048
rand_sets[36]: 466
Assign rand_sets[37]: 1413  LLC: 2048
rand_sets[37]: 1413
Assign rand_sets[38]: 417  LLC: 2048
rand_sets[38]: 417
Assign rand_sets[39]: 472  LLC: 2048
rand_sets[39]: 472
Assign rand_sets[40]: 1340  LLC: 2048
rand_sets[40]: 1340
Assign rand_sets[41]: 852  LLC: 2048
rand_sets[41]: 852
Assign rand_sets[42]: 1365  LLC: 2048
rand_sets[42]: 1365
Assign rand_sets[43]: 47  LLC: 2048
rand_sets[43]: 47
Assign rand_sets[44]: 823  LLC: 2048
rand_sets[44]: 823
Assign rand_sets[45]: 686  LLC: 2048
rand_sets[45]: 686
Assign rand_sets[46]: 1637  LLC: 2048
rand_sets[46]: 1637
Assign rand_sets[47]: 1115  LLC: 2048
rand_sets[47]: 1115
Assign rand_sets[48]: 986  LLC: 2048
rand_sets[48]: 986
Assign rand_sets[49]: 258  LLC: 2048
rand_sets[49]: 258
Assign rand_sets[50]: 633  LLC: 2048
rand_sets[50]: 633
Assign rand_sets[51]: 920  LLC: 2048
rand_sets[51]: 920
Assign rand_sets[52]: 204  LLC: 2048
rand_sets[52]: 204
Assign rand_sets[53]: 227  LLC: 2048
rand_sets[53]: 227
Assign rand_sets[54]: 1818  LLC: 2048
rand_sets[54]: 1818
Assign rand_sets[55]: 886  LLC: 2048
rand_sets[55]: 886
Assign rand_sets[56]: 1422  LLC: 2048
rand_sets[56]: 1422
Assign rand_sets[57]: 607  LLC: 2048
rand_sets[57]: 607
Assign rand_sets[58]: 217  LLC: 2048
rand_sets[58]: 217
Assign rand_sets[59]: 1945  LLC: 2048
rand_sets[59]: 1945
Assign rand_sets[60]: 143  LLC: 2048
rand_sets[60]: 143
Assign rand_sets[61]: 1311  LLC: 2048
rand_sets[61]: 1311
Assign rand_sets[62]: 319  LLC: 2048
rand_sets[62]: 319
Assign rand_sets[63]: 1846  LLC: 2048
rand_sets[63]: 1846
 CLEAN-RRIP-POLICY-1: 0-3-1-3-1-0-2-3- CLEAN-RRIP-POLICY-2: 0-3-1-3-1-0-2-3-
 DIRTY-RRIP-POLICY-1: 2-3-2-3-2-0-1-3- DIRTY-RRIP-POLICY-2: 2-3-2-3-2-0-1-3-
 PSEL width: 10
Heartbeat CPU 0 instructions: 10000001 cycles: 7321625 heartbeat IPC: 1.36582 cumulative IPC: 1.36582 (Simulation time: 0 hr 0 min 17 sec) 
Heartbeat CPU 0 instructions: 20000000 cycles: 14328006 heartbeat IPC: 1.42727 cumulative IPC: 1.39587 (Simulation time: 0 hr 0 min 35 sec) 
Heartbeat CPU 0 instructions: 30000001 cycles: 21045401 heartbeat IPC: 1.48867 cumulative IPC: 1.42549 (Simulation time: 0 hr 0 min 54 sec) 
Heartbeat CPU 0 instructions: 40000000 cycles: 27507828 heartbeat IPC: 1.54741 cumulative IPC: 1.45413 (Simulation time: 0 hr 1 min 13 sec) 
Heartbeat CPU 0 instructions: 50000001 cycles: 33610819 heartbeat IPC: 1.63854 cumulative IPC: 1.48762 (Simulation time: 0 hr 1 min 31 sec) 
Heartbeat CPU 0 instructions: 60000000 cycles: 40093199 heartbeat IPC: 1.54264 cumulative IPC: 1.49651 (Simulation time: 0 hr 1 min 50 sec) 
Heartbeat CPU 0 instructions: 70000000 cycles: 47136602 heartbeat IPC: 1.41977 cumulative IPC: 1.48505 (Simulation time: 0 hr 2 min 8 sec) 
Heartbeat CPU 0 instructions: 80000000 cycles: 54232267 heartbeat IPC: 1.40931 cumulative IPC: 1.47514 (Simulation time: 0 hr 2 min 25 sec) 
Heartbeat CPU 0 instructions: 90000003 cycles: 61242667 heartbeat IPC: 1.42645 cumulative IPC: 1.46956 (Simulation time: 0 hr 2 min 43 sec) 
Heartbeat CPU 0 instructions: 100000000 cycles: 68415667 heartbeat IPC: 1.39412 cumulative IPC: 1.46165 (Simulation time: 0 hr 3 min 0 sec) 

Warmup complete CPU 0 instructions: 100000004 cycles: 68415668 (Simulation time: 0 hr 3 min 0 sec) 

Heartbeat CPU 0 instructions: 110000003 cycles: 96903479 heartbeat IPC: 0.351027 cumulative IPC: 0.351027 (Simulation time: 0 hr 3 min 35 sec) 
Heartbeat CPU 0 instructions: 120000000 cycles: 124606357 heartbeat IPC: 0.360973 cumulative IPC: 0.355931 (Simulation time: 0 hr 4 min 10 sec) 
Heartbeat CPU 0 instructions: 130000000 cycles: 149821600 heartbeat IPC: 0.396586 cumulative IPC: 0.368523 (Simulation time: 0 hr 4 min 45 sec) 
Heartbeat CPU 0 instructions: 140000000 cycles: 180769620 heartbeat IPC: 0.323122 cumulative IPC: 0.356018 (Simulation time: 0 hr 5 min 19 sec) 
Heartbeat CPU 0 instructions: 150000000 cycles: 211566845 heartbeat IPC: 0.324705 cumulative IPC: 0.349281 (Simulation time: 0 hr 5 min 54 sec) 
Heartbeat CPU 0 instructions: 160000000 cycles: 239287145 heartbeat IPC: 0.360746 cumulative IPC: 0.351141 (Simulation time: 0 hr 6 min 28 sec) 
Heartbeat CPU 0 instructions: 170000001 cycles: 267669061 heartbeat IPC: 0.352337 cumulative IPC: 0.351311 (Simulation time: 0 hr 7 min 4 sec) 
Heartbeat CPU 0 instructions: 180000000 cycles: 296511410 heartbeat IPC: 0.346712 cumulative IPC: 0.35073 (Simulation time: 0 hr 7 min 40 sec) 
Heartbeat CPU 0 instructions: 190000002 cycles: 324999473 heartbeat IPC: 0.351024 cumulative IPC: 0.350763 (Simulation time: 0 hr 8 min 14 sec) 
Heartbeat CPU 0 instructions: 200000000 cycles: 353789000 heartbeat IPC: 0.347348 cumulative IPC: 0.350418 (Simulation time: 0 hr 8 min 50 sec) 
Heartbeat CPU 0 instructions: 210000002 cycles: 382084734 heartbeat IPC: 0.35341 cumulative IPC: 0.350688 (Simulation time: 0 hr 9 min 25 sec) 
Heartbeat CPU 0 instructions: 220000000 cycles: 412420069 heartbeat IPC: 0.329649 cumulative IPC: 0.348833 (Simulation time: 0 hr 9 min 59 sec) 
Heartbeat CPU 0 instructions: 230000000 cycles: 440485302 heartbeat IPC: 0.356313 cumulative IPC: 0.349397 (Simulation time: 0 hr 10 min 33 sec) 
Heartbeat CPU 0 instructions: 240000000 cycles: 466807623 heartbeat IPC: 0.379906 cumulative IPC: 0.351413 (Simulation time: 0 hr 11 min 6 sec) 
Heartbeat CPU 0 instructions: 250000000 cycles: 497030676 heartbeat IPC: 0.330873 cumulative IPC: 0.349964 (Simulation time: 0 hr 11 min 42 sec) 
Heartbeat CPU 0 instructions: 260000000 cycles: 524261567 heartbeat IPC: 0.36723 cumulative IPC: 0.350996 (Simulation time: 0 hr 12 min 16 sec) 
Heartbeat CPU 0 instructions: 270000003 cycles: 552893250 heartbeat IPC: 0.349264 cumulative IPC: 0.350893 (Simulation time: 0 hr 12 min 52 sec) 
Heartbeat CPU 0 instructions: 280000000 cycles: 581320863 heartbeat IPC: 0.351771 cumulative IPC: 0.350942 (Simulation time: 0 hr 13 min 28 sec) 
Heartbeat CPU 0 instructions: 290000000 cycles: 610447712 heartbeat IPC: 0.343326 cumulative IPC: 0.350533 (Simulation time: 0 hr 14 min 4 sec) 
Heartbeat CPU 0 instructions: 300000000 cycles: 641124851 heartbeat IPC: 0.325976 cumulative IPC: 0.349217 (Simulation time: 0 hr 14 min 39 sec) 
Heartbeat CPU 0 instructions: 310000001 cycles: 671073017 heartbeat IPC: 0.33391 cumulative IPC: 0.348457 (Simulation time: 0 hr 15 min 13 sec) 
Heartbeat CPU 0 instructions: 320000000 cycles: 699959326 heartbeat IPC: 0.346185 cumulative IPC: 0.348353 (Simulation time: 0 hr 15 min 48 sec) 
Heartbeat CPU 0 instructions: 330000000 cycles: 729058467 heartbeat IPC: 0.343653 cumulative IPC: 0.348146 (Simulation time: 0 hr 16 min 22 sec) 
Heartbeat CPU 0 instructions: 340000000 cycles: 758875633 heartbeat IPC: 0.335377 cumulative IPC: 0.347594 (Simulation time: 0 hr 16 min 57 sec) 
Heartbeat CPU 0 instructions: 350000003 cycles: 786262974 heartbeat IPC: 0.365132 cumulative IPC: 0.348263 (Simulation time: 0 hr 17 min 31 sec) 
Heartbeat CPU 0 instructions: 360000000 cycles: 816435048 heartbeat IPC: 0.331432 cumulative IPC: 0.347585 (Simulation time: 0 hr 18 min 5 sec) 
Heartbeat CPU 0 instructions: 370000000 cycles: 846724524 heartbeat IPC: 0.330148 cumulative IPC: 0.346906 (Simulation time: 0 hr 18 min 39 sec) 
Heartbeat CPU 0 instructions: 380000000 cycles: 877356965 heartbeat IPC: 0.326451 cumulative IPC: 0.346131 (Simulation time: 0 hr 19 min 13 sec) 
Heartbeat CPU 0 instructions: 390000001 cycles: 907166856 heartbeat IPC: 0.335459 cumulative IPC: 0.345752 (Simulation time: 0 hr 19 min 47 sec) 
Heartbeat CPU 0 instructions: 400000000 cycles: 937849013 heartbeat IPC: 0.325922 cumulative IPC: 0.345052 (Simulation time: 0 hr 20 min 21 sec) 
Heartbeat CPU 0 instructions: 410000001 cycles: 967392535 heartbeat IPC: 0.338484 cumulative IPC: 0.344836 (Simulation time: 0 hr 20 min 55 sec) 
Heartbeat CPU 0 instructions: 420000000 cycles: 996957958 heartbeat IPC: 0.338233 cumulative IPC: 0.344626 (Simulation time: 0 hr 21 min 29 sec) 
Heartbeat CPU 0 instructions: 430000002 cycles: 1026938663 heartbeat IPC: 0.333548 cumulative IPC: 0.34428 (Simulation time: 0 hr 22 min 3 sec) 
Heartbeat CPU 0 instructions: 440000000 cycles: 1058082040 heartbeat IPC: 0.321095 cumulative IPC: 0.34355 (Simulation time: 0 hr 22 min 38 sec) 
Heartbeat CPU 0 instructions: 450000002 cycles: 1089053100 heartbeat IPC: 0.322882 cumulative IPC: 0.342923 (Simulation time: 0 hr 23 min 12 sec) 
Heartbeat CPU 0 instructions: 460000000 cycles: 1118940095 heartbeat IPC: 0.334594 cumulative IPC: 0.342686 (Simulation time: 0 hr 23 min 46 sec) 
Heartbeat CPU 0 instructions: 470000000 cycles: 1148522126 heartbeat IPC: 0.338043 cumulative IPC: 0.342559 (Simulation time: 0 hr 24 min 20 sec) 
Heartbeat CPU 0 instructions: 480000000 cycles: 1178357886 heartbeat IPC: 0.335168 cumulative IPC: 0.34236 (Simulation time: 0 hr 24 min 54 sec) 
Heartbeat CPU 0 instructions: 490000000 cycles: 1207895187 heartbeat IPC: 0.338555 cumulative IPC: 0.342262 (Simulation time: 0 hr 25 min 28 sec) 
Heartbeat CPU 0 instructions: 500000000 cycles: 1237825297 heartbeat IPC: 0.334112 cumulative IPC: 0.342053 (Simulation time: 0 hr 26 min 2 sec) 
Heartbeat CPU 0 instructions: 510000000 cycles: 1272734148 heartbeat IPC: 0.28646 cumulative IPC: 0.340441 (Simulation time: 0 hr 26 min 39 sec) 
Heartbeat CPU 0 instructions: 520000000 cycles: 1300704413 heartbeat IPC: 0.357523 cumulative IPC: 0.340829 (Simulation time: 0 hr 27 min 14 sec) 
Heartbeat CPU 0 instructions: 530000001 cycles: 1330823372 heartbeat IPC: 0.332017 cumulative IPC: 0.340619 (Simulation time: 0 hr 27 min 48 sec) 
Heartbeat CPU 0 instructions: 540000000 cycles: 1359460128 heartbeat IPC: 0.349202 cumulative IPC: 0.340809 (Simulation time: 0 hr 28 min 23 sec) 
Heartbeat CPU 0 instructions: 550000001 cycles: 1388780853 heartbeat IPC: 0.341056 cumulative IPC: 0.340815 (Simulation time: 0 hr 28 min 59 sec) 
Heartbeat CPU 0 instructions: 560000000 cycles: 1414388985 heartbeat IPC: 0.390501 cumulative IPC: 0.34176 (Simulation time: 0 hr 29 min 33 sec) 
Heartbeat CPU 0 instructions: 570000000 cycles: 1444318398 heartbeat IPC: 0.334119 cumulative IPC: 0.341594 (Simulation time: 0 hr 30 min 8 sec) 
Heartbeat CPU 0 instructions: 580000000 cycles: 1472760158 heartbeat IPC: 0.351596 cumulative IPC: 0.341796 (Simulation time: 0 hr 30 min 43 sec) 
Heartbeat CPU 0 instructions: 590000001 cycles: 1497854700 heartbeat IPC: 0.398493 cumulative IPC: 0.342792 (Simulation time: 0 hr 31 min 15 sec) 
Heartbeat CPU 0 instructions: 600000000 cycles: 1524753599 heartbeat IPC: 0.371762 cumulative IPC: 0.343327 (Simulation time: 0 hr 31 min 47 sec) 
Finished CPU 0 instructions: 500000000 cycles: 1456337953 cumulative IPC: 0.343327 (Simulation time: 0 hr 31 min 47 sec) 

CPU 0 Branch Prediction Accuracy: 86.4311% MPKI: 26.2662
Number of Branches: 96788573 Number of Mispredictions: 13133102
Number of LOAD Instructions: 164682285
Number of LOAD Instructions (ROI): 164682285
Number of STORE Instructions: 78194750
Number of STORE Instructions (ROI): 78194750
Total Destination Memory Operands: 83268534
Total Destination Memory Operands (ROI): 83268534
Total Source Memory Operands: 164712438
Total Source Memory Operands (ROI): 164712438
Number of DEPENDED LOADS: 7058664
Number of DEPENDED LOADS (ROI): 7058664
Number of SQ_ADDED: 83268522
Number of SQ_ADDED (ROI): 83268522
Number of LQ_ADDED: 236596941
Number of LQ_ADDED (ROI): 236596941
Number of Instructions read from trace: 600000066

ChampSim completed all CPUs

Region of Interest Statistics

CPU 0 cumulative IPC: 0.343327 instructions: 500000000 cycles: 1456337953
ITLB TOTAL     ACCESS:  100519187  HIT:  100314741  MISS:     204446
ITLB LOAD      ACCESS:  100519187  HIT:  100314741  MISS:     204446
ITLB RFO       ACCESS:          0  HIT:          0  MISS:          0
ITLB PREFETCH  ACCESS:          0  HIT:          0  MISS:          0
ITLB WRITEBACK ACCESS:          0  HIT:          0  MISS:          0
ITLB PREFETCH  REQUESTED:          0  ISSUED:          0  USEFUL:          0  USELESS:          0
ITLB TOTAL MSHR MERGED:     172424
ITLB LOAD MSHR MERGED:     172424
ITLB RFO MSHR MERGED:          0
ITLB PREFETCH MSHR MERGED:          0
ITLB WRITEBACK MSHR MERGED:          0
ITLB TOTAL ACCESSES:  100691611 HITS:  100314741 MISSES:     376870
ITLB LOAD ACCESSES:  100691611 HITS:  100314741 MISSES:     376870
ITLB RFO ACCESSES:          0 HITS:          0 MISSES:          0
ITLB PREFETCH ACCESSES:          0 HITS:          0 MISSES:          0
ITLB WRITEBACK ACCESSES:          0 HITS:          0 MISSES:          0
ITLB RQ ACCESS:  500000057
ITLB RQ TO_CACHE:  100691611
ITLB RQ MERGED:  399308446
ITLB RQ FORWARD:          0
ITLB WQ ACCESS:          0
ITLB WQ TO_CACHE:          0
ITLB WQ MERGED:          0
ITLB WQ FORWARD:          0
DTLB TOTAL     ACCESS:  165348309  HIT:  164713956  MISS:     634353
DTLB LOAD      ACCESS:  106299277  HIT:  105729263  MISS:     570014
DTLB RFO       ACCESS:   59049032  HIT:   58984693  MISS:      64339
DTLB PREFETCH  ACCESS:          0  HIT:          0  MISS:          0
DTLB WRITEBACK ACCESS:          0  HIT:          0  MISS:          0
DTLB PREFETCH  REQUESTED:          0  ISSUED:          0  USEFUL:          0  USELESS:          0
DTLB TOTAL MSHR MERGED:      99636
DTLB LOAD MSHR MERGED:      59293
DTLB RFO MSHR MERGED:      40343
DTLB PREFETCH MSHR MERGED:          0
DTLB WRITEBACK MSHR MERGED:          0
DTLB TOTAL ACCESSES:  165447945 HITS:  164713956 MISSES:     733989
DTLB LOAD ACCESSES:  106358570 HITS:  105729263 MISSES:     629307
DTLB RFO ACCESSES:   59089375 HITS:   58984693 MISSES:     104682
DTLB PREFETCH ACCESSES:          0 HITS:          0 MISSES:          0
DTLB WRITEBACK ACCESSES:          0 HITS:          0 MISSES:          0
DTLB RQ ACCESS:  200312243
DTLB RQ TO_CACHE:  165447945
DTLB RQ MERGED:   34864298
DTLB RQ FORWARD:          0
DTLB WQ ACCESS:          0
DTLB WQ TO_CACHE:          0
DTLB WQ MERGED:          0
DTLB WQ FORWARD:          0
L1D TOTAL     ACCESS:  281872174  HIT:  273962706  MISS:    7909468
L1D LOAD      ACCESS:  110429199  HIT:  107151342  MISS:    3277857
L1D RFO       ACCESS:   67127854  HIT:   66237533  MISS:     890321
L1D PREFETCH  ACCESS:  104315121  HIT:  100573831  MISS:    3741290
L1D WRITEBACK ACCESS:          0  HIT:          0  MISS:          0
L1D PREFETCH  REQUESTED:  110827026  ISSUED:  109127658  USEFUL:    1661887  USELESS:    2079367
L1D TOTAL MSHR MERGED:    2856995
L1D LOAD MSHR MERGED:     495383
L1D RFO MSHR MERGED:    1857750
L1D PREFETCH MSHR MERGED:     503862
L1D WRITEBACK MSHR MERGED:          0
L1D TOTAL ACCESSES:  284756608 HITS:  273990145 MISSES:   10766463
L1D LOAD ACCESSES:  110828463 HITS:  107152779 MISSES:    3675684
L1D RFO ACCESSES:   68974004 HITS:   66237533 MISSES:    2736471
L1D PREFETCH ACCESSES:  104954141 HITS:  100599833 MISSES:    4354308
L1D WRITEBACK ACCESSES:          0 HITS:          0 MISSES:          0
L1D RQ ACCESS:  130759640
L1D RQ TO_CACHE:  110827029
L1D RQ MERGED:   19931174
L1D RQ FORWARD:          0
L1D WQ ACCESS:   69552603
L1D WQ TO_CACHE:   68974005
L1D WQ MERGED:     578598
L1D WQ FORWARD:      27439
L1I TOTAL     ACCESS:  126563179  HIT:  122324631  MISS:    4238548
L1I LOAD      ACCESS:  126563179  HIT:  122324631  MISS:    4238548
L1I RFO       ACCESS:          0  HIT:          0  MISS:          0
L1I PREFETCH  ACCESS:          0  HIT:          0  MISS:          0
L1I WRITEBACK ACCESS:          0  HIT:          0  MISS:          0
L1I PREFETCH  REQUESTED:          0  ISSUED:          0  USEFUL:          0  USELESS:          0
L1I TOTAL MSHR MERGED:    1838286
L1I LOAD MSHR MERGED:    1838286
L1I RFO MSHR MERGED:          0
L1I PREFETCH MSHR MERGED:          0
L1I WRITEBACK MSHR MERGED:          0
L1I TOTAL ACCESSES:  128401468 HITS:  122324631 MISSES:    6076837
L1I LOAD ACCESSES:  128401468 HITS:  122324631 MISSES:    6076837
L1I RFO ACCESSES:          0 HITS:          0 MISSES:          0
L1I PREFETCH ACCESSES:          0 HITS:          0 MISSES:          0
L1I WRITEBACK ACCESSES:          0 HITS:          0 MISSES:          0
L1I RQ ACCESS:  500000057
L1I RQ TO_CACHE:  128401468
L1I RQ MERGED:  371598589
L1I RQ FORWARD:          0
L1I WQ ACCESS:          0
L1I WQ TO_CACHE:          0
L1I WQ MERGED:          0
L1I WQ FORWARD:          0
L2C TOTAL     ACCESS:   14905754  HIT:   11159404  MISS:    3746350
L2C LOAD      ACCESS:    7418644  HIT:    5098908  MISS:    2319736
L2C RFO       ACCESS:     878622  HIT:     409942  MISS:     468680
L2C PREFETCH  ACCESS:    4569231  HIT:    3628556  MISS:     940675
L2C WRITEBACK ACCESS:    2039257  HIT:    2021998  MISS:      17259
L2C PREFETCH  REQUESTED:     842885  ISSUED:     842885  USEFUL:     203529  USELESS:     736852
L2C TOTAL MSHR MERGED:       6750
L2C LOAD MSHR MERGED:        707
L2C RFO MSHR MERGED:          0
L2C PREFETCH MSHR MERGED:       6043
L2C WRITEBACK MSHR MERGED:          0
L2C TOTAL ACCESSES:   14913401 HITS:   11159851 MISSES:    3753550
L2C LOAD ACCESSES:    7418849 HITS:    5099113 MISSES:    2319736
L2C RFO ACCESSES:     878721 HITS:     410041 MISSES:     468680
L2C PREFETCH ACCESSES:    4576574 HITS:    3628699 MISSES:     947875
L2C WRITEBACK ACCESSES:    2039257 HITS:    2021998 MISSES:      17259
L2C RQ ACCESS:    8297573
L2C RQ TO_CACHE:    8297269
L2C RQ MERGED:          0
L2C RQ FORWARD:          0
L2C WQ ACCESS:    2039257
L2C WQ TO_CACHE:    2039257
L2C WQ MERGED:          0
L2C WQ FORWARD:        447
LLC TOTAL     ACCESS:    4609658  HIT:    3430198  MISS:    1179460
LLC LOAD      ACCESS:    2319018  HIT:    1585459  MISS:     733559
LLC RFO       ACCESS:     468669  HIT:     411577  MISS:      57092
LLC PREFETCH  ACCESS:     941717  HIT:     628088  MISS:     313629
LLC WRITEBACK ACCESS:     880254  HIT:     805074  MISS:      75180
LLC PREFETCH  REQUESTED:          0  ISSUED:          0  USEFUL:      14455  USELESS:     296468
LLC TOTAL MSHR MERGED:         97
LLC LOAD MSHR MERGED:         32
LLC RFO MSHR MERGED:          0
LLC PREFETCH MSHR MERGED:         65
LLC WRITEBACK MSHR MERGED:          0
LLC TOTAL ACCESSES:    4609791 HITS:    3430234 MISSES:    1179557
LLC LOAD ACCESSES:    2319029 HITS:    1585470 MISSES:     733559
LLC RFO ACCESSES:     468680 HITS:     411588 MISSES:      57092
LLC PREFETCH ACCESSES:     941828 HITS:     628102 MISSES:     313726
LLC WRITEBACK ACCESSES:     880254 HITS:     805074 MISSES:      75180
LLC 0 RQ ACCESS:    2787709
LLC 0 RQ TO_CACHE:    2787687
LLC 0 RQ MERGED:          0
LLC 0 RQ FORWARD:          0
LLC WQ ACCESS:     880254
LLC WQ TO_CACHE:     880254
LLC WQ MERGED:          0
LLC WQ FORWARD:         36
Major fault: 0 Minor fault: 12862
CPU 0 L1D next line prefetcher final stats
CPU 0 L2C PC-based stride prefetcher final stats
All Misses: 1425182
All Hits: 4001482
SD Algo Stats - Switches: 0 SRR-Repls: 877273 BRR-Repls: 0

DRAM Statistics
 CHANNEL 0
 RQ ROW_BUFFER_HIT:     332079  ROW_BUFFER_MISS:     770067
 DBUS_CONGESTED:     462929
 WQ ROW_BUFFER_HIT:      11007  ROW_BUFFER_MISS:     184348  FULL:          0

 AVG_CONGESTED_CYCLE: 13
LOADS RETIRED: 136549171
INSTR RETIRED: 500000000
