
*** ChampSim Multicore Out-of-Order Simulator ***

Warmup Instructions: 100000000
Simulation Instructions: 500000000
Number of CPUs: 1
LLC sets: 2048
LLC ways: 16
Clean RRIP Policies: 2213230322132303 Dirty RRIP Policies: 1203130312031303 PSEL Width: 10 Track Set: 4294967295 PSEL Mask: 1 Demote Mask: 3040100030401000DS Algo: 0Window size: 0
Off-chip DRAM Size: 4096 MB Channels: 1 Width: 64-bit Data Rate: 1600 MT/s

CPU 0 runs /mnt/beegfs/iconst01/spec2017/Bwaves.trace.gz
NOT SORTED
TRACE STRING: /mnt/beegfs/iconst01/spec2017/Bwaves.trace.gz
SORTED
TRACE STRING: /mnt/beegfs/iconst01/spec2017/Bwaves.trace.gz
INITIAL
TRACE STRING: /mnt/beegfs/iconst01/spec2017/Bwaves.trace.gz

champsim_seed used: 616

CPU 0 L1D next line prefetcher
CPU 0 L2C IP-based stride prefetcher
Initialize DRRIP state
Assign rand_sets[0]: 454  LLC: 2048
rand_sets[0]: 454
Assign rand_sets[1]: 1662  LLC: 2048
rand_sets[1]: 1662
Assign rand_sets[2]: 1921  LLC: 2048
rand_sets[2]: 1921
Assign rand_sets[3]: 1131  LLC: 2048
rand_sets[3]: 1131
Assign rand_sets[4]: 331  LLC: 2048
rand_sets[4]: 331
Assign rand_sets[5]: 1531  LLC: 2048
rand_sets[5]: 1531
Assign rand_sets[6]: 482  LLC: 2048
rand_sets[6]: 482
Assign rand_sets[7]: 1275  LLC: 2048
rand_sets[7]: 1275
Assign rand_sets[8]: 1876  LLC: 2048
rand_sets[8]: 1876
Assign rand_sets[9]: 2038  LLC: 2048
rand_sets[9]: 2038
Assign rand_sets[10]: 701  LLC: 2048
rand_sets[10]: 701
Assign rand_sets[11]: 479  LLC: 2048
rand_sets[11]: 479
Assign rand_sets[12]: 892  LLC: 2048
rand_sets[12]: 892
Assign rand_sets[13]: 1820  LLC: 2048
rand_sets[13]: 1820
Assign rand_sets[14]: 1505  LLC: 2048
rand_sets[14]: 1505
Assign rand_sets[15]: 1159  LLC: 2048
rand_sets[15]: 1159
Assign rand_sets[16]: 513  LLC: 2048
rand_sets[16]: 513
Assign rand_sets[17]: 703  LLC: 2048
rand_sets[17]: 703
Assign rand_sets[18]: 561  LLC: 2048
rand_sets[18]: 561
Assign rand_sets[19]: 990  LLC: 2048
rand_sets[19]: 990
Assign rand_sets[20]: 342  LLC: 2048
rand_sets[20]: 342
Assign rand_sets[21]: 882  LLC: 2048
rand_sets[21]: 882
Assign rand_sets[22]: 15  LLC: 2048
rand_sets[22]: 15
Assign rand_sets[23]: 71  LLC: 2048
rand_sets[23]: 71
Assign rand_sets[24]: 1127  LLC: 2048
rand_sets[24]: 1127
Assign rand_sets[25]: 1382  LLC: 2048
rand_sets[25]: 1382
Assign rand_sets[26]: 647  LLC: 2048
rand_sets[26]: 647
Assign rand_sets[27]: 857  LLC: 2048
rand_sets[27]: 857
Assign rand_sets[28]: 1450  LLC: 2048
rand_sets[28]: 1450
Assign rand_sets[29]: 1160  LLC: 2048
rand_sets[29]: 1160
Assign rand_sets[30]: 1852  LLC: 2048
rand_sets[30]: 1852
Assign rand_sets[31]: 1881  LLC: 2048
rand_sets[31]: 1881
Assign rand_sets[32]: 1770  LLC: 2048
rand_sets[32]: 1770
Assign rand_sets[33]: 1622  LLC: 2048
rand_sets[33]: 1622
Assign rand_sets[34]: 275  LLC: 2048
rand_sets[34]: 275
Assign rand_sets[35]: 635  LLC: 2048
rand_sets[35]: 635
Assign rand_sets[36]: 466  LLC: 2048
rand_sets[36]: 466
Assign rand_sets[37]: 1413  LLC: 2048
rand_sets[37]: 1413
Assign rand_sets[38]: 417  LLC: 2048
rand_sets[38]: 417
Assign rand_sets[39]: 472  LLC: 2048
rand_sets[39]: 472
Assign rand_sets[40]: 1340  LLC: 2048
rand_sets[40]: 1340
Assign rand_sets[41]: 852  LLC: 2048
rand_sets[41]: 852
Assign rand_sets[42]: 1365  LLC: 2048
rand_sets[42]: 1365
Assign rand_sets[43]: 47  LLC: 2048
rand_sets[43]: 47
Assign rand_sets[44]: 823  LLC: 2048
rand_sets[44]: 823
Assign rand_sets[45]: 686  LLC: 2048
rand_sets[45]: 686
Assign rand_sets[46]: 1637  LLC: 2048
rand_sets[46]: 1637
Assign rand_sets[47]: 1115  LLC: 2048
rand_sets[47]: 1115
Assign rand_sets[48]: 986  LLC: 2048
rand_sets[48]: 986
Assign rand_sets[49]: 258  LLC: 2048
rand_sets[49]: 258
Assign rand_sets[50]: 633  LLC: 2048
rand_sets[50]: 633
Assign rand_sets[51]: 920  LLC: 2048
rand_sets[51]: 920
Assign rand_sets[52]: 204  LLC: 2048
rand_sets[52]: 204
Assign rand_sets[53]: 227  LLC: 2048
rand_sets[53]: 227
Assign rand_sets[54]: 1818  LLC: 2048
rand_sets[54]: 1818
Assign rand_sets[55]: 886  LLC: 2048
rand_sets[55]: 886
Assign rand_sets[56]: 1422  LLC: 2048
rand_sets[56]: 1422
Assign rand_sets[57]: 607  LLC: 2048
rand_sets[57]: 607
Assign rand_sets[58]: 217  LLC: 2048
rand_sets[58]: 217
Assign rand_sets[59]: 1945  LLC: 2048
rand_sets[59]: 1945
Assign rand_sets[60]: 143  LLC: 2048
rand_sets[60]: 143
Assign rand_sets[61]: 1311  LLC: 2048
rand_sets[61]: 1311
Assign rand_sets[62]: 319  LLC: 2048
rand_sets[62]: 319
Assign rand_sets[63]: 1846  LLC: 2048
rand_sets[63]: 1846
 CLEAN-RRIP-POLICY-1: 2-2-1-3-2-3-0-3- CLEAN-RRIP-POLICY-2: 2-2-1-3-2-3-0-3-
 DIRTY-RRIP-POLICY-1: 1-2-0-3-1-3-0-3- DIRTY-RRIP-POLICY-2: 1-2-0-3-1-3-0-3-
 PSEL width: 10
Heartbeat CPU 0 instructions: 10000000 cycles: 4301292 heartbeat IPC: 2.32488 cumulative IPC: 2.32488 (Simulation time: 0 hr 0 min 10 sec) 
Heartbeat CPU 0 instructions: 20000000 cycles: 8590211 heartbeat IPC: 2.33159 cumulative IPC: 2.32823 (Simulation time: 0 hr 0 min 21 sec) 
Heartbeat CPU 0 instructions: 30000000 cycles: 12882266 heartbeat IPC: 2.32989 cumulative IPC: 2.32878 (Simulation time: 0 hr 0 min 32 sec) 
Heartbeat CPU 0 instructions: 40000000 cycles: 17228872 heartbeat IPC: 2.30065 cumulative IPC: 2.32168 (Simulation time: 0 hr 0 min 44 sec) 
Heartbeat CPU 0 instructions: 50000002 cycles: 21518562 heartbeat IPC: 2.33117 cumulative IPC: 2.32358 (Simulation time: 0 hr 0 min 55 sec) 
Heartbeat CPU 0 instructions: 60000000 cycles: 25808259 heartbeat IPC: 2.33117 cumulative IPC: 2.32484 (Simulation time: 0 hr 1 min 6 sec) 
Heartbeat CPU 0 instructions: 70000002 cycles: 30100377 heartbeat IPC: 2.32985 cumulative IPC: 2.32555 (Simulation time: 0 hr 1 min 17 sec) 
Heartbeat CPU 0 instructions: 80000000 cycles: 34398973 heartbeat IPC: 2.32634 cumulative IPC: 2.32565 (Simulation time: 0 hr 1 min 29 sec) 
Heartbeat CPU 0 instructions: 90000000 cycles: 38685651 heartbeat IPC: 2.33281 cumulative IPC: 2.32644 (Simulation time: 0 hr 1 min 40 sec) 
Heartbeat CPU 0 instructions: 100000000 cycles: 42960726 heartbeat IPC: 2.33914 cumulative IPC: 2.32771 (Simulation time: 0 hr 1 min 51 sec) 

Warmup complete CPU 0 instructions: 100000002 cycles: 42960727 (Simulation time: 0 hr 1 min 51 sec) 

Heartbeat CPU 0 instructions: 110000003 cycles: 52804024 heartbeat IPC: 1.01592 cumulative IPC: 1.01592 (Simulation time: 0 hr 2 min 7 sec) 
Heartbeat CPU 0 instructions: 120000000 cycles: 62573204 heartbeat IPC: 1.02363 cumulative IPC: 1.01976 (Simulation time: 0 hr 2 min 23 sec) 
Heartbeat CPU 0 instructions: 130000002 cycles: 72370069 heartbeat IPC: 1.02073 cumulative IPC: 1.02008 (Simulation time: 0 hr 2 min 39 sec) 
Heartbeat CPU 0 instructions: 140000000 cycles: 82297479 heartbeat IPC: 1.00731 cumulative IPC: 1.01686 (Simulation time: 0 hr 2 min 55 sec) 
Heartbeat CPU 0 instructions: 150000003 cycles: 92239428 heartbeat IPC: 1.00584 cumulative IPC: 1.01464 (Simulation time: 0 hr 3 min 11 sec) 
Heartbeat CPU 0 instructions: 160000000 cycles: 102158305 heartbeat IPC: 1.00818 cumulative IPC: 1.01355 (Simulation time: 0 hr 3 min 28 sec) 
Heartbeat CPU 0 instructions: 170000003 cycles: 112112893 heartbeat IPC: 1.00456 cumulative IPC: 1.01226 (Simulation time: 0 hr 3 min 44 sec) 
Heartbeat CPU 0 instructions: 180000000 cycles: 122057654 heartbeat IPC: 1.00555 cumulative IPC: 1.01142 (Simulation time: 0 hr 4 min 0 sec) 
Heartbeat CPU 0 instructions: 190000001 cycles: 131951509 heartbeat IPC: 1.01073 cumulative IPC: 1.01134 (Simulation time: 0 hr 4 min 16 sec) 
Heartbeat CPU 0 instructions: 200000000 cycles: 141731295 heartbeat IPC: 1.02252 cumulative IPC: 1.01245 (Simulation time: 0 hr 4 min 32 sec) 
Heartbeat CPU 0 instructions: 210000000 cycles: 151624173 heartbeat IPC: 1.01083 cumulative IPC: 1.0123 (Simulation time: 0 hr 4 min 48 sec) 
Heartbeat CPU 0 instructions: 220000000 cycles: 161357990 heartbeat IPC: 1.02735 cumulative IPC: 1.01354 (Simulation time: 0 hr 5 min 4 sec) 
Heartbeat CPU 0 instructions: 230000000 cycles: 171099408 heartbeat IPC: 1.02654 cumulative IPC: 1.01453 (Simulation time: 0 hr 5 min 20 sec) 
Heartbeat CPU 0 instructions: 240000000 cycles: 181275459 heartbeat IPC: 0.982699 cumulative IPC: 1.01218 (Simulation time: 0 hr 5 min 37 sec) 
Heartbeat CPU 0 instructions: 250000002 cycles: 191114238 heartbeat IPC: 1.01639 cumulative IPC: 1.01246 (Simulation time: 0 hr 5 min 53 sec) 
Heartbeat CPU 0 instructions: 260000000 cycles: 200837650 heartbeat IPC: 1.02845 cumulative IPC: 1.01345 (Simulation time: 0 hr 6 min 8 sec) 
Heartbeat CPU 0 instructions: 270000000 cycles: 210533080 heartbeat IPC: 1.03141 cumulative IPC: 1.01449 (Simulation time: 0 hr 6 min 24 sec) 
Heartbeat CPU 0 instructions: 280000000 cycles: 220255310 heartbeat IPC: 1.02857 cumulative IPC: 1.01526 (Simulation time: 0 hr 6 min 40 sec) 
Heartbeat CPU 0 instructions: 290000000 cycles: 229963428 heartbeat IPC: 1.03007 cumulative IPC: 1.01603 (Simulation time: 0 hr 6 min 57 sec) 
Heartbeat CPU 0 instructions: 300000000 cycles: 239679066 heartbeat IPC: 1.02927 cumulative IPC: 1.01668 (Simulation time: 0 hr 7 min 12 sec) 
Heartbeat CPU 0 instructions: 310000001 cycles: 249367618 heartbeat IPC: 1.03215 cumulative IPC: 1.01741 (Simulation time: 0 hr 7 min 28 sec) 
Heartbeat CPU 0 instructions: 320000000 cycles: 259083123 heartbeat IPC: 1.02928 cumulative IPC: 1.01794 (Simulation time: 0 hr 7 min 44 sec) 
Heartbeat CPU 0 instructions: 330000002 cycles: 269110756 heartbeat IPC: 0.997245 cumulative IPC: 1.01702 (Simulation time: 0 hr 8 min 0 sec) 
Heartbeat CPU 0 instructions: 340000000 cycles: 279196378 heartbeat IPC: 0.99151 cumulative IPC: 1.01593 (Simulation time: 0 hr 8 min 17 sec) 
Heartbeat CPU 0 instructions: 350000003 cycles: 289041180 heartbeat IPC: 1.01576 cumulative IPC: 1.01593 (Simulation time: 0 hr 8 min 33 sec) 
Heartbeat CPU 0 instructions: 360000000 cycles: 298854677 heartbeat IPC: 1.019 cumulative IPC: 1.01605 (Simulation time: 0 hr 8 min 49 sec) 
Heartbeat CPU 0 instructions: 370000001 cycles: 308663973 heartbeat IPC: 1.01944 cumulative IPC: 1.01617 (Simulation time: 0 hr 9 min 5 sec) 
Heartbeat CPU 0 instructions: 380000000 cycles: 318431754 heartbeat IPC: 1.02377 cumulative IPC: 1.01644 (Simulation time: 0 hr 9 min 21 sec) 
Heartbeat CPU 0 instructions: 390000001 cycles: 328345855 heartbeat IPC: 1.00866 cumulative IPC: 1.01617 (Simulation time: 0 hr 9 min 37 sec) 
Heartbeat CPU 0 instructions: 400000000 cycles: 338295493 heartbeat IPC: 1.00506 cumulative IPC: 1.0158 (Simulation time: 0 hr 9 min 53 sec) 
Heartbeat CPU 0 instructions: 410000002 cycles: 348243788 heartbeat IPC: 1.0052 cumulative IPC: 1.01545 (Simulation time: 0 hr 10 min 9 sec) 
Heartbeat CPU 0 instructions: 420000000 cycles: 358165161 heartbeat IPC: 1.00792 cumulative IPC: 1.01521 (Simulation time: 0 hr 10 min 25 sec) 
Heartbeat CPU 0 instructions: 430000001 cycles: 368105667 heartbeat IPC: 1.00599 cumulative IPC: 1.01493 (Simulation time: 0 hr 10 min 42 sec) 
Heartbeat CPU 0 instructions: 440000000 cycles: 378030604 heartbeat IPC: 1.00756 cumulative IPC: 1.01471 (Simulation time: 0 hr 10 min 58 sec) 
Heartbeat CPU 0 instructions: 450000003 cycles: 387729131 heartbeat IPC: 1.03108 cumulative IPC: 1.01517 (Simulation time: 0 hr 11 min 14 sec) 
Heartbeat CPU 0 instructions: 460000000 cycles: 397667233 heartbeat IPC: 1.00623 cumulative IPC: 1.01492 (Simulation time: 0 hr 11 min 30 sec) 
Heartbeat CPU 0 instructions: 470000001 cycles: 407399563 heartbeat IPC: 1.0275 cumulative IPC: 1.01526 (Simulation time: 0 hr 11 min 46 sec) 
Heartbeat CPU 0 instructions: 480000000 cycles: 417138309 heartbeat IPC: 1.02683 cumulative IPC: 1.01556 (Simulation time: 0 hr 12 min 2 sec) 
Heartbeat CPU 0 instructions: 490000002 cycles: 427155291 heartbeat IPC: 0.998305 cumulative IPC: 1.01511 (Simulation time: 0 hr 12 min 18 sec) 
Heartbeat CPU 0 instructions: 500000000 cycles: 437165123 heartbeat IPC: 0.999018 cumulative IPC: 1.0147 (Simulation time: 0 hr 12 min 34 sec) 
Heartbeat CPU 0 instructions: 510000002 cycles: 446871528 heartbeat IPC: 1.03025 cumulative IPC: 1.01508 (Simulation time: 0 hr 12 min 50 sec) 
Heartbeat CPU 0 instructions: 520000000 cycles: 456582991 heartbeat IPC: 1.02971 cumulative IPC: 1.01542 (Simulation time: 0 hr 13 min 6 sec) 
Heartbeat CPU 0 instructions: 530000002 cycles: 466284860 heartbeat IPC: 1.03073 cumulative IPC: 1.01577 (Simulation time: 0 hr 13 min 21 sec) 
Heartbeat CPU 0 instructions: 540000000 cycles: 476010857 heartbeat IPC: 1.02817 cumulative IPC: 1.01605 (Simulation time: 0 hr 13 min 38 sec) 
Heartbeat CPU 0 instructions: 550000001 cycles: 485709532 heartbeat IPC: 1.03107 cumulative IPC: 1.01638 (Simulation time: 0 hr 13 min 54 sec) 
Heartbeat CPU 0 instructions: 560000000 cycles: 495422372 heartbeat IPC: 1.02956 cumulative IPC: 1.01666 (Simulation time: 0 hr 14 min 9 sec) 
Heartbeat CPU 0 instructions: 570000002 cycles: 505118907 heartbeat IPC: 1.0313 cumulative IPC: 1.01697 (Simulation time: 0 hr 14 min 25 sec) 
Heartbeat CPU 0 instructions: 580000000 cycles: 515134439 heartbeat IPC: 0.998449 cumulative IPC: 1.01657 (Simulation time: 0 hr 14 min 41 sec) 
Heartbeat CPU 0 instructions: 590000000 cycles: 525163516 heartbeat IPC: 0.997101 cumulative IPC: 1.01617 (Simulation time: 0 hr 14 min 58 sec) 
Heartbeat CPU 0 instructions: 600000000 cycles: 535070893 heartbeat IPC: 1.00935 cumulative IPC: 1.01603 (Simulation time: 0 hr 15 min 14 sec) 
Finished CPU 0 instructions: 500000000 cycles: 492110175 cumulative IPC: 1.01603 (Simulation time: 0 hr 15 min 14 sec) 

CPU 0 Branch Prediction Accuracy: 92.9125% MPKI: 10.756
Number of Branches: 75879920 Number of Mispredictions: 5377988
Number of LOAD Instructions: 153642898
Number of LOAD Instructions (ROI): 153642898
Number of STORE Instructions: 31440677
Number of STORE Instructions (ROI): 31440677
Total Destination Memory Operands: 31725032
Total Destination Memory Operands (ROI): 31725032
Total Source Memory Operands: 153642898
Total Source Memory Operands (ROI): 153642898
Number of DEPENDED LOADS: 1892577
Number of DEPENDED LOADS (ROI): 1892577
Number of SQ_ADDED: 31725032
Number of SQ_ADDED (ROI): 31725032
Number of LQ_ADDED: 153654785
Number of LQ_ADDED (ROI): 153654785
Number of Instructions read from trace: 600000003

ChampSim completed all CPUs

Region of Interest Statistics

CPU 0 cumulative IPC: 1.01603 instructions: 500000000 cycles: 492110175
ITLB TOTAL     ACCESS:   82135914  HIT:   82135914  MISS:          0
ITLB LOAD      ACCESS:   82135914  HIT:   82135914  MISS:          0
ITLB RFO       ACCESS:          0  HIT:          0  MISS:          0
ITLB PREFETCH  ACCESS:          0  HIT:          0  MISS:          0
ITLB WRITEBACK ACCESS:          0  HIT:          0  MISS:          0
ITLB PREFETCH  REQUESTED:          0  ISSUED:          0  USEFUL:          0  USELESS:          0
ITLB TOTAL MSHR MERGED:          0
ITLB LOAD MSHR MERGED:          0
ITLB RFO MSHR MERGED:          0
ITLB PREFETCH MSHR MERGED:          0
ITLB WRITEBACK MSHR MERGED:          0
ITLB TOTAL ACCESSES:   82135914 HITS:   82135914 MISSES:          0
ITLB LOAD ACCESSES:   82135914 HITS:   82135914 MISSES:          0
ITLB RFO ACCESSES:          0 HITS:          0 MISSES:          0
ITLB PREFETCH ACCESSES:          0 HITS:          0 MISSES:          0
ITLB WRITEBACK ACCESSES:          0 HITS:          0 MISSES:          0
ITLB RQ ACCESS:  499999926
ITLB RQ TO_CACHE:   82135914
ITLB RQ MERGED:  417864012
ITLB RQ FORWARD:          0
ITLB WQ ACCESS:          0
ITLB WQ TO_CACHE:          0
ITLB WQ MERGED:          0
ITLB WQ FORWARD:          0
DTLB TOTAL     ACCESS:   87138529  HIT:   87137652  MISS:        877
DTLB LOAD      ACCESS:   68494923  HIT:   68494822  MISS:        101
DTLB RFO       ACCESS:   18643606  HIT:   18642830  MISS:        776
DTLB PREFETCH  ACCESS:          0  HIT:          0  MISS:          0
DTLB WRITEBACK ACCESS:          0  HIT:          0  MISS:          0
DTLB PREFETCH  REQUESTED:          0  ISSUED:          0  USEFUL:          0  USELESS:          0
DTLB TOTAL MSHR MERGED:       1090
DTLB LOAD MSHR MERGED:         26
DTLB RFO MSHR MERGED:       1064
DTLB PREFETCH MSHR MERGED:          0
DTLB WRITEBACK MSHR MERGED:          0
DTLB TOTAL ACCESSES:   87139619 HITS:   87137652 MISSES:       1967
DTLB LOAD ACCESSES:   68494949 HITS:   68494822 MISSES:        127
DTLB RFO ACCESSES:   18644670 HITS:   18642830 MISSES:       1840
DTLB PREFETCH ACCESSES:          0 HITS:          0 MISSES:          0
DTLB WRITEBACK ACCESSES:          0 HITS:          0 MISSES:          0
DTLB RQ ACCESS:  152860122
DTLB RQ TO_CACHE:   87139619
DTLB RQ MERGED:   65720503
DTLB RQ FORWARD:          0
DTLB WQ ACCESS:          0
DTLB WQ TO_CACHE:          0
DTLB WQ MERGED:          0
DTLB WQ FORWARD:          0
L1D TOTAL     ACCESS:  151316107  HIT:  151256250  MISS:      59857
L1D LOAD      ACCESS:   73265330  HIT:   73263546  MISS:       1784
L1D RFO       ACCESS:   25967261  HIT:   25915955  MISS:      51306
L1D PREFETCH  ACCESS:   52083516  HIT:   52076749  MISS:       6767
L1D WRITEBACK ACCESS:          0  HIT:          0  MISS:          0
L1D PREFETCH  REQUESTED:   73265576  ISSUED:   72835372  USEFUL:       5377  USELESS:       1388
L1D TOTAL MSHR MERGED:     296289
L1D LOAD MSHR MERGED:        287
L1D RFO MSHR MERGED:     292385
L1D PREFETCH MSHR MERGED:       3617
L1D WRITEBACK MSHR MERGED:          0
L1D TOTAL ACCESSES:  151616583 HITS:  151260437 MISSES:     356146
L1D LOAD ACCESSES:   73265929 HITS:   73263899 MISSES:       2030
L1D RFO ACCESSES:   26259645 HITS:   25915955 MISSES:     343690
L1D PREFETCH ACCESSES:   52091009 HITS:   52080583 MISSES:      10426
L1D WRITEBACK ACCESSES:          0 HITS:          0 MISSES:          0
L1D RQ ACCESS:  126388228
L1D RQ TO_CACHE:   73265576
L1D RQ MERGED:   53122299
L1D RQ FORWARD:          0
L1D WQ ACCESS:   26471896
L1D WQ TO_CACHE:   26259646
L1D WQ MERGED:     212250
L1D WQ FORWARD:       4187
L1I TOTAL     ACCESS:   94261447  HIT:   94261441  MISS:          6
L1I LOAD      ACCESS:   94261447  HIT:   94261441  MISS:          6
L1I RFO       ACCESS:          0  HIT:          0  MISS:          0
L1I PREFETCH  ACCESS:          0  HIT:          0  MISS:          0
L1I WRITEBACK ACCESS:          0  HIT:          0  MISS:          0
L1I PREFETCH  REQUESTED:          0  ISSUED:          0  USEFUL:          0  USELESS:          0
L1I TOTAL MSHR MERGED:          4
L1I LOAD MSHR MERGED:          4
L1I RFO MSHR MERGED:          0
L1I PREFETCH MSHR MERGED:          0
L1I WRITEBACK MSHR MERGED:          0
L1I TOTAL ACCESSES:   94261451 HITS:   94261441 MISSES:         10
L1I LOAD ACCESSES:   94261451 HITS:   94261441 MISSES:         10
L1I RFO ACCESSES:          0 HITS:          0 MISSES:          0
L1I PREFETCH ACCESSES:          0 HITS:          0 MISSES:          0
L1I WRITEBACK ACCESSES:          0 HITS:          0 MISSES:          0
L1I RQ ACCESS:  499999932
L1I RQ TO_CACHE:   94261451
L1I RQ MERGED:  405738481
L1I RQ FORWARD:          0
L1I WQ ACCESS:          0
L1I WQ TO_CACHE:          0
L1I WQ MERGED:          0
L1I WQ FORWARD:          0
L2C TOTAL     ACCESS:     111542  HIT:      56078  MISS:      55464
L2C LOAD      ACCESS:       1749  HIT:       1443  MISS:        306
L2C RFO       ACCESS:      51305  HIT:       1523  MISS:      49782
L2C PREFETCH  ACCESS:       6809  HIT:       1657  MISS:       5152
L2C WRITEBACK ACCESS:      51679  HIT:      51455  MISS:        224
L2C PREFETCH  REQUESTED:          0  ISSUED:          0  USEFUL:        121  USELESS:       5056
L2C TOTAL MSHR MERGED:          0
L2C LOAD MSHR MERGED:          0
L2C RFO MSHR MERGED:          0
L2C PREFETCH MSHR MERGED:          0
L2C WRITEBACK MSHR MERGED:          0
L2C TOTAL ACCESSES:     111542 HITS:      56078 MISSES:      55464
L2C LOAD ACCESSES:       1749 HITS:       1443 MISSES:        306
L2C RFO ACCESSES:      51305 HITS:       1523 MISSES:      49782
L2C PREFETCH ACCESSES:       6809 HITS:       1657 MISSES:       5152
L2C WRITEBACK ACCESSES:      51679 HITS:      51455 MISSES:        224
L2C RQ ACCESS:      53054
L2C RQ TO_CACHE:      53054
L2C RQ MERGED:          0
L2C RQ FORWARD:          0
L2C WQ ACCESS:      51679
L2C WQ TO_CACHE:      51679
L2C WQ MERGED:          0
L2C WQ FORWARD:          0
LLC TOTAL     ACCESS:     105239  HIT:        568  MISS:     104671
LLC LOAD      ACCESS:        306  HIT:          3  MISS:        303
LLC RFO       ACCESS:      49782  HIT:        173  MISS:      49609
LLC PREFETCH  ACCESS:       5152  HIT:         36  MISS:       5116
LLC WRITEBACK ACCESS:      49999  HIT:        356  MISS:      49643
LLC PREFETCH  REQUESTED:          0  ISSUED:          0  USEFUL:          0  USELESS:       5006
LLC TOTAL MSHR MERGED:          0
LLC LOAD MSHR MERGED:          0
LLC RFO MSHR MERGED:          0
LLC PREFETCH MSHR MERGED:          0
LLC WRITEBACK MSHR MERGED:          0
LLC TOTAL ACCESSES:     105239 HITS:        568 MISSES:     104671
LLC LOAD ACCESSES:        306 HITS:          3 MISSES:        303
LLC RFO ACCESSES:      49782 HITS:        173 MISSES:      49609
LLC PREFETCH ACCESSES:       5152 HITS:         36 MISSES:       5116
LLC WRITEBACK ACCESSES:      49999 HITS:        356 MISSES:      49643
LLC 0 RQ ACCESS:      50088
LLC 0 RQ TO_CACHE:      50088
LLC 0 RQ MERGED:          0
LLC 0 RQ FORWARD:          0
LLC WQ ACCESS:      49999
LLC WQ TO_CACHE:      49999
LLC WQ MERGED:          0
LLC WQ FORWARD:          0
Major fault: 0 Minor fault: 1116
CPU 0 L1D next line prefetcher final stats
CPU 0 L2C PC-based stride prefetcher final stats
All Misses: 129263
All Hits: 674
SD Algo Stats - Switches: 0 SRR-Repls: 670 BRR-Repls: 0

DRAM Statistics
 CHANNEL 0
 RQ ROW_BUFFER_HIT:      41291  ROW_BUFFER_MISS:      13737
 DBUS_CONGESTED:      47507
 WQ ROW_BUFFER_HIT:      11896  ROW_BUFFER_MISS:      15977  FULL:          0

 AVG_CONGESTED_CYCLE: 13
LOADS RETIRED: 127961192
INSTR RETIRED: 500000000
