
*** ChampSim Multicore Out-of-Order Simulator ***

Warmup Instructions: 100000000
Simulation Instructions: 500000000
Number of CPUs: 1
LLC sets: 2048
LLC ways: 16
Clean RRIP Policies: 2213230322132303 Dirty RRIP Policies: 1203130312031303 PSEL Width: 10 Track Set: 4294967295 PSEL Mask: 1 Demote Mask: 3040100030401000DS Algo: 0Window size: 0
Off-chip DRAM Size: 4096 MB Channels: 1 Width: 64-bit Data Rate: 1600 MT/s

CPU 0 runs /mnt/beegfs/iconst01/spec2017/Leela.trace.gz
NOT SORTED
TRACE STRING: /mnt/beegfs/iconst01/spec2017/Leela.trace.gz
SORTED
TRACE STRING: /mnt/beegfs/iconst01/spec2017/Leela.trace.gz
INITIAL
TRACE STRING: /mnt/beegfs/iconst01/spec2017/Leela.trace.gz

champsim_seed used: 483

CPU 0 L1D next line prefetcher
CPU 0 L2C IP-based stride prefetcher
Initialize DRRIP state
Assign rand_sets[0]: 454  LLC: 2048
rand_sets[0]: 454
Assign rand_sets[1]: 1662  LLC: 2048
rand_sets[1]: 1662
Assign rand_sets[2]: 1921  LLC: 2048
rand_sets[2]: 1921
Assign rand_sets[3]: 1131  LLC: 2048
rand_sets[3]: 1131
Assign rand_sets[4]: 331  LLC: 2048
rand_sets[4]: 331
Assign rand_sets[5]: 1531  LLC: 2048
rand_sets[5]: 1531
Assign rand_sets[6]: 482  LLC: 2048
rand_sets[6]: 482
Assign rand_sets[7]: 1275  LLC: 2048
rand_sets[7]: 1275
Assign rand_sets[8]: 1876  LLC: 2048
rand_sets[8]: 1876
Assign rand_sets[9]: 2038  LLC: 2048
rand_sets[9]: 2038
Assign rand_sets[10]: 701  LLC: 2048
rand_sets[10]: 701
Assign rand_sets[11]: 479  LLC: 2048
rand_sets[11]: 479
Assign rand_sets[12]: 892  LLC: 2048
rand_sets[12]: 892
Assign rand_sets[13]: 1820  LLC: 2048
rand_sets[13]: 1820
Assign rand_sets[14]: 1505  LLC: 2048
rand_sets[14]: 1505
Assign rand_sets[15]: 1159  LLC: 2048
rand_sets[15]: 1159
Assign rand_sets[16]: 513  LLC: 2048
rand_sets[16]: 513
Assign rand_sets[17]: 703  LLC: 2048
rand_sets[17]: 703
Assign rand_sets[18]: 561  LLC: 2048
rand_sets[18]: 561
Assign rand_sets[19]: 990  LLC: 2048
rand_sets[19]: 990
Assign rand_sets[20]: 342  LLC: 2048
rand_sets[20]: 342
Assign rand_sets[21]: 882  LLC: 2048
rand_sets[21]: 882
Assign rand_sets[22]: 15  LLC: 2048
rand_sets[22]: 15
Assign rand_sets[23]: 71  LLC: 2048
rand_sets[23]: 71
Assign rand_sets[24]: 1127  LLC: 2048
rand_sets[24]: 1127
Assign rand_sets[25]: 1382  LLC: 2048
rand_sets[25]: 1382
Assign rand_sets[26]: 647  LLC: 2048
rand_sets[26]: 647
Assign rand_sets[27]: 857  LLC: 2048
rand_sets[27]: 857
Assign rand_sets[28]: 1450  LLC: 2048
rand_sets[28]: 1450
Assign rand_sets[29]: 1160  LLC: 2048
rand_sets[29]: 1160
Assign rand_sets[30]: 1852  LLC: 2048
rand_sets[30]: 1852
Assign rand_sets[31]: 1881  LLC: 2048
rand_sets[31]: 1881
Assign rand_sets[32]: 1770  LLC: 2048
rand_sets[32]: 1770
Assign rand_sets[33]: 1622  LLC: 2048
rand_sets[33]: 1622
Assign rand_sets[34]: 275  LLC: 2048
rand_sets[34]: 275
Assign rand_sets[35]: 635  LLC: 2048
rand_sets[35]: 635
Assign rand_sets[36]: 466  LLC: 2048
rand_sets[36]: 466
Assign rand_sets[37]: 1413  LLC: 2048
rand_sets[37]: 1413
Assign rand_sets[38]: 417  LLC: 2048
rand_sets[38]: 417
Assign rand_sets[39]: 472  LLC: 2048
rand_sets[39]: 472
Assign rand_sets[40]: 1340  LLC: 2048
rand_sets[40]: 1340
Assign rand_sets[41]: 852  LLC: 2048
rand_sets[41]: 852
Assign rand_sets[42]: 1365  LLC: 2048
rand_sets[42]: 1365
Assign rand_sets[43]: 47  LLC: 2048
rand_sets[43]: 47
Assign rand_sets[44]: 823  LLC: 2048
rand_sets[44]: 823
Assign rand_sets[45]: 686  LLC: 2048
rand_sets[45]: 686
Assign rand_sets[46]: 1637  LLC: 2048
rand_sets[46]: 1637
Assign rand_sets[47]: 1115  LLC: 2048
rand_sets[47]: 1115
Assign rand_sets[48]: 986  LLC: 2048
rand_sets[48]: 986
Assign rand_sets[49]: 258  LLC: 2048
rand_sets[49]: 258
Assign rand_sets[50]: 633  LLC: 2048
rand_sets[50]: 633
Assign rand_sets[51]: 920  LLC: 2048
rand_sets[51]: 920
Assign rand_sets[52]: 204  LLC: 2048
rand_sets[52]: 204
Assign rand_sets[53]: 227  LLC: 2048
rand_sets[53]: 227
Assign rand_sets[54]: 1818  LLC: 2048
rand_sets[54]: 1818
Assign rand_sets[55]: 886  LLC: 2048
rand_sets[55]: 886
Assign rand_sets[56]: 1422  LLC: 2048
rand_sets[56]: 1422
Assign rand_sets[57]: 607  LLC: 2048
rand_sets[57]: 607
Assign rand_sets[58]: 217  LLC: 2048
rand_sets[58]: 217
Assign rand_sets[59]: 1945  LLC: 2048
rand_sets[59]: 1945
Assign rand_sets[60]: 143  LLC: 2048
rand_sets[60]: 143
Assign rand_sets[61]: 1311  LLC: 2048
rand_sets[61]: 1311
Assign rand_sets[62]: 319  LLC: 2048
rand_sets[62]: 319
Assign rand_sets[63]: 1846  LLC: 2048
rand_sets[63]: 1846
 CLEAN-RRIP-POLICY-1: 2-2-1-3-2-3-0-3- CLEAN-RRIP-POLICY-2: 2-2-1-3-2-3-0-3-
 DIRTY-RRIP-POLICY-1: 1-2-0-3-1-3-0-3- DIRTY-RRIP-POLICY-2: 1-2-0-3-1-3-0-3-
 PSEL width: 10
Heartbeat CPU 0 instructions: 10000000 cycles: 5810749 heartbeat IPC: 1.72095 cumulative IPC: 1.72095 (Simulation time: 0 hr 0 min 11 sec) 
Heartbeat CPU 0 instructions: 20000000 cycles: 11606026 heartbeat IPC: 1.72554 cumulative IPC: 1.72324 (Simulation time: 0 hr 0 min 23 sec) 
Heartbeat CPU 0 instructions: 30000000 cycles: 17387983 heartbeat IPC: 1.72952 cumulative IPC: 1.72533 (Simulation time: 0 hr 0 min 35 sec) 
Heartbeat CPU 0 instructions: 40000000 cycles: 23169554 heartbeat IPC: 1.72963 cumulative IPC: 1.7264 (Simulation time: 0 hr 0 min 46 sec) 
Heartbeat CPU 0 instructions: 50000003 cycles: 28984098 heartbeat IPC: 1.71983 cumulative IPC: 1.72508 (Simulation time: 0 hr 0 min 58 sec) 
Heartbeat CPU 0 instructions: 60000000 cycles: 34769347 heartbeat IPC: 1.72853 cumulative IPC: 1.72566 (Simulation time: 0 hr 1 min 10 sec) 
Heartbeat CPU 0 instructions: 70000001 cycles: 40536398 heartbeat IPC: 1.73399 cumulative IPC: 1.72684 (Simulation time: 0 hr 1 min 21 sec) 
Heartbeat CPU 0 instructions: 80000000 cycles: 46308513 heartbeat IPC: 1.73247 cumulative IPC: 1.72754 (Simulation time: 0 hr 1 min 33 sec) 
Heartbeat CPU 0 instructions: 90000002 cycles: 52117970 heartbeat IPC: 1.72133 cumulative IPC: 1.72685 (Simulation time: 0 hr 1 min 45 sec) 
Heartbeat CPU 0 instructions: 100000000 cycles: 57935629 heartbeat IPC: 1.7189 cumulative IPC: 1.72605 (Simulation time: 0 hr 1 min 57 sec) 

Warmup complete CPU 0 instructions: 100000001 cycles: 57935630 (Simulation time: 0 hr 1 min 57 sec) 

Heartbeat CPU 0 instructions: 110000001 cycles: 76381639 heartbeat IPC: 0.542123 cumulative IPC: 0.542123 (Simulation time: 0 hr 2 min 17 sec) 
Heartbeat CPU 0 instructions: 120000000 cycles: 94785372 heartbeat IPC: 0.543368 cumulative IPC: 0.542745 (Simulation time: 0 hr 2 min 37 sec) 
Heartbeat CPU 0 instructions: 130000002 cycles: 113126808 heartbeat IPC: 0.545214 cumulative IPC: 0.543565 (Simulation time: 0 hr 2 min 56 sec) 
Heartbeat CPU 0 instructions: 140000000 cycles: 131384946 heartbeat IPC: 0.547701 cumulative IPC: 0.544593 (Simulation time: 0 hr 3 min 16 sec) 
Heartbeat CPU 0 instructions: 150000002 cycles: 149511814 heartbeat IPC: 0.551667 cumulative IPC: 0.545994 (Simulation time: 0 hr 3 min 36 sec) 
Heartbeat CPU 0 instructions: 160000000 cycles: 167678252 heartbeat IPC: 0.550466 cumulative IPC: 0.546734 (Simulation time: 0 hr 3 min 56 sec) 
Heartbeat CPU 0 instructions: 170000001 cycles: 185899216 heartbeat IPC: 0.548818 cumulative IPC: 0.547031 (Simulation time: 0 hr 4 min 16 sec) 
Heartbeat CPU 0 instructions: 180000000 cycles: 204214368 heartbeat IPC: 0.545996 cumulative IPC: 0.546901 (Simulation time: 0 hr 4 min 36 sec) 
Heartbeat CPU 0 instructions: 190000001 cycles: 222580159 heartbeat IPC: 0.544491 cumulative IPC: 0.546632 (Simulation time: 0 hr 4 min 55 sec) 
Heartbeat CPU 0 instructions: 200000000 cycles: 240803744 heartbeat IPC: 0.548739 cumulative IPC: 0.546842 (Simulation time: 0 hr 5 min 15 sec) 
Heartbeat CPU 0 instructions: 210000002 cycles: 258945414 heartbeat IPC: 0.551217 cumulative IPC: 0.547237 (Simulation time: 0 hr 5 min 35 sec) 
Heartbeat CPU 0 instructions: 220000000 cycles: 277112735 heartbeat IPC: 0.550439 cumulative IPC: 0.547502 (Simulation time: 0 hr 5 min 55 sec) 
Heartbeat CPU 0 instructions: 230000002 cycles: 295345208 heartbeat IPC: 0.548472 cumulative IPC: 0.547577 (Simulation time: 0 hr 6 min 15 sec) 
Heartbeat CPU 0 instructions: 240000000 cycles: 313642129 heartbeat IPC: 0.54654 cumulative IPC: 0.547503 (Simulation time: 0 hr 6 min 35 sec) 
Heartbeat CPU 0 instructions: 250000003 cycles: 331826532 heartbeat IPC: 0.549922 cumulative IPC: 0.547663 (Simulation time: 0 hr 6 min 55 sec) 
Heartbeat CPU 0 instructions: 260000000 cycles: 349986964 heartbeat IPC: 0.550648 cumulative IPC: 0.547849 (Simulation time: 0 hr 7 min 15 sec) 
Heartbeat CPU 0 instructions: 270000001 cycles: 368234729 heartbeat IPC: 0.548012 cumulative IPC: 0.547858 (Simulation time: 0 hr 7 min 34 sec) 
Heartbeat CPU 0 instructions: 280000000 cycles: 387348074 heartbeat IPC: 0.523195 cumulative IPC: 0.546427 (Simulation time: 0 hr 7 min 55 sec) 
Heartbeat CPU 0 instructions: 290000001 cycles: 405378718 heartbeat IPC: 0.554611 cumulative IPC: 0.546852 (Simulation time: 0 hr 8 min 15 sec) 
Heartbeat CPU 0 instructions: 300000000 cycles: 423463875 heartbeat IPC: 0.55294 cumulative IPC: 0.547153 (Simulation time: 0 hr 8 min 35 sec) 
Heartbeat CPU 0 instructions: 310000000 cycles: 441693709 heartbeat IPC: 0.548551 cumulative IPC: 0.54722 (Simulation time: 0 hr 8 min 55 sec) 
Heartbeat CPU 0 instructions: 320000000 cycles: 460082955 heartbeat IPC: 0.543796 cumulative IPC: 0.547063 (Simulation time: 0 hr 9 min 15 sec) 
Heartbeat CPU 0 instructions: 330000000 cycles: 478383687 heartbeat IPC: 0.546426 cumulative IPC: 0.547035 (Simulation time: 0 hr 9 min 35 sec) 
Heartbeat CPU 0 instructions: 340000000 cycles: 496714951 heartbeat IPC: 0.545516 cumulative IPC: 0.546972 (Simulation time: 0 hr 9 min 55 sec) 
Heartbeat CPU 0 instructions: 350000000 cycles: 514960050 heartbeat IPC: 0.548092 cumulative IPC: 0.547017 (Simulation time: 0 hr 10 min 14 sec) 
Heartbeat CPU 0 instructions: 360000000 cycles: 533095847 heartbeat IPC: 0.551396 cumulative IPC: 0.547184 (Simulation time: 0 hr 10 min 34 sec) 
Heartbeat CPU 0 instructions: 370000000 cycles: 551117713 heartbeat IPC: 0.554882 cumulative IPC: 0.547465 (Simulation time: 0 hr 10 min 54 sec) 
Heartbeat CPU 0 instructions: 380000000 cycles: 569281946 heartbeat IPC: 0.550532 cumulative IPC: 0.547574 (Simulation time: 0 hr 11 min 14 sec) 
Heartbeat CPU 0 instructions: 390000003 cycles: 587562666 heartbeat IPC: 0.547025 cumulative IPC: 0.547555 (Simulation time: 0 hr 11 min 34 sec) 
Heartbeat CPU 0 instructions: 400000000 cycles: 605740880 heartbeat IPC: 0.550109 cumulative IPC: 0.54764 (Simulation time: 0 hr 11 min 54 sec) 
Heartbeat CPU 0 instructions: 410000002 cycles: 623970241 heartbeat IPC: 0.548566 cumulative IPC: 0.54767 (Simulation time: 0 hr 12 min 14 sec) 
Heartbeat CPU 0 instructions: 420000000 cycles: 642228301 heartbeat IPC: 0.547703 cumulative IPC: 0.547671 (Simulation time: 0 hr 12 min 33 sec) 
Heartbeat CPU 0 instructions: 430000003 cycles: 660568267 heartbeat IPC: 0.545257 cumulative IPC: 0.547597 (Simulation time: 0 hr 12 min 53 sec) 
Heartbeat CPU 0 instructions: 440000000 cycles: 678907848 heartbeat IPC: 0.545269 cumulative IPC: 0.547529 (Simulation time: 0 hr 13 min 13 sec) 
Heartbeat CPU 0 instructions: 450000003 cycles: 697150638 heartbeat IPC: 0.548162 cumulative IPC: 0.547547 (Simulation time: 0 hr 13 min 33 sec) 
Heartbeat CPU 0 instructions: 460000000 cycles: 715348929 heartbeat IPC: 0.549502 cumulative IPC: 0.547601 (Simulation time: 0 hr 13 min 53 sec) 
Heartbeat CPU 0 instructions: 470000001 cycles: 733470138 heartbeat IPC: 0.55184 cumulative IPC: 0.547714 (Simulation time: 0 hr 14 min 12 sec) 
Heartbeat CPU 0 instructions: 480000000 cycles: 751737907 heartbeat IPC: 0.547412 cumulative IPC: 0.547706 (Simulation time: 0 hr 14 min 32 sec) 
Heartbeat CPU 0 instructions: 490000000 cycles: 769981646 heartbeat IPC: 0.548133 cumulative IPC: 0.547717 (Simulation time: 0 hr 14 min 52 sec) 
Heartbeat CPU 0 instructions: 500000000 cycles: 788228882 heartbeat IPC: 0.548028 cumulative IPC: 0.547725 (Simulation time: 0 hr 15 min 12 sec) 
Heartbeat CPU 0 instructions: 510000003 cycles: 806417669 heartbeat IPC: 0.549789 cumulative IPC: 0.547775 (Simulation time: 0 hr 15 min 31 sec) 
Heartbeat CPU 0 instructions: 520000000 cycles: 824572203 heartbeat IPC: 0.550826 cumulative IPC: 0.547848 (Simulation time: 0 hr 15 min 51 sec) 
Heartbeat CPU 0 instructions: 530000001 cycles: 842836410 heartbeat IPC: 0.547519 cumulative IPC: 0.54784 (Simulation time: 0 hr 16 min 11 sec) 
Heartbeat CPU 0 instructions: 540000000 cycles: 861115395 heartbeat IPC: 0.547076 cumulative IPC: 0.547823 (Simulation time: 0 hr 16 min 31 sec) 
Heartbeat CPU 0 instructions: 550000002 cycles: 879361837 heartbeat IPC: 0.548052 cumulative IPC: 0.547828 (Simulation time: 0 hr 16 min 50 sec) 
Heartbeat CPU 0 instructions: 560000000 cycles: 897515001 heartbeat IPC: 0.550868 cumulative IPC: 0.547893 (Simulation time: 0 hr 17 min 10 sec) 
Heartbeat CPU 0 instructions: 570000003 cycles: 915747409 heartbeat IPC: 0.548474 cumulative IPC: 0.547906 (Simulation time: 0 hr 17 min 30 sec) 
Heartbeat CPU 0 instructions: 580000000 cycles: 933905071 heartbeat IPC: 0.550732 cumulative IPC: 0.547964 (Simulation time: 0 hr 17 min 50 sec) 
Heartbeat CPU 0 instructions: 590000000 cycles: 952060297 heartbeat IPC: 0.550806 cumulative IPC: 0.548022 (Simulation time: 0 hr 18 min 9 sec) 
Heartbeat CPU 0 instructions: 600000000 cycles: 970238575 heartbeat IPC: 0.550107 cumulative IPC: 0.548064 (Simulation time: 0 hr 18 min 29 sec) 
Finished CPU 0 instructions: 500000002 cycles: 912302959 cumulative IPC: 0.548064 (Simulation time: 0 hr 18 min 29 sec) 

CPU 0 Branch Prediction Accuracy: 84.5197% MPKI: 17.7348
Number of Branches: 57281827 Number of Mispredictions: 8867420
Number of LOAD Instructions: 149599668
Number of LOAD Instructions (ROI): 149599668
Number of STORE Instructions: 48204126
Number of STORE Instructions (ROI): 48204126
Total Destination Memory Operands: 56787011
Total Destination Memory Operands (ROI): 56787011
Total Source Memory Operands: 149599668
Total Source Memory Operands (ROI): 149599668
Number of DEPENDED LOADS: 8177234
Number of DEPENDED LOADS (ROI): 8177234
Number of SQ_ADDED: 56787004
Number of SQ_ADDED (ROI): 56787004
Number of LQ_ADDED: 236112614
Number of LQ_ADDED (ROI): 236112614
Number of Instructions read from trace: 600000094

ChampSim completed all CPUs

Region of Interest Statistics

CPU 0 cumulative IPC: 0.548064 instructions: 500000002 cycles: 912302959
ITLB TOTAL     ACCESS:   88352511  HIT:   88352467  MISS:         44
ITLB LOAD      ACCESS:   88352511  HIT:   88352467  MISS:         44
ITLB RFO       ACCESS:          0  HIT:          0  MISS:          0
ITLB PREFETCH  ACCESS:          0  HIT:          0  MISS:          0
ITLB WRITEBACK ACCESS:          0  HIT:          0  MISS:          0
ITLB PREFETCH  REQUESTED:          0  ISSUED:          0  USEFUL:          0  USELESS:          0
ITLB TOTAL MSHR MERGED:         55
ITLB LOAD MSHR MERGED:         55
ITLB RFO MSHR MERGED:          0
ITLB PREFETCH MSHR MERGED:          0
ITLB WRITEBACK MSHR MERGED:          0
ITLB TOTAL ACCESSES:   88352566 HITS:   88352467 MISSES:         99
ITLB LOAD ACCESSES:   88352566 HITS:   88352467 MISSES:         99
ITLB RFO ACCESSES:          0 HITS:          0 MISSES:          0
ITLB PREFETCH ACCESSES:          0 HITS:          0 MISSES:          0
ITLB WRITEBACK ACCESSES:          0 HITS:          0 MISSES:          0
ITLB RQ ACCESS:  500000064
ITLB RQ TO_CACHE:   88352566
ITLB RQ MERGED:  411647498
ITLB RQ FORWARD:          0
ITLB WQ ACCESS:          0
ITLB WQ TO_CACHE:          0
ITLB WQ MERGED:          0
ITLB WQ FORWARD:          0
DTLB TOTAL     ACCESS:  121277561  HIT:  121184774  MISS:      92787
DTLB LOAD      ACCESS:   81229089  HIT:   81140254  MISS:      88835
DTLB RFO       ACCESS:   40048472  HIT:   40044520  MISS:       3952
DTLB PREFETCH  ACCESS:          0  HIT:          0  MISS:          0
DTLB WRITEBACK ACCESS:          0  HIT:          0  MISS:          0
DTLB PREFETCH  REQUESTED:          0  ISSUED:          0  USEFUL:          0  USELESS:          0
DTLB TOTAL MSHR MERGED:       2658
DTLB LOAD MSHR MERGED:       2333
DTLB RFO MSHR MERGED:        325
DTLB PREFETCH MSHR MERGED:          0
DTLB WRITEBACK MSHR MERGED:          0
DTLB TOTAL ACCESSES:  121280219 HITS:  121184774 MISSES:      95445
DTLB LOAD ACCESSES:   81231422 HITS:   81140254 MISSES:      91168
DTLB RFO ACCESSES:   40048797 HITS:   40044520 MISSES:       4277
DTLB PREFETCH ACCESSES:          0 HITS:          0 MISSES:          0
DTLB WRITEBACK ACCESSES:          0 HITS:          0 MISSES:          0
DTLB RQ ACCESS:  164786197
DTLB RQ TO_CACHE:  121280219
DTLB RQ MERGED:   43505978
DTLB RQ FORWARD:          0
DTLB WQ ACCESS:          0
DTLB WQ TO_CACHE:          0
DTLB WQ MERGED:          0
DTLB WQ FORWARD:          0
L1D TOTAL     ACCESS:  217700374  HIT:  214701490  MISS:    2998884
L1D LOAD      ACCESS:   90563626  HIT:   89159391  MISS:    1404235
L1D RFO       ACCESS:   46153824  HIT:   45771507  MISS:     382317
L1D PREFETCH  ACCESS:   80982924  HIT:   79770592  MISS:    1212332
L1D WRITEBACK ACCESS:          0  HIT:          0  MISS:          0
L1D PREFETCH  REQUESTED:   90613265  ISSUED:   88236197  USEFUL:     598930  USELESS:     613421
L1D TOTAL MSHR MERGED:     345316
L1D LOAD MSHR MERGED:      54209
L1D RFO MSHR MERGED:     174544
L1D PREFETCH MSHR MERGED:     116563
L1D WRITEBACK MSHR MERGED:          0
L1D TOTAL ACCESSES:  218050250 HITS:  214706050 MISSES:    3344200
L1D LOAD ACCESSES:   90613265 HITS:   89159391 MISSES:    1453874
L1D RFO ACCESSES:   46327213 HITS:   45771507 MISSES:     555706
L1D PREFETCH ACCESSES:   81109772 HITS:   79775152 MISSES:    1334620
L1D WRITEBACK ACCESSES:          0 HITS:          0 MISSES:          0
L1D RQ ACCESS:  117518277
L1D RQ TO_CACHE:   90613265
L1D RQ MERGED:   26905012
L1D RQ FORWARD:          0
L1D WQ ACCESS:   47267919
L1D WQ TO_CACHE:   46327213
L1D WQ MERGED:     940706
L1D WQ FORWARD:       4560
L1I TOTAL     ACCESS:  112807396  HIT:  112711993  MISS:      95403
L1I LOAD      ACCESS:  112807396  HIT:  112711993  MISS:      95403
L1I RFO       ACCESS:          0  HIT:          0  MISS:          0
L1I PREFETCH  ACCESS:          0  HIT:          0  MISS:          0
L1I WRITEBACK ACCESS:          0  HIT:          0  MISS:          0
L1I PREFETCH  REQUESTED:          0  ISSUED:          0  USEFUL:          0  USELESS:          0
L1I TOTAL MSHR MERGED:      59506
L1I LOAD MSHR MERGED:      59506
L1I RFO MSHR MERGED:          0
L1I PREFETCH MSHR MERGED:          0
L1I WRITEBACK MSHR MERGED:          0
L1I TOTAL ACCESSES:  112866902 HITS:  112711993 MISSES:     154909
L1I LOAD ACCESSES:  112866902 HITS:  112711993 MISSES:     154909
L1I RFO ACCESSES:          0 HITS:          0 MISSES:          0
L1I PREFETCH ACCESSES:          0 HITS:          0 MISSES:          0
L1I WRITEBACK ACCESSES:          0 HITS:          0 MISSES:          0
L1I RQ ACCESS:  500000064
L1I RQ TO_CACHE:  112866902
L1I RQ MERGED:  387133162
L1I RQ FORWARD:          0
L1I WQ ACCESS:          0
L1I WQ TO_CACHE:          0
L1I WQ MERGED:          0
L1I WQ FORWARD:          0
L2C TOTAL     ACCESS:    4791578  HIT:    4716502  MISS:      75076
L2C LOAD      ACCESS:    1495050  HIT:    1468336  MISS:      26714
L2C RFO       ACCESS:     381154  HIT:     372273  MISS:       8881
L2C PREFETCH  ACCESS:    2135669  HIT:    2096320  MISS:      39349
L2C WRITEBACK ACCESS:     779705  HIT:     779573  MISS:        132
L2C PREFETCH  REQUESTED:     923258  ISSUED:     923258  USEFUL:      13147  USELESS:      26319
L2C TOTAL MSHR MERGED:       5639
L2C LOAD MSHR MERGED:        282
L2C RFO MSHR MERGED:          0
L2C PREFETCH MSHR MERGED:       5357
L2C WRITEBACK MSHR MERGED:          0
L2C TOTAL ACCESSES:    4797249 HITS:    4716534 MISSES:      80715
L2C LOAD ACCESSES:    1495068 HITS:    1468354 MISSES:      26714
L2C RFO ACCESSES:     381162 HITS:     372281 MISSES:       8881
L2C PREFETCH ACCESSES:    2141314 HITS:    2096326 MISSES:      44988
L2C WRITEBACK ACCESSES:     779705 HITS:     779573 MISSES:        132
L2C RQ ACCESS:    1876230
L2C RQ TO_CACHE:    1876204
L2C RQ MERGED:          0
L2C RQ FORWARD:          0
L2C WQ ACCESS:     779705
L2C WQ TO_CACHE:     779705
L2C WQ MERGED:          0
L2C WQ FORWARD:         32
LLC TOTAL     ACCESS:      95472  HIT:      58563  MISS:      36909
LLC LOAD      ACCESS:      26432  HIT:      19210  MISS:       7222
LLC RFO       ACCESS:       8881  HIT:        417  MISS:       8464
LLC PREFETCH  ACCESS:      39631  HIT:      27437  MISS:      12194
LLC WRITEBACK ACCESS:      20528  HIT:      11499  MISS:       9029
LLC PREFETCH  REQUESTED:          0  ISSUED:          0  USEFUL:        516  USELESS:       9847
LLC TOTAL MSHR MERGED:          0
LLC LOAD MSHR MERGED:          0
LLC RFO MSHR MERGED:          0
LLC PREFETCH MSHR MERGED:          0
LLC WRITEBACK MSHR MERGED:          0
LLC TOTAL ACCESSES:      95472 HITS:      58563 MISSES:      36909
LLC LOAD ACCESSES:      26432 HITS:      19210 MISSES:       7222
LLC RFO ACCESSES:       8881 HITS:        417 MISSES:       8464
LLC PREFETCH ACCESSES:      39631 HITS:      27437 MISSES:      12194
LLC WRITEBACK ACCESSES:      20528 HITS:      11499 MISSES:       9029
LLC 0 RQ ACCESS:      35313
LLC 0 RQ TO_CACHE:      35313
LLC 0 RQ MERGED:          0
LLC 0 RQ FORWARD:          0
LLC WQ ACCESS:      20528
LLC WQ TO_CACHE:      20528
LLC WQ MERGED:          0
LLC WQ FORWARD:          0
Major fault: 0 Minor fault: 1378
CPU 0 L1D next line prefetcher final stats
CPU 0 L2C PC-based stride prefetcher final stats
All Misses: 49752
All Hits: 63197
SD Algo Stats - Switches: 0 SRR-Repls: 11666 BRR-Repls: 0

DRAM Statistics
 CHANNEL 0
 RQ ROW_BUFFER_HIT:      15476  ROW_BUFFER_MISS:      12404
 DBUS_CONGESTED:       4607
 WQ ROW_BUFFER_HIT:          0  ROW_BUFFER_MISS:          0  FULL:          0

 AVG_CONGESTED_CYCLE: 11
LOADS RETIRED: 124527094
INSTR RETIRED: 500000000
