
*** ChampSim Multicore Out-of-Order Simulator ***

Warmup Instructions: 100000000
Simulation Instructions: 500000000
Number of CPUs: 1
LLC sets: 2048
LLC ways: 16
Clean RRIP Policies: 2213130222131302 Dirty RRIP Policies: 1203130212031302 PSEL Width: 10 Track Set: 4294967295 PSEL Mask: 1 Demote Mask: 3340100033401000DS Algo: 0Window size: 0
Off-chip DRAM Size: 4096 MB Channels: 1 Width: 64-bit Data Rate: 1600 MT/s

CPU 0 runs /mnt/beegfs/iconst01/spec2017/Roms.trace.gz
NOT SORTED
TRACE STRING: /mnt/beegfs/iconst01/spec2017/Roms.trace.gz
SORTED
TRACE STRING: /mnt/beegfs/iconst01/spec2017/Roms.trace.gz
INITIAL
TRACE STRING: /mnt/beegfs/iconst01/spec2017/Roms.trace.gz

champsim_seed used: 417

CPU 0 L1D next line prefetcher
CPU 0 L2C IP-based stride prefetcher
Initialize DRRIP state
Assign rand_sets[0]: 454  LLC: 2048
rand_sets[0]: 454
Assign rand_sets[1]: 1662  LLC: 2048
rand_sets[1]: 1662
Assign rand_sets[2]: 1921  LLC: 2048
rand_sets[2]: 1921
Assign rand_sets[3]: 1131  LLC: 2048
rand_sets[3]: 1131
Assign rand_sets[4]: 331  LLC: 2048
rand_sets[4]: 331
Assign rand_sets[5]: 1531  LLC: 2048
rand_sets[5]: 1531
Assign rand_sets[6]: 482  LLC: 2048
rand_sets[6]: 482
Assign rand_sets[7]: 1275  LLC: 2048
rand_sets[7]: 1275
Assign rand_sets[8]: 1876  LLC: 2048
rand_sets[8]: 1876
Assign rand_sets[9]: 2038  LLC: 2048
rand_sets[9]: 2038
Assign rand_sets[10]: 701  LLC: 2048
rand_sets[10]: 701
Assign rand_sets[11]: 479  LLC: 2048
rand_sets[11]: 479
Assign rand_sets[12]: 892  LLC: 2048
rand_sets[12]: 892
Assign rand_sets[13]: 1820  LLC: 2048
rand_sets[13]: 1820
Assign rand_sets[14]: 1505  LLC: 2048
rand_sets[14]: 1505
Assign rand_sets[15]: 1159  LLC: 2048
rand_sets[15]: 1159
Assign rand_sets[16]: 513  LLC: 2048
rand_sets[16]: 513
Assign rand_sets[17]: 703  LLC: 2048
rand_sets[17]: 703
Assign rand_sets[18]: 561  LLC: 2048
rand_sets[18]: 561
Assign rand_sets[19]: 990  LLC: 2048
rand_sets[19]: 990
Assign rand_sets[20]: 342  LLC: 2048
rand_sets[20]: 342
Assign rand_sets[21]: 882  LLC: 2048
rand_sets[21]: 882
Assign rand_sets[22]: 15  LLC: 2048
rand_sets[22]: 15
Assign rand_sets[23]: 71  LLC: 2048
rand_sets[23]: 71
Assign rand_sets[24]: 1127  LLC: 2048
rand_sets[24]: 1127
Assign rand_sets[25]: 1382  LLC: 2048
rand_sets[25]: 1382
Assign rand_sets[26]: 647  LLC: 2048
rand_sets[26]: 647
Assign rand_sets[27]: 857  LLC: 2048
rand_sets[27]: 857
Assign rand_sets[28]: 1450  LLC: 2048
rand_sets[28]: 1450
Assign rand_sets[29]: 1160  LLC: 2048
rand_sets[29]: 1160
Assign rand_sets[30]: 1852  LLC: 2048
rand_sets[30]: 1852
Assign rand_sets[31]: 1881  LLC: 2048
rand_sets[31]: 1881
Assign rand_sets[32]: 1770  LLC: 2048
rand_sets[32]: 1770
Assign rand_sets[33]: 1622  LLC: 2048
rand_sets[33]: 1622
Assign rand_sets[34]: 275  LLC: 2048
rand_sets[34]: 275
Assign rand_sets[35]: 635  LLC: 2048
rand_sets[35]: 635
Assign rand_sets[36]: 466  LLC: 2048
rand_sets[36]: 466
Assign rand_sets[37]: 1413  LLC: 2048
rand_sets[37]: 1413
Assign rand_sets[38]: 417  LLC: 2048
rand_sets[38]: 417
Assign rand_sets[39]: 472  LLC: 2048
rand_sets[39]: 472
Assign rand_sets[40]: 1340  LLC: 2048
rand_sets[40]: 1340
Assign rand_sets[41]: 852  LLC: 2048
rand_sets[41]: 852
Assign rand_sets[42]: 1365  LLC: 2048
rand_sets[42]: 1365
Assign rand_sets[43]: 47  LLC: 2048
rand_sets[43]: 47
Assign rand_sets[44]: 823  LLC: 2048
rand_sets[44]: 823
Assign rand_sets[45]: 686  LLC: 2048
rand_sets[45]: 686
Assign rand_sets[46]: 1637  LLC: 2048
rand_sets[46]: 1637
Assign rand_sets[47]: 1115  LLC: 2048
rand_sets[47]: 1115
Assign rand_sets[48]: 986  LLC: 2048
rand_sets[48]: 986
Assign rand_sets[49]: 258  LLC: 2048
rand_sets[49]: 258
Assign rand_sets[50]: 633  LLC: 2048
rand_sets[50]: 633
Assign rand_sets[51]: 920  LLC: 2048
rand_sets[51]: 920
Assign rand_sets[52]: 204  LLC: 2048
rand_sets[52]: 204
Assign rand_sets[53]: 227  LLC: 2048
rand_sets[53]: 227
Assign rand_sets[54]: 1818  LLC: 2048
rand_sets[54]: 1818
Assign rand_sets[55]: 886  LLC: 2048
rand_sets[55]: 886
Assign rand_sets[56]: 1422  LLC: 2048
rand_sets[56]: 1422
Assign rand_sets[57]: 607  LLC: 2048
rand_sets[57]: 607
Assign rand_sets[58]: 217  LLC: 2048
rand_sets[58]: 217
Assign rand_sets[59]: 1945  LLC: 2048
rand_sets[59]: 1945
Assign rand_sets[60]: 143  LLC: 2048
rand_sets[60]: 143
Assign rand_sets[61]: 1311  LLC: 2048
rand_sets[61]: 1311
Assign rand_sets[62]: 319  LLC: 2048
rand_sets[62]: 319
Assign rand_sets[63]: 1846  LLC: 2048
rand_sets[63]: 1846
 CLEAN-RRIP-POLICY-1: 2-2-1-3-1-3-0-2- CLEAN-RRIP-POLICY-2: 2-2-1-3-1-3-0-2-
 DIRTY-RRIP-POLICY-1: 1-2-0-3-1-3-0-2- DIRTY-RRIP-POLICY-2: 1-2-0-3-1-3-0-2-
 PSEL width: 10
Heartbeat CPU 0 instructions: 10000000 cycles: 4688066 heartbeat IPC: 2.13308 cumulative IPC: 2.13308 (Simulation time: 0 hr 0 min 17 sec) 
Heartbeat CPU 0 instructions: 20000000 cycles: 9325334 heartbeat IPC: 2.15644 cumulative IPC: 2.1447 (Simulation time: 0 hr 0 min 34 sec) 
Heartbeat CPU 0 instructions: 30000003 cycles: 14019722 heartbeat IPC: 2.1302 cumulative IPC: 2.13984 (Simulation time: 0 hr 0 min 52 sec) 
Heartbeat CPU 0 instructions: 40000000 cycles: 18670140 heartbeat IPC: 2.15034 cumulative IPC: 2.14246 (Simulation time: 0 hr 1 min 9 sec) 
Heartbeat CPU 0 instructions: 50000003 cycles: 23323497 heartbeat IPC: 2.14899 cumulative IPC: 2.14376 (Simulation time: 0 hr 1 min 27 sec) 
Heartbeat CPU 0 instructions: 60000000 cycles: 27976129 heartbeat IPC: 2.14932 cumulative IPC: 2.14469 (Simulation time: 0 hr 1 min 44 sec) 
Heartbeat CPU 0 instructions: 70000002 cycles: 32367335 heartbeat IPC: 2.27728 cumulative IPC: 2.16267 (Simulation time: 0 hr 1 min 59 sec) 
Heartbeat CPU 0 instructions: 80000000 cycles: 36304249 heartbeat IPC: 2.54006 cumulative IPC: 2.2036 (Simulation time: 0 hr 2 min 12 sec) 
Heartbeat CPU 0 instructions: 90000000 cycles: 40249518 heartbeat IPC: 2.53468 cumulative IPC: 2.23605 (Simulation time: 0 hr 2 min 24 sec) 
Heartbeat CPU 0 instructions: 100000000 cycles: 44211887 heartbeat IPC: 2.52374 cumulative IPC: 2.26184 (Simulation time: 0 hr 2 min 36 sec) 

Warmup complete CPU 0 instructions: 100000002 cycles: 44211888 (Simulation time: 0 hr 2 min 36 sec) 

Heartbeat CPU 0 instructions: 110000000 cycles: 52920657 heartbeat IPC: 1.14827 cumulative IPC: 1.14827 (Simulation time: 0 hr 2 min 55 sec) 
Heartbeat CPU 0 instructions: 120000000 cycles: 61638056 heartbeat IPC: 1.14713 cumulative IPC: 1.1477 (Simulation time: 0 hr 3 min 15 sec) 
Heartbeat CPU 0 instructions: 130000002 cycles: 70376296 heartbeat IPC: 1.1444 cumulative IPC: 1.1466 (Simulation time: 0 hr 3 min 34 sec) 
Heartbeat CPU 0 instructions: 140000000 cycles: 78972475 heartbeat IPC: 1.16331 cumulative IPC: 1.15073 (Simulation time: 0 hr 3 min 53 sec) 
Heartbeat CPU 0 instructions: 150000003 cycles: 87744712 heartbeat IPC: 1.13996 cumulative IPC: 1.14856 (Simulation time: 0 hr 4 min 13 sec) 
Heartbeat CPU 0 instructions: 160000000 cycles: 98139911 heartbeat IPC: 0.961982 cumulative IPC: 1.11259 (Simulation time: 0 hr 4 min 35 sec) 
Heartbeat CPU 0 instructions: 170000002 cycles: 110627518 heartbeat IPC: 0.800794 cumulative IPC: 1.05397 (Simulation time: 0 hr 4 min 59 sec) 
Heartbeat CPU 0 instructions: 180000000 cycles: 123129065 heartbeat IPC: 0.799901 cumulative IPC: 1.01372 (Simulation time: 0 hr 5 min 24 sec) 
Heartbeat CPU 0 instructions: 190000000 cycles: 135892241 heartbeat IPC: 0.783504 cumulative IPC: 0.981672 (Simulation time: 0 hr 5 min 48 sec) 
Heartbeat CPU 0 instructions: 200000000 cycles: 149793108 heartbeat IPC: 0.71938 cumulative IPC: 0.947138 (Simulation time: 0 hr 6 min 13 sec) 
Heartbeat CPU 0 instructions: 210000001 cycles: 163730307 heartbeat IPC: 0.717504 cumulative IPC: 0.92036 (Simulation time: 0 hr 6 min 38 sec) 
Heartbeat CPU 0 instructions: 220000000 cycles: 177547018 heartbeat IPC: 0.723761 cumulative IPC: 0.899988 (Simulation time: 0 hr 7 min 2 sec) 
Heartbeat CPU 0 instructions: 230000000 cycles: 191174584 heartbeat IPC: 0.733807 cumulative IPC: 0.884578 (Simulation time: 0 hr 7 min 28 sec) 
Heartbeat CPU 0 instructions: 240000000 cycles: 204909594 heartbeat IPC: 0.728066 cumulative IPC: 0.871201 (Simulation time: 0 hr 7 min 54 sec) 
Heartbeat CPU 0 instructions: 250000003 cycles: 216079934 heartbeat IPC: 0.895228 cumulative IPC: 0.872763 (Simulation time: 0 hr 8 min 17 sec) 
Heartbeat CPU 0 instructions: 260000000 cycles: 223950890 heartbeat IPC: 1.27049 cumulative IPC: 0.89018 (Simulation time: 0 hr 8 min 37 sec) 
Heartbeat CPU 0 instructions: 270000003 cycles: 232468857 heartbeat IPC: 1.17399 cumulative IPC: 0.903021 (Simulation time: 0 hr 8 min 58 sec) 
Heartbeat CPU 0 instructions: 280000000 cycles: 242106142 heartbeat IPC: 1.03764 cumulative IPC: 0.909577 (Simulation time: 0 hr 9 min 20 sec) 
Heartbeat CPU 0 instructions: 290000000 cycles: 251455956 heartbeat IPC: 1.06954 cumulative IPC: 0.916793 (Simulation time: 0 hr 9 min 42 sec) 
Heartbeat CPU 0 instructions: 300000000 cycles: 260648313 heartbeat IPC: 1.08786 cumulative IPC: 0.924059 (Simulation time: 0 hr 10 min 4 sec) 
Heartbeat CPU 0 instructions: 310000000 cycles: 269840443 heartbeat IPC: 1.08789 cumulative IPC: 0.930733 (Simulation time: 0 hr 10 min 26 sec) 
Heartbeat CPU 0 instructions: 320000000 cycles: 278952897 heartbeat IPC: 1.0974 cumulative IPC: 0.937203 (Simulation time: 0 hr 10 min 49 sec) 
Heartbeat CPU 0 instructions: 330000002 cycles: 287985344 heartbeat IPC: 1.10712 cumulative IPC: 0.943499 (Simulation time: 0 hr 11 min 11 sec) 
Heartbeat CPU 0 instructions: 340000000 cycles: 298378185 heartbeat IPC: 0.962201 cumulative IPC: 0.944264 (Simulation time: 0 hr 11 min 35 sec) 
Heartbeat CPU 0 instructions: 350000001 cycles: 307369062 heartbeat IPC: 1.11224 cumulative IPC: 0.950003 (Simulation time: 0 hr 11 min 57 sec) 
Heartbeat CPU 0 instructions: 360000000 cycles: 316274017 heartbeat IPC: 1.12297 cumulative IPC: 0.955664 (Simulation time: 0 hr 12 min 19 sec) 
Heartbeat CPU 0 instructions: 370000001 cycles: 325125143 heartbeat IPC: 1.1298 cumulative IPC: 0.961151 (Simulation time: 0 hr 12 min 40 sec) 
Heartbeat CPU 0 instructions: 380000000 cycles: 333856417 heartbeat IPC: 1.14531 cumulative IPC: 0.966702 (Simulation time: 0 hr 13 min 1 sec) 
Heartbeat CPU 0 instructions: 390000001 cycles: 342361945 heartbeat IPC: 1.17571 cumulative IPC: 0.972665 (Simulation time: 0 hr 13 min 22 sec) 
Heartbeat CPU 0 instructions: 400000000 cycles: 350916904 heartbeat IPC: 1.16891 cumulative IPC: 0.978139 (Simulation time: 0 hr 13 min 43 sec) 
Heartbeat CPU 0 instructions: 410000003 cycles: 359346574 heartbeat IPC: 1.18629 cumulative IPC: 0.983706 (Simulation time: 0 hr 14 min 4 sec) 
Heartbeat CPU 0 instructions: 420000000 cycles: 367849104 heartbeat IPC: 1.17612 cumulative IPC: 0.988761 (Simulation time: 0 hr 14 min 25 sec) 
Heartbeat CPU 0 instructions: 430000001 cycles: 376248796 heartbeat IPC: 1.19052 cumulative IPC: 0.993865 (Simulation time: 0 hr 14 min 46 sec) 
Heartbeat CPU 0 instructions: 440000000 cycles: 384582298 heartbeat IPC: 1.19998 cumulative IPC: 0.998912 (Simulation time: 0 hr 15 min 6 sec) 
Heartbeat CPU 0 instructions: 450000001 cycles: 394193194 heartbeat IPC: 1.04049 cumulative IPC: 1.00005 (Simulation time: 0 hr 15 min 29 sec) 
Heartbeat CPU 0 instructions: 460000000 cycles: 402546822 heartbeat IPC: 1.19708 cumulative IPC: 1.00465 (Simulation time: 0 hr 15 min 50 sec) 
Heartbeat CPU 0 instructions: 470000003 cycles: 410751161 heartbeat IPC: 1.21887 cumulative IPC: 1.00944 (Simulation time: 0 hr 16 min 10 sec) 
Heartbeat CPU 0 instructions: 480000000 cycles: 418981609 heartbeat IPC: 1.215 cumulative IPC: 1.01396 (Simulation time: 0 hr 16 min 31 sec) 
Heartbeat CPU 0 instructions: 490000000 cycles: 427184336 heartbeat IPC: 1.21911 cumulative IPC: 1.01835 (Simulation time: 0 hr 16 min 51 sec) 
Heartbeat CPU 0 instructions: 500000000 cycles: 435383041 heartbeat IPC: 1.2197 cumulative IPC: 1.02257 (Simulation time: 0 hr 17 min 11 sec) 
Heartbeat CPU 0 instructions: 510000001 cycles: 443537198 heartbeat IPC: 1.22637 cumulative IPC: 1.02673 (Simulation time: 0 hr 17 min 31 sec) 
Heartbeat CPU 0 instructions: 520000000 cycles: 451717085 heartbeat IPC: 1.22251 cumulative IPC: 1.03066 (Simulation time: 0 hr 17 min 52 sec) 
Heartbeat CPU 0 instructions: 530000001 cycles: 459910825 heartbeat IPC: 1.22044 cumulative IPC: 1.0344 (Simulation time: 0 hr 18 min 12 sec) 
Heartbeat CPU 0 instructions: 540000000 cycles: 468270365 heartbeat IPC: 1.19624 cumulative IPC: 1.03759 (Simulation time: 0 hr 18 min 32 sec) 
Heartbeat CPU 0 instructions: 550000001 cycles: 476658654 heartbeat IPC: 1.19214 cumulative IPC: 1.04059 (Simulation time: 0 hr 18 min 53 sec) 
Heartbeat CPU 0 instructions: 560000000 cycles: 484823701 heartbeat IPC: 1.22473 cumulative IPC: 1.044 (Simulation time: 0 hr 19 min 13 sec) 
Heartbeat CPU 0 instructions: 570000001 cycles: 496085766 heartbeat IPC: 0.887937 cumulative IPC: 1.04011 (Simulation time: 0 hr 19 min 35 sec) 
Heartbeat CPU 0 instructions: 580000000 cycles: 507079831 heartbeat IPC: 0.909582 cumulative IPC: 1.03701 (Simulation time: 0 hr 19 min 57 sec) 
Heartbeat CPU 0 instructions: 590000001 cycles: 518284516 heartbeat IPC: 0.892484 cumulative IPC: 1.0336 (Simulation time: 0 hr 20 min 19 sec) 
Heartbeat CPU 0 instructions: 600000000 cycles: 529201533 heartbeat IPC: 0.916001 cumulative IPC: 1.03095 (Simulation time: 0 hr 20 min 41 sec) 
Finished CPU 0 instructions: 500000001 cycles: 484989658 cumulative IPC: 1.03095 (Simulation time: 0 hr 20 min 41 sec) 

CPU 0 Branch Prediction Accuracy: 99.7422% MPKI: 0.173296
Number of Branches: 33608403 Number of Mispredictions: 86648
Number of LOAD Instructions: 180215231
Number of LOAD Instructions (ROI): 180215231
Number of STORE Instructions: 36067263
Number of STORE Instructions (ROI): 36067263
Total Destination Memory Operands: 38428915
Total Destination Memory Operands (ROI): 38428915
Total Source Memory Operands: 180215231
Total Source Memory Operands (ROI): 180215231
Number of DEPENDED LOADS: 3041436
Number of DEPENDED LOADS (ROI): 3041436
Number of SQ_ADDED: 38428892
Number of SQ_ADDED (ROI): 38428892
Number of LQ_ADDED: 207782546
Number of LQ_ADDED (ROI): 207782546
Number of Instructions read from trace: 600000257

ChampSim completed all CPUs

Region of Interest Statistics

CPU 0 cumulative IPC: 1.03095 instructions: 500000001 cycles: 484989658
ITLB TOTAL     ACCESS:   91936274  HIT:   91936255  MISS:         19
ITLB LOAD      ACCESS:   91936274  HIT:   91936255  MISS:         19
ITLB RFO       ACCESS:          0  HIT:          0  MISS:          0
ITLB PREFETCH  ACCESS:          0  HIT:          0  MISS:          0
ITLB WRITEBACK ACCESS:          0  HIT:          0  MISS:          0
ITLB PREFETCH  REQUESTED:          0  ISSUED:          0  USEFUL:          0  USELESS:          0
ITLB TOTAL MSHR MERGED:         40
ITLB LOAD MSHR MERGED:         40
ITLB RFO MSHR MERGED:          0
ITLB PREFETCH MSHR MERGED:          0
ITLB WRITEBACK MSHR MERGED:          0
ITLB TOTAL ACCESSES:   91936314 HITS:   91936255 MISSES:         59
ITLB LOAD ACCESSES:   91936314 HITS:   91936255 MISSES:         59
ITLB RFO ACCESSES:          0 HITS:          0 MISSES:          0
ITLB PREFETCH ACCESSES:          0 HITS:          0 MISSES:          0
ITLB WRITEBACK ACCESSES:          0 HITS:          0 MISSES:          0
ITLB RQ ACCESS:  500000003
ITLB RQ TO_CACHE:   91936314
ITLB RQ MERGED:  408063689
ITLB RQ FORWARD:          0
ITLB WQ ACCESS:          0
ITLB WQ TO_CACHE:          0
ITLB WQ MERGED:          0
ITLB WQ FORWARD:          0
DTLB TOTAL     ACCESS:  142034106  HIT:  141667645  MISS:     366461
DTLB LOAD      ACCESS:  119397739  HIT:  119084154  MISS:     313585
DTLB RFO       ACCESS:   22636367  HIT:   22583491  MISS:      52876
DTLB PREFETCH  ACCESS:          0  HIT:          0  MISS:          0
DTLB WRITEBACK ACCESS:          0  HIT:          0  MISS:          0
DTLB PREFETCH  REQUESTED:          0  ISSUED:          0  USEFUL:          0  USELESS:          0
DTLB TOTAL MSHR MERGED:     285828
DTLB LOAD MSHR MERGED:     238015
DTLB RFO MSHR MERGED:      47813
DTLB PREFETCH MSHR MERGED:          0
DTLB WRITEBACK MSHR MERGED:          0
DTLB TOTAL ACCESSES:  142319934 HITS:  141667645 MISSES:     652289
DTLB LOAD ACCESSES:  119635754 HITS:  119084154 MISSES:     551600
DTLB RFO ACCESSES:   22684180 HITS:   22583491 MISSES:     100689
DTLB PREFETCH ACCESSES:          0 HITS:          0 MISSES:          0
DTLB WRITEBACK ACCESSES:          0 HITS:          0 MISSES:          0
DTLB RQ ACCESS:  184791541
DTLB RQ TO_CACHE:  142319934
DTLB RQ MERGED:   42471607
DTLB RQ FORWARD:          0
DTLB WQ ACCESS:          0
DTLB WQ TO_CACHE:          0
DTLB WQ MERGED:          0
DTLB WQ FORWARD:          0
L1D TOTAL     ACCESS:  189118178  HIT:  175670005  MISS:   13448173
L1D LOAD      ACCESS:  111820693  HIT:  108461016  MISS:    3359677
L1D RFO       ACCESS:   18645732  HIT:   15863987  MISS:    2781745
L1D PREFETCH  ACCESS:   58651753  HIT:   51345002  MISS:    7306751
L1D WRITEBACK ACCESS:          0  HIT:          0  MISS:          0
L1D PREFETCH  REQUESTED:  116507174  ISSUED:  115146593  USEFUL:    7097274  USELESS:     209478
L1D TOTAL MSHR MERGED:   32641484
L1D LOAD MSHR MERGED:    7489665
L1D RFO MSHR MERGED:    9606982
L1D PREFETCH MSHR MERGED:   15544837
L1D WRITEBACK MSHR MERGED:          0
L1D TOTAL ACCESSES:  221760083 HITS:  175670424 MISSES:   46089659
L1D LOAD ACCESSES:  116507218 HITS:  108461060 MISSES:    8046158
L1D RFO ACCESSES:   28252668 HITS:   15863987 MISSES:   12388681
L1D PREFETCH ACCESSES:   77000197 HITS:   51345377 MISSES:   25654820
L1D WRITEBACK ACCESSES:          0 HITS:          0 MISSES:          0
L1D RQ ACCESS:  156535475
L1D RQ TO_CACHE:  116507177
L1D RQ MERGED:   40028254
L1D RQ FORWARD:          0
L1D WQ ACCESS:   28256066
L1D WQ TO_CACHE:   28252668
L1D WQ MERGED:       3398
L1D WQ FORWARD:        419
L1I TOTAL     ACCESS:  115920039  HIT:  115919091  MISS:        948
L1I LOAD      ACCESS:  115920039  HIT:  115919091  MISS:        948
L1I RFO       ACCESS:          0  HIT:          0  MISS:          0
L1I PREFETCH  ACCESS:          0  HIT:          0  MISS:          0
L1I WRITEBACK ACCESS:          0  HIT:          0  MISS:          0
L1I PREFETCH  REQUESTED:          0  ISSUED:          0  USEFUL:          0  USELESS:          0
L1I TOTAL MSHR MERGED:       1568
L1I LOAD MSHR MERGED:       1568
L1I RFO MSHR MERGED:          0
L1I PREFETCH MSHR MERGED:          0
L1I WRITEBACK MSHR MERGED:          0
L1I TOTAL ACCESSES:  115921607 HITS:  115919091 MISSES:       2516
L1I LOAD ACCESSES:  115921607 HITS:  115919091 MISSES:       2516
L1I RFO ACCESSES:          0 HITS:          0 MISSES:          0
L1I PREFETCH ACCESSES:          0 HITS:          0 MISSES:          0
L1I WRITEBACK ACCESSES:          0 HITS:          0 MISSES:          0
L1I RQ ACCESS:  500000007
L1I RQ TO_CACHE:  115921607
L1I RQ MERGED:  384078400
L1I RQ FORWARD:          0
L1I WQ ACCESS:          0
L1I WQ TO_CACHE:          0
L1I WQ MERGED:          0
L1I WQ FORWARD:          0
L2C TOTAL     ACCESS:   16693821  HIT:    4849456  MISS:   11844365
L2C LOAD      ACCESS:     557407  HIT:      95402  MISS:     462005
L2C RFO       ACCESS:    2781699  HIT:     266727  MISS:    2514972
L2C PREFETCH  ACCESS:   10134073  HIT:    1268969  MISS:    8865104
L2C WRITEBACK ACCESS:    3220642  HIT:    3218358  MISS:       2284
L2C PREFETCH  REQUESTED:      25999  ISSUED:      25999  USEFUL:      93006  USELESS:    8770169
L2C TOTAL MSHR MERGED:        454
L2C LOAD MSHR MERGED:          3
L2C RFO MSHR MERGED:          0
L2C PREFETCH MSHR MERGED:        451
L2C WRITEBACK MSHR MERGED:          0
L2C TOTAL ACCESSES:   16694393 HITS:    4849509 MISSES:   11844884
L2C LOAD ACCESSES:     557441 HITS:      95436 MISSES:     462005
L2C RFO ACCESSES:    2781699 HITS:     266727 MISSES:    2514972
L2C PREFETCH ACCESSES:   10134611 HITS:    1268988 MISSES:    8865623
L2C WRITEBACK ACCESSES:    3220642 HITS:    3218358 MISSES:       2284
L2C RQ ACCESS:    3339140
L2C RQ TO_CACHE:    3339106
L2C RQ MERGED:          0
L2C RQ FORWARD:          0
L2C WQ ACCESS:    3220642
L2C WQ TO_CACHE:    3220642
L2C WQ MERGED:          0
L2C WQ FORWARD:         53
LLC TOTAL     ACCESS:   14742349  HIT:    6993634  MISS:    7748715
LLC LOAD      ACCESS:     462000  HIT:     189255  MISS:     272745
LLC RFO       ACCESS:    2514952  HIT:    1763939  MISS:     751013
LLC PREFETCH  ACCESS:    8865116  HIT:    2961470  MISS:    5903646
LLC WRITEBACK ACCESS:    2900281  HIT:    2078970  MISS:     821311
LLC PREFETCH  REQUESTED:          0  ISSUED:          0  USEFUL:       2939  USELESS:    5900217
LLC TOTAL MSHR MERGED:          1
LLC LOAD MSHR MERGED:          1
LLC RFO MSHR MERGED:          0
LLC PREFETCH MSHR MERGED:          0
LLC WRITEBACK MSHR MERGED:          0
LLC TOTAL ACCESSES:   14742420 HITS:    6993703 MISSES:    7748717
LLC LOAD ACCESSES:     462002 HITS:     189257 MISSES:     272745
LLC RFO ACCESSES:    2514972 HITS:    1763959 MISSES:     751013
LLC PREFETCH ACCESSES:    8865165 HITS:    2961517 MISSES:    5903648
LLC WRITEBACK ACCESSES:    2900281 HITS:    2078970 MISSES:     821311
LLC 0 RQ ACCESS:    2976974
LLC 0 RQ TO_CACHE:    2976952
LLC 0 RQ MERGED:          0
LLC 0 RQ FORWARD:          0
LLC WQ ACCESS:    2900282
LLC WQ TO_CACHE:    2900282
LLC WQ MERGED:          0
LLC WQ FORWARD:         69
Major fault: 0 Minor fault: 57518
CPU 0 L1D next line prefetcher final stats
CPU 0 L2C PC-based stride prefetcher final stats
All Misses: 8372622
All Hits: 7865908
SD Algo Stats - Switches: 0 SRR-Repls: 279508 BRR-Repls: 0

DRAM Statistics
 CHANNEL 0
 RQ ROW_BUFFER_HIT:    3797193  ROW_BUFFER_MISS:    3127072
 DBUS_CONGESTED:    3259292
 WQ ROW_BUFFER_HIT:     142006  ROW_BUFFER_MISS:     882089  FULL:          0

 AVG_CONGESTED_CYCLE: 12
LOADS RETIRED: 157818985
INSTR RETIRED: 500000000
