
*** ChampSim Multicore Out-of-Order Simulator ***

Warmup Instructions: 100000000
Simulation Instructions: 500000000
Number of CPUs: 1
LLC sets: 2048
LLC ways: 16
Clean RRIP Policies: 2213130222131302 Dirty RRIP Policies: 1203130212031302 PSEL Width: 10 Track Set: 4294967295 PSEL Mask: 1 Demote Mask: 3340100033401000DS Algo: 0Window size: 0
Off-chip DRAM Size: 4096 MB Channels: 1 Width: 64-bit Data Rate: 1600 MT/s

CPU 0 runs /mnt/beegfs/iconst01/spec2017/x264.trace.gz
NOT SORTED
TRACE STRING: /mnt/beegfs/iconst01/spec2017/x264.trace.gz
SORTED
TRACE STRING: /mnt/beegfs/iconst01/spec2017/x264.trace.gz
INITIAL
TRACE STRING: /mnt/beegfs/iconst01/spec2017/x264.trace.gz

champsim_seed used: 276

CPU 0 L1D next line prefetcher
CPU 0 L2C IP-based stride prefetcher
Initialize DRRIP state
Assign rand_sets[0]: 454  LLC: 2048
rand_sets[0]: 454
Assign rand_sets[1]: 1662  LLC: 2048
rand_sets[1]: 1662
Assign rand_sets[2]: 1921  LLC: 2048
rand_sets[2]: 1921
Assign rand_sets[3]: 1131  LLC: 2048
rand_sets[3]: 1131
Assign rand_sets[4]: 331  LLC: 2048
rand_sets[4]: 331
Assign rand_sets[5]: 1531  LLC: 2048
rand_sets[5]: 1531
Assign rand_sets[6]: 482  LLC: 2048
rand_sets[6]: 482
Assign rand_sets[7]: 1275  LLC: 2048
rand_sets[7]: 1275
Assign rand_sets[8]: 1876  LLC: 2048
rand_sets[8]: 1876
Assign rand_sets[9]: 2038  LLC: 2048
rand_sets[9]: 2038
Assign rand_sets[10]: 701  LLC: 2048
rand_sets[10]: 701
Assign rand_sets[11]: 479  LLC: 2048
rand_sets[11]: 479
Assign rand_sets[12]: 892  LLC: 2048
rand_sets[12]: 892
Assign rand_sets[13]: 1820  LLC: 2048
rand_sets[13]: 1820
Assign rand_sets[14]: 1505  LLC: 2048
rand_sets[14]: 1505
Assign rand_sets[15]: 1159  LLC: 2048
rand_sets[15]: 1159
Assign rand_sets[16]: 513  LLC: 2048
rand_sets[16]: 513
Assign rand_sets[17]: 703  LLC: 2048
rand_sets[17]: 703
Assign rand_sets[18]: 561  LLC: 2048
rand_sets[18]: 561
Assign rand_sets[19]: 990  LLC: 2048
rand_sets[19]: 990
Assign rand_sets[20]: 342  LLC: 2048
rand_sets[20]: 342
Assign rand_sets[21]: 882  LLC: 2048
rand_sets[21]: 882
Assign rand_sets[22]: 15  LLC: 2048
rand_sets[22]: 15
Assign rand_sets[23]: 71  LLC: 2048
rand_sets[23]: 71
Assign rand_sets[24]: 1127  LLC: 2048
rand_sets[24]: 1127
Assign rand_sets[25]: 1382  LLC: 2048
rand_sets[25]: 1382
Assign rand_sets[26]: 647  LLC: 2048
rand_sets[26]: 647
Assign rand_sets[27]: 857  LLC: 2048
rand_sets[27]: 857
Assign rand_sets[28]: 1450  LLC: 2048
rand_sets[28]: 1450
Assign rand_sets[29]: 1160  LLC: 2048
rand_sets[29]: 1160
Assign rand_sets[30]: 1852  LLC: 2048
rand_sets[30]: 1852
Assign rand_sets[31]: 1881  LLC: 2048
rand_sets[31]: 1881
Assign rand_sets[32]: 1770  LLC: 2048
rand_sets[32]: 1770
Assign rand_sets[33]: 1622  LLC: 2048
rand_sets[33]: 1622
Assign rand_sets[34]: 275  LLC: 2048
rand_sets[34]: 275
Assign rand_sets[35]: 635  LLC: 2048
rand_sets[35]: 635
Assign rand_sets[36]: 466  LLC: 2048
rand_sets[36]: 466
Assign rand_sets[37]: 1413  LLC: 2048
rand_sets[37]: 1413
Assign rand_sets[38]: 417  LLC: 2048
rand_sets[38]: 417
Assign rand_sets[39]: 472  LLC: 2048
rand_sets[39]: 472
Assign rand_sets[40]: 1340  LLC: 2048
rand_sets[40]: 1340
Assign rand_sets[41]: 852  LLC: 2048
rand_sets[41]: 852
Assign rand_sets[42]: 1365  LLC: 2048
rand_sets[42]: 1365
Assign rand_sets[43]: 47  LLC: 2048
rand_sets[43]: 47
Assign rand_sets[44]: 823  LLC: 2048
rand_sets[44]: 823
Assign rand_sets[45]: 686  LLC: 2048
rand_sets[45]: 686
Assign rand_sets[46]: 1637  LLC: 2048
rand_sets[46]: 1637
Assign rand_sets[47]: 1115  LLC: 2048
rand_sets[47]: 1115
Assign rand_sets[48]: 986  LLC: 2048
rand_sets[48]: 986
Assign rand_sets[49]: 258  LLC: 2048
rand_sets[49]: 258
Assign rand_sets[50]: 633  LLC: 2048
rand_sets[50]: 633
Assign rand_sets[51]: 920  LLC: 2048
rand_sets[51]: 920
Assign rand_sets[52]: 204  LLC: 2048
rand_sets[52]: 204
Assign rand_sets[53]: 227  LLC: 2048
rand_sets[53]: 227
Assign rand_sets[54]: 1818  LLC: 2048
rand_sets[54]: 1818
Assign rand_sets[55]: 886  LLC: 2048
rand_sets[55]: 886
Assign rand_sets[56]: 1422  LLC: 2048
rand_sets[56]: 1422
Assign rand_sets[57]: 607  LLC: 2048
rand_sets[57]: 607
Assign rand_sets[58]: 217  LLC: 2048
rand_sets[58]: 217
Assign rand_sets[59]: 1945  LLC: 2048
rand_sets[59]: 1945
Assign rand_sets[60]: 143  LLC: 2048
rand_sets[60]: 143
Assign rand_sets[61]: 1311  LLC: 2048
rand_sets[61]: 1311
Assign rand_sets[62]: 319  LLC: 2048
rand_sets[62]: 319
Assign rand_sets[63]: 1846  LLC: 2048
rand_sets[63]: 1846
 CLEAN-RRIP-POLICY-1: 2-2-1-3-1-3-0-2- CLEAN-RRIP-POLICY-2: 2-2-1-3-1-3-0-2-
 DIRTY-RRIP-POLICY-1: 1-2-0-3-1-3-0-2- DIRTY-RRIP-POLICY-2: 1-2-0-3-1-3-0-2-
 PSEL width: 10
Heartbeat CPU 0 instructions: 10000000 cycles: 4124759 heartbeat IPC: 2.42438 cumulative IPC: 2.42438 (Simulation time: 0 hr 0 min 14 sec) 
Heartbeat CPU 0 instructions: 20000000 cycles: 8233863 heartbeat IPC: 2.43362 cumulative IPC: 2.42899 (Simulation time: 0 hr 0 min 27 sec) 
Heartbeat CPU 0 instructions: 30000003 cycles: 12464696 heartbeat IPC: 2.3636 cumulative IPC: 2.4068 (Simulation time: 0 hr 0 min 40 sec) 
Heartbeat CPU 0 instructions: 40000000 cycles: 16636669 heartbeat IPC: 2.39695 cumulative IPC: 2.40433 (Simulation time: 0 hr 0 min 54 sec) 
Heartbeat CPU 0 instructions: 50000000 cycles: 20699150 heartbeat IPC: 2.46155 cumulative IPC: 2.41556 (Simulation time: 0 hr 1 min 8 sec) 
Heartbeat CPU 0 instructions: 60000000 cycles: 25022635 heartbeat IPC: 2.31295 cumulative IPC: 2.39783 (Simulation time: 0 hr 1 min 21 sec) 
Heartbeat CPU 0 instructions: 70000000 cycles: 29370912 heartbeat IPC: 2.29976 cumulative IPC: 2.38331 (Simulation time: 0 hr 1 min 34 sec) 
Heartbeat CPU 0 instructions: 80000000 cycles: 33721022 heartbeat IPC: 2.29879 cumulative IPC: 2.37241 (Simulation time: 0 hr 1 min 47 sec) 
Heartbeat CPU 0 instructions: 90000002 cycles: 38032042 heartbeat IPC: 2.31964 cumulative IPC: 2.36643 (Simulation time: 0 hr 2 min 1 sec) 
Heartbeat CPU 0 instructions: 100000000 cycles: 42328980 heartbeat IPC: 2.32724 cumulative IPC: 2.36245 (Simulation time: 0 hr 2 min 14 sec) 

Warmup complete CPU 0 instructions: 100000001 cycles: 42328981 (Simulation time: 0 hr 2 min 14 sec) 

Heartbeat CPU 0 instructions: 110000001 cycles: 49398648 heartbeat IPC: 1.41449 cumulative IPC: 1.41449 (Simulation time: 0 hr 2 min 31 sec) 
Heartbeat CPU 0 instructions: 120000000 cycles: 58903361 heartbeat IPC: 1.05211 cumulative IPC: 1.20668 (Simulation time: 0 hr 2 min 50 sec) 
Heartbeat CPU 0 instructions: 130000000 cycles: 63732417 heartbeat IPC: 2.0708 cumulative IPC: 1.40164 (Simulation time: 0 hr 3 min 7 sec) 
Heartbeat CPU 0 instructions: 140000000 cycles: 68680807 heartbeat IPC: 2.02086 cumulative IPC: 1.51792 (Simulation time: 0 hr 3 min 24 sec) 
Heartbeat CPU 0 instructions: 150000002 cycles: 75502393 heartbeat IPC: 1.46593 cumulative IPC: 1.50723 (Simulation time: 0 hr 3 min 42 sec) 
Heartbeat CPU 0 instructions: 160000000 cycles: 83359784 heartbeat IPC: 1.27269 cumulative IPC: 1.46232 (Simulation time: 0 hr 4 min 0 sec) 
Heartbeat CPU 0 instructions: 170000000 cycles: 90781210 heartbeat IPC: 1.34745 cumulative IPC: 1.44472 (Simulation time: 0 hr 4 min 18 sec) 
Heartbeat CPU 0 instructions: 180000000 cycles: 98098324 heartbeat IPC: 1.36666 cumulative IPC: 1.43448 (Simulation time: 0 hr 4 min 35 sec) 
Heartbeat CPU 0 instructions: 190000002 cycles: 105278882 heartbeat IPC: 1.39265 cumulative IPC: 1.42971 (Simulation time: 0 hr 4 min 52 sec) 
Heartbeat CPU 0 instructions: 200000000 cycles: 112518724 heartbeat IPC: 1.38125 cumulative IPC: 1.42471 (Simulation time: 0 hr 5 min 9 sec) 
Heartbeat CPU 0 instructions: 210000000 cycles: 119396253 heartbeat IPC: 1.45401 cumulative IPC: 1.42732 (Simulation time: 0 hr 5 min 26 sec) 
Heartbeat CPU 0 instructions: 220000000 cycles: 126176402 heartbeat IPC: 1.47489 cumulative IPC: 1.43117 (Simulation time: 0 hr 5 min 43 sec) 
Heartbeat CPU 0 instructions: 230000003 cycles: 132905200 heartbeat IPC: 1.48615 cumulative IPC: 1.43526 (Simulation time: 0 hr 6 min 0 sec) 
Heartbeat CPU 0 instructions: 240000000 cycles: 139657898 heartbeat IPC: 1.48089 cumulative IPC: 1.43842 (Simulation time: 0 hr 6 min 17 sec) 
Heartbeat CPU 0 instructions: 250000001 cycles: 146395183 heartbeat IPC: 1.48428 cumulative IPC: 1.44139 (Simulation time: 0 hr 6 min 33 sec) 
Heartbeat CPU 0 instructions: 260000000 cycles: 153102899 heartbeat IPC: 1.49082 cumulative IPC: 1.44438 (Simulation time: 0 hr 6 min 50 sec) 
Heartbeat CPU 0 instructions: 270000001 cycles: 160083571 heartbeat IPC: 1.43253 cumulative IPC: 1.44368 (Simulation time: 0 hr 7 min 7 sec) 
Heartbeat CPU 0 instructions: 280000000 cycles: 167623124 heartbeat IPC: 1.32634 cumulative IPC: 1.43662 (Simulation time: 0 hr 7 min 25 sec) 
Heartbeat CPU 0 instructions: 290000000 cycles: 175547074 heartbeat IPC: 1.262 cumulative IPC: 1.42623 (Simulation time: 0 hr 7 min 42 sec) 
Heartbeat CPU 0 instructions: 300000000 cycles: 183722258 heartbeat IPC: 1.22321 cumulative IPC: 1.41449 (Simulation time: 0 hr 8 min 1 sec) 
Heartbeat CPU 0 instructions: 310000002 cycles: 192033482 heartbeat IPC: 1.20319 cumulative IPC: 1.40276 (Simulation time: 0 hr 8 min 19 sec) 
Heartbeat CPU 0 instructions: 320000000 cycles: 202015796 heartbeat IPC: 1.00177 cumulative IPC: 1.3777 (Simulation time: 0 hr 8 min 39 sec) 
Heartbeat CPU 0 instructions: 330000002 cycles: 206663308 heartbeat IPC: 2.15169 cumulative IPC: 1.39959 (Simulation time: 0 hr 8 min 56 sec) 
Heartbeat CPU 0 instructions: 340000000 cycles: 211926795 heartbeat IPC: 1.89988 cumulative IPC: 1.41511 (Simulation time: 0 hr 9 min 13 sec) 
Heartbeat CPU 0 instructions: 350000000 cycles: 219147570 heartbeat IPC: 1.38489 cumulative IPC: 1.41388 (Simulation time: 0 hr 9 min 31 sec) 
Heartbeat CPU 0 instructions: 360000000 cycles: 226833665 heartbeat IPC: 1.30105 cumulative IPC: 1.40918 (Simulation time: 0 hr 9 min 49 sec) 
Heartbeat CPU 0 instructions: 370000000 cycles: 234255267 heartbeat IPC: 1.34742 cumulative IPC: 1.40679 (Simulation time: 0 hr 10 min 6 sec) 
Heartbeat CPU 0 instructions: 380000000 cycles: 241537186 heartbeat IPC: 1.37326 cumulative IPC: 1.40556 (Simulation time: 0 hr 10 min 24 sec) 
Heartbeat CPU 0 instructions: 390000000 cycles: 249658519 heartbeat IPC: 1.23132 cumulative IPC: 1.39874 (Simulation time: 0 hr 10 min 42 sec) 
Heartbeat CPU 0 instructions: 400000000 cycles: 257864543 heartbeat IPC: 1.21862 cumulative IPC: 1.39188 (Simulation time: 0 hr 11 min 0 sec) 
Heartbeat CPU 0 instructions: 410000001 cycles: 265696207 heartbeat IPC: 1.27687 cumulative IPC: 1.38785 (Simulation time: 0 hr 11 min 18 sec) 
Heartbeat CPU 0 instructions: 420000000 cycles: 273751106 heartbeat IPC: 1.24148 cumulative IPC: 1.38275 (Simulation time: 0 hr 11 min 36 sec) 
Heartbeat CPU 0 instructions: 430000001 cycles: 282001517 heartbeat IPC: 1.21206 cumulative IPC: 1.37688 (Simulation time: 0 hr 11 min 54 sec) 
Heartbeat CPU 0 instructions: 440000000 cycles: 290047799 heartbeat IPC: 1.24281 cumulative IPC: 1.37252 (Simulation time: 0 hr 12 min 12 sec) 
Heartbeat CPU 0 instructions: 450000001 cycles: 297922787 heartbeat IPC: 1.26984 cumulative IPC: 1.36936 (Simulation time: 0 hr 12 min 30 sec) 
Heartbeat CPU 0 instructions: 460000000 cycles: 307846233 heartbeat IPC: 1.00771 cumulative IPC: 1.35584 (Simulation time: 0 hr 12 min 50 sec) 
Heartbeat CPU 0 instructions: 470000002 cycles: 312487438 heartbeat IPC: 2.15461 cumulative IPC: 1.36957 (Simulation time: 0 hr 13 min 6 sec) 
Heartbeat CPU 0 instructions: 480000000 cycles: 317773075 heartbeat IPC: 1.89192 cumulative IPC: 1.37959 (Simulation time: 0 hr 13 min 23 sec) 
Heartbeat CPU 0 instructions: 490000001 cycles: 325088256 heartbeat IPC: 1.36702 cumulative IPC: 1.37927 (Simulation time: 0 hr 13 min 42 sec) 
Heartbeat CPU 0 instructions: 500000000 cycles: 333818102 heartbeat IPC: 1.1455 cumulative IPC: 1.37226 (Simulation time: 0 hr 14 min 2 sec) 
Heartbeat CPU 0 instructions: 510000002 cycles: 342548376 heartbeat IPC: 1.14544 cumulative IPC: 1.36567 (Simulation time: 0 hr 14 min 22 sec) 
Heartbeat CPU 0 instructions: 520000000 cycles: 351276391 heartbeat IPC: 1.14574 cumulative IPC: 1.35945 (Simulation time: 0 hr 14 min 42 sec) 
Heartbeat CPU 0 instructions: 530000000 cycles: 359984299 heartbeat IPC: 1.14838 cumulative IPC: 1.35367 (Simulation time: 0 hr 15 min 2 sec) 
Heartbeat CPU 0 instructions: 540000000 cycles: 368239706 heartbeat IPC: 1.21133 cumulative IPC: 1.35006 (Simulation time: 0 hr 15 min 21 sec) 
Heartbeat CPU 0 instructions: 550000000 cycles: 375281237 heartbeat IPC: 1.42015 cumulative IPC: 1.35155 (Simulation time: 0 hr 15 min 39 sec) 
Heartbeat CPU 0 instructions: 560000000 cycles: 381889200 heartbeat IPC: 1.51333 cumulative IPC: 1.35469 (Simulation time: 0 hr 15 min 56 sec) 
Heartbeat CPU 0 instructions: 570000002 cycles: 388475228 heartbeat IPC: 1.51837 cumulative IPC: 1.35781 (Simulation time: 0 hr 16 min 13 sec) 
Heartbeat CPU 0 instructions: 580000000 cycles: 395123221 heartbeat IPC: 1.50421 cumulative IPC: 1.36057 (Simulation time: 0 hr 16 min 30 sec) 
Heartbeat CPU 0 instructions: 590000002 cycles: 401815145 heartbeat IPC: 1.49434 cumulative IPC: 1.36306 (Simulation time: 0 hr 16 min 47 sec) 
Heartbeat CPU 0 instructions: 600000000 cycles: 408628026 heartbeat IPC: 1.46781 cumulative IPC: 1.365 (Simulation time: 0 hr 17 min 4 sec) 
Finished CPU 0 instructions: 500000000 cycles: 366299053 cumulative IPC: 1.365 (Simulation time: 0 hr 17 min 4 sec) 

CPU 0 Branch Prediction Accuracy: 93.4682% MPKI: 2.44079
Number of Branches: 18683822 Number of Mispredictions: 1220394
Number of LOAD Instructions: 142551610
Number of LOAD Instructions (ROI): 142551610
Number of STORE Instructions: 44807454
Number of STORE Instructions (ROI): 44807454
Total Destination Memory Operands: 48357071
Total Destination Memory Operands (ROI): 48357071
Total Source Memory Operands: 142551610
Total Source Memory Operands (ROI): 142551610
Number of DEPENDED LOADS: 7394855
Number of DEPENDED LOADS (ROI): 7394855
Number of SQ_ADDED: 48357051
Number of SQ_ADDED (ROI): 48357051
Number of LQ_ADDED: 157224067
Number of LQ_ADDED (ROI): 157224067
Number of Instructions read from trace: 600000256

ChampSim completed all CPUs

Region of Interest Statistics

CPU 0 cumulative IPC: 1.365 instructions: 500000000 cycles: 366299053
ITLB TOTAL     ACCESS:   88179207  HIT:   88179138  MISS:         69
ITLB LOAD      ACCESS:   88179207  HIT:   88179138  MISS:         69
ITLB RFO       ACCESS:          0  HIT:          0  MISS:          0
ITLB PREFETCH  ACCESS:          0  HIT:          0  MISS:          0
ITLB WRITEBACK ACCESS:          0  HIT:          0  MISS:          0
ITLB PREFETCH  REQUESTED:          0  ISSUED:          0  USEFUL:          0  USELESS:          0
ITLB TOTAL MSHR MERGED:         85
ITLB LOAD MSHR MERGED:         85
ITLB RFO MSHR MERGED:          0
ITLB PREFETCH MSHR MERGED:          0
ITLB WRITEBACK MSHR MERGED:          0
ITLB TOTAL ACCESSES:   88179292 HITS:   88179138 MISSES:        154
ITLB LOAD ACCESSES:   88179292 HITS:   88179138 MISSES:        154
ITLB RFO ACCESSES:          0 HITS:          0 MISSES:          0
ITLB PREFETCH ACCESSES:          0 HITS:          0 MISSES:          0
ITLB WRITEBACK ACCESSES:          0 HITS:          0 MISSES:          0
ITLB RQ ACCESS:  500000000
ITLB RQ TO_CACHE:   88179292
ITLB RQ MERGED:  411820708
ITLB RQ FORWARD:          0
ITLB WQ ACCESS:          0
ITLB WQ TO_CACHE:          0
ITLB WQ MERGED:          0
ITLB WQ FORWARD:          0
DTLB TOTAL     ACCESS:   88203840  HIT:   88076425  MISS:     127415
DTLB LOAD      ACCESS:   59485710  HIT:   59393249  MISS:      92461
DTLB RFO       ACCESS:   28718130  HIT:   28683176  MISS:      34954
DTLB PREFETCH  ACCESS:          0  HIT:          0  MISS:          0
DTLB WRITEBACK ACCESS:          0  HIT:          0  MISS:          0
DTLB PREFETCH  REQUESTED:          0  ISSUED:          0  USEFUL:          0  USELESS:          0
DTLB TOTAL MSHR MERGED:     140930
DTLB LOAD MSHR MERGED:     107599
DTLB RFO MSHR MERGED:      33331
DTLB PREFETCH MSHR MERGED:          0
DTLB WRITEBACK MSHR MERGED:          0
DTLB TOTAL ACCESSES:   88344770 HITS:   88076425 MISSES:     268345
DTLB LOAD ACCESSES:   59593309 HITS:   59393249 MISSES:     200060
DTLB RFO ACCESSES:   28751461 HITS:   28683176 MISSES:      68285
DTLB PREFETCH ACCESSES:          0 HITS:          0 MISSES:          0
DTLB WRITEBACK ACCESSES:          0 HITS:          0 MISSES:          0
DTLB RQ ACCESS:  154559047
DTLB RQ TO_CACHE:   88344770
DTLB RQ MERGED:   66214277
DTLB RQ FORWARD:          0
DTLB WQ ACCESS:          0
DTLB WQ TO_CACHE:          0
DTLB WQ MERGED:          0
DTLB WQ FORWARD:          0
L1D TOTAL     ACCESS:  127902696  HIT:  124677262  MISS:    3225434
L1D LOAD      ACCESS:   53172445  HIT:   51976737  MISS:    1195708
L1D RFO       ACCESS:   37343043  HIT:   36728757  MISS:     614286
L1D PREFETCH  ACCESS:   37387208  HIT:   35971768  MISS:    1415440
L1D WRITEBACK ACCESS:          0  HIT:          0  MISS:          0
L1D PREFETCH  REQUESTED:   53658070  ISSUED:   52457470  USEFUL:     351764  USELESS:    1063641
L1D TOTAL MSHR MERGED:    2954653
L1D LOAD MSHR MERGED:     524684
L1D RFO MSHR MERGED:    1611147
L1D PREFETCH MSHR MERGED:     818822
L1D WRITEBACK MSHR MERGED:          0
L1D TOTAL ACCESSES:  130892032 HITS:  124711945 MISSES:    6180087
L1D LOAD ACCESSES:   53660746 HITS:   51979413 MISSES:    1681333
L1D RFO ACCESSES:   38952873 HITS:   36728757 MISSES:    2224116
L1D PREFETCH ACCESSES:   38278413 HITS:   36003775 MISSES:    2274638
L1D WRITEBACK ACCESSES:          0 HITS:          0 MISSES:          0
L1D RQ ACCESS:  113714155
L1D RQ TO_CACHE:   53658070
L1D RQ MERGED:   60053409
L1D RQ FORWARD:          0
L1D WQ ACCESS:   40844891
L1D WQ TO_CACHE:   38952873
L1D WQ MERGED:    1892018
L1D WQ FORWARD:      34683
L1I TOTAL     ACCESS:  108369729  HIT:  107810602  MISS:     559127
L1I LOAD      ACCESS:  108369729  HIT:  107810602  MISS:     559127
L1I RFO       ACCESS:          0  HIT:          0  MISS:          0
L1I PREFETCH  ACCESS:          0  HIT:          0  MISS:          0
L1I WRITEBACK ACCESS:          0  HIT:          0  MISS:          0
L1I PREFETCH  REQUESTED:          0  ISSUED:          0  USEFUL:          0  USELESS:          0
L1I TOTAL MSHR MERGED:     526194
L1I LOAD MSHR MERGED:     526194
L1I RFO MSHR MERGED:          0
L1I PREFETCH MSHR MERGED:          0
L1I WRITEBACK MSHR MERGED:          0
L1I TOTAL ACCESSES:  108895923 HITS:  107810602 MISSES:    1085321
L1I LOAD ACCESSES:  108895923 HITS:  107810602 MISSES:    1085321
L1I RFO ACCESSES:          0 HITS:          0 MISSES:          0
L1I PREFETCH ACCESSES:          0 HITS:          0 MISSES:          0
L1I WRITEBACK ACCESSES:          0 HITS:          0 MISSES:          0
L1I RQ ACCESS:  500000002
L1I RQ TO_CACHE:  108895923
L1I RQ MERGED:  391104079
L1I RQ FORWARD:          0
L1I WQ ACCESS:          0
L1I WQ TO_CACHE:          0
L1I WQ MERGED:          0
L1I WQ FORWARD:          0
L2C TOTAL     ACCESS:    4691429  HIT:    3865604  MISS:     825825
L2C LOAD      ACCESS:    1715677  HIT:    1562447  MISS:     153230
L2C RFO       ACCESS:     611556  HIT:     421182  MISS:     190374
L2C PREFETCH  ACCESS:    1661251  HIT:    1181217  MISS:     480034
L2C WRITEBACK ACCESS:     702945  HIT:     700758  MISS:       2187
L2C PREFETCH  REQUESTED:     256435  ISSUED:     256435  USEFUL:     172798  USELESS:     307902
L2C TOTAL MSHR MERGED:      13175
L2C LOAD MSHR MERGED:       4043
L2C RFO MSHR MERGED:          0
L2C PREFETCH MSHR MERGED:       9132
L2C WRITEBACK MSHR MERGED:          0
L2C TOTAL ACCESSES:    4712373 HITS:    3867183 MISSES:     845190
L2C LOAD ACCESSES:    1715776 HITS:    1562546 MISSES:     153230
L2C RFO ACCESSES:     612969 HITS:     422595 MISSES:     190374
L2C PREFETCH ACCESSES:    1680683 HITS:    1181284 MISSES:     499399
L2C WRITEBACK ACCESSES:     702945 HITS:     700758 MISSES:       2187
L2C RQ ACCESS:    2328745
L2C RQ TO_CACHE:    2327233
L2C RQ MERGED:          0
L2C RQ FORWARD:          0
L2C WQ ACCESS:     702945
L2C WQ TO_CACHE:     702945
L2C WQ MERGED:          0
L2C WQ FORWARD:       1579
LLC TOTAL     ACCESS:    1047554  HIT:     231671  MISS:     815883
LLC LOAD      ACCESS:     149183  HIT:      83551  MISS:      65632
LLC RFO       ACCESS:     190365  HIT:       6569  MISS:     183796
LLC PREFETCH  ACCESS:     487129  HIT:     105410  MISS:     381719
LLC WRITEBACK ACCESS:     220877  HIT:      36141  MISS:     184736
LLC PREFETCH  REQUESTED:          0  ISSUED:          0  USEFUL:       1956  USELESS:     380147
LLC TOTAL MSHR MERGED:       2327
LLC LOAD MSHR MERGED:        943
LLC RFO MSHR MERGED:          0
LLC PREFETCH MSHR MERGED:       1384
LLC WRITEBACK MSHR MERGED:          0
LLC TOTAL ACCESSES:    1049894 HITS:     231684 MISSES:     818210
LLC LOAD ACCESSES:     149187 HITS:      83555 MISSES:      65632
LLC RFO ACCESSES:     190374 HITS:       6578 MISSES:     183796
LLC PREFETCH ACCESSES:     489456 HITS:     105410 MISSES:     384046
LLC WRITEBACK ACCESSES:     220877 HITS:      36141 MISSES:     184736
LLC 0 RQ ACCESS:     339561
LLC 0 RQ TO_CACHE:     339548
LLC 0 RQ MERGED:          0
LLC 0 RQ FORWARD:          0
LLC WQ ACCESS:     220877
LLC WQ TO_CACHE:     220877
LLC WQ MERGED:          0
LLC WQ FORWARD:         13
Major fault: 0 Minor fault: 6811
CPU 0 L1D next line prefetcher final stats
CPU 0 L2C PC-based stride prefetcher final stats
All Misses: 956355
All Hits: 298182
SD Algo Stats - Switches: 0 SRR-Repls: 73238 BRR-Repls: 0

DRAM Statistics
 CHANNEL 0
 RQ ROW_BUFFER_HIT:     329408  ROW_BUFFER_MISS:     301627
 DBUS_CONGESTED:     436078
 WQ ROW_BUFFER_HIT:      32438  ROW_BUFFER_MISS:     183040  FULL:          0

 AVG_CONGESTED_CYCLE: 13
LOADS RETIRED: 119922929
INSTR RETIRED: 500000000
