
*** ChampSim Multicore Out-of-Order Simulator ***

Warmup Instructions: 100000000
Simulation Instructions: 500000000
Number of CPUs: 1
LLC sets: 2048
LLC ways: 16
Clean RRIP Policies: 2213130222131302 Dirty RRIP Policies: 1203130212031302 PSEL Width: 10 Track Set: 4294967295 PSEL Mask: 1 Demote Mask: 3340100033401000DS Algo: 0Window size: 0
Off-chip DRAM Size: 4096 MB Channels: 1 Width: 64-bit Data Rate: 1600 MT/s

CPU 0 runs /mnt/beegfs/iconst01/spec2017/Xz.trace.gz
NOT SORTED
TRACE STRING: /mnt/beegfs/iconst01/spec2017/Xz.trace.gz
SORTED
TRACE STRING: /mnt/beegfs/iconst01/spec2017/Xz.trace.gz
INITIAL
TRACE STRING: /mnt/beegfs/iconst01/spec2017/Xz.trace.gz

champsim_seed used: 210

CPU 0 L1D next line prefetcher
CPU 0 L2C IP-based stride prefetcher
Initialize DRRIP state
Assign rand_sets[0]: 454  LLC: 2048
rand_sets[0]: 454
Assign rand_sets[1]: 1662  LLC: 2048
rand_sets[1]: 1662
Assign rand_sets[2]: 1921  LLC: 2048
rand_sets[2]: 1921
Assign rand_sets[3]: 1131  LLC: 2048
rand_sets[3]: 1131
Assign rand_sets[4]: 331  LLC: 2048
rand_sets[4]: 331
Assign rand_sets[5]: 1531  LLC: 2048
rand_sets[5]: 1531
Assign rand_sets[6]: 482  LLC: 2048
rand_sets[6]: 482
Assign rand_sets[7]: 1275  LLC: 2048
rand_sets[7]: 1275
Assign rand_sets[8]: 1876  LLC: 2048
rand_sets[8]: 1876
Assign rand_sets[9]: 2038  LLC: 2048
rand_sets[9]: 2038
Assign rand_sets[10]: 701  LLC: 2048
rand_sets[10]: 701
Assign rand_sets[11]: 479  LLC: 2048
rand_sets[11]: 479
Assign rand_sets[12]: 892  LLC: 2048
rand_sets[12]: 892
Assign rand_sets[13]: 1820  LLC: 2048
rand_sets[13]: 1820
Assign rand_sets[14]: 1505  LLC: 2048
rand_sets[14]: 1505
Assign rand_sets[15]: 1159  LLC: 2048
rand_sets[15]: 1159
Assign rand_sets[16]: 513  LLC: 2048
rand_sets[16]: 513
Assign rand_sets[17]: 703  LLC: 2048
rand_sets[17]: 703
Assign rand_sets[18]: 561  LLC: 2048
rand_sets[18]: 561
Assign rand_sets[19]: 990  LLC: 2048
rand_sets[19]: 990
Assign rand_sets[20]: 342  LLC: 2048
rand_sets[20]: 342
Assign rand_sets[21]: 882  LLC: 2048
rand_sets[21]: 882
Assign rand_sets[22]: 15  LLC: 2048
rand_sets[22]: 15
Assign rand_sets[23]: 71  LLC: 2048
rand_sets[23]: 71
Assign rand_sets[24]: 1127  LLC: 2048
rand_sets[24]: 1127
Assign rand_sets[25]: 1382  LLC: 2048
rand_sets[25]: 1382
Assign rand_sets[26]: 647  LLC: 2048
rand_sets[26]: 647
Assign rand_sets[27]: 857  LLC: 2048
rand_sets[27]: 857
Assign rand_sets[28]: 1450  LLC: 2048
rand_sets[28]: 1450
Assign rand_sets[29]: 1160  LLC: 2048
rand_sets[29]: 1160
Assign rand_sets[30]: 1852  LLC: 2048
rand_sets[30]: 1852
Assign rand_sets[31]: 1881  LLC: 2048
rand_sets[31]: 1881
Assign rand_sets[32]: 1770  LLC: 2048
rand_sets[32]: 1770
Assign rand_sets[33]: 1622  LLC: 2048
rand_sets[33]: 1622
Assign rand_sets[34]: 275  LLC: 2048
rand_sets[34]: 275
Assign rand_sets[35]: 635  LLC: 2048
rand_sets[35]: 635
Assign rand_sets[36]: 466  LLC: 2048
rand_sets[36]: 466
Assign rand_sets[37]: 1413  LLC: 2048
rand_sets[37]: 1413
Assign rand_sets[38]: 417  LLC: 2048
rand_sets[38]: 417
Assign rand_sets[39]: 472  LLC: 2048
rand_sets[39]: 472
Assign rand_sets[40]: 1340  LLC: 2048
rand_sets[40]: 1340
Assign rand_sets[41]: 852  LLC: 2048
rand_sets[41]: 852
Assign rand_sets[42]: 1365  LLC: 2048
rand_sets[42]: 1365
Assign rand_sets[43]: 47  LLC: 2048
rand_sets[43]: 47
Assign rand_sets[44]: 823  LLC: 2048
rand_sets[44]: 823
Assign rand_sets[45]: 686  LLC: 2048
rand_sets[45]: 686
Assign rand_sets[46]: 1637  LLC: 2048
rand_sets[46]: 1637
Assign rand_sets[47]: 1115  LLC: 2048
rand_sets[47]: 1115
Assign rand_sets[48]: 986  LLC: 2048
rand_sets[48]: 986
Assign rand_sets[49]: 258  LLC: 2048
rand_sets[49]: 258
Assign rand_sets[50]: 633  LLC: 2048
rand_sets[50]: 633
Assign rand_sets[51]: 920  LLC: 2048
rand_sets[51]: 920
Assign rand_sets[52]: 204  LLC: 2048
rand_sets[52]: 204
Assign rand_sets[53]: 227  LLC: 2048
rand_sets[53]: 227
Assign rand_sets[54]: 1818  LLC: 2048
rand_sets[54]: 1818
Assign rand_sets[55]: 886  LLC: 2048
rand_sets[55]: 886
Assign rand_sets[56]: 1422  LLC: 2048
rand_sets[56]: 1422
Assign rand_sets[57]: 607  LLC: 2048
rand_sets[57]: 607
Assign rand_sets[58]: 217  LLC: 2048
rand_sets[58]: 217
Assign rand_sets[59]: 1945  LLC: 2048
rand_sets[59]: 1945
Assign rand_sets[60]: 143  LLC: 2048
rand_sets[60]: 143
Assign rand_sets[61]: 1311  LLC: 2048
rand_sets[61]: 1311
Assign rand_sets[62]: 319  LLC: 2048
rand_sets[62]: 319
Assign rand_sets[63]: 1846  LLC: 2048
rand_sets[63]: 1846
 CLEAN-RRIP-POLICY-1: 2-2-1-3-1-3-0-2- CLEAN-RRIP-POLICY-2: 2-2-1-3-1-3-0-2-
 DIRTY-RRIP-POLICY-1: 1-2-0-3-1-3-0-2- DIRTY-RRIP-POLICY-2: 1-2-0-3-1-3-0-2-
 PSEL width: 10
Heartbeat CPU 0 instructions: 10000000 cycles: 4305270 heartbeat IPC: 2.32273 cumulative IPC: 2.32273 (Simulation time: 0 hr 0 min 12 sec) 
Heartbeat CPU 0 instructions: 20000000 cycles: 8617101 heartbeat IPC: 2.3192 cumulative IPC: 2.32097 (Simulation time: 0 hr 0 min 24 sec) 
Heartbeat CPU 0 instructions: 30000003 cycles: 13160978 heartbeat IPC: 2.20076 cumulative IPC: 2.27947 (Simulation time: 0 hr 0 min 37 sec) 
Heartbeat CPU 0 instructions: 40000000 cycles: 17515460 heartbeat IPC: 2.29648 cumulative IPC: 2.2837 (Simulation time: 0 hr 0 min 49 sec) 
Heartbeat CPU 0 instructions: 50000001 cycles: 21878254 heartbeat IPC: 2.29211 cumulative IPC: 2.28537 (Simulation time: 0 hr 1 min 1 sec) 
Heartbeat CPU 0 instructions: 60000000 cycles: 26178445 heartbeat IPC: 2.32548 cumulative IPC: 2.29196 (Simulation time: 0 hr 1 min 13 sec) 
Heartbeat CPU 0 instructions: 70000001 cycles: 30244336 heartbeat IPC: 2.45949 cumulative IPC: 2.31448 (Simulation time: 0 hr 1 min 24 sec) 
Heartbeat CPU 0 instructions: 80000000 cycles: 34523131 heartbeat IPC: 2.33711 cumulative IPC: 2.31729 (Simulation time: 0 hr 1 min 36 sec) 
Heartbeat CPU 0 instructions: 90000001 cycles: 38739762 heartbeat IPC: 2.37156 cumulative IPC: 2.32319 (Simulation time: 0 hr 1 min 48 sec) 
Heartbeat CPU 0 instructions: 100000000 cycles: 42980140 heartbeat IPC: 2.35828 cumulative IPC: 2.32666 (Simulation time: 0 hr 1 min 59 sec) 

Warmup complete CPU 0 instructions: 100000001 cycles: 42980141 (Simulation time: 0 hr 1 min 59 sec) 

Heartbeat CPU 0 instructions: 110000000 cycles: 53107945 heartbeat IPC: 0.987381 cumulative IPC: 0.987381 (Simulation time: 0 hr 2 min 17 sec) 
Heartbeat CPU 0 instructions: 120000000 cycles: 63734648 heartbeat IPC: 0.941026 cumulative IPC: 0.963646 (Simulation time: 0 hr 2 min 35 sec) 
Heartbeat CPU 0 instructions: 130000001 cycles: 74326137 heartbeat IPC: 0.944154 cumulative IPC: 0.95706 (Simulation time: 0 hr 2 min 53 sec) 
Heartbeat CPU 0 instructions: 140000000 cycles: 84015304 heartbeat IPC: 1.03208 cumulative IPC: 0.974774 (Simulation time: 0 hr 3 min 10 sec) 
Heartbeat CPU 0 instructions: 150000001 cycles: 94330948 heartbeat IPC: 0.969402 cumulative IPC: 0.973695 (Simulation time: 0 hr 3 min 28 sec) 
Heartbeat CPU 0 instructions: 160000000 cycles: 104378573 heartbeat IPC: 0.99526 cumulative IPC: 0.977224 (Simulation time: 0 hr 3 min 46 sec) 
Heartbeat CPU 0 instructions: 170000000 cycles: 114038389 heartbeat IPC: 1.03522 cumulative IPC: 0.985107 (Simulation time: 0 hr 4 min 3 sec) 
Heartbeat CPU 0 instructions: 180000000 cycles: 124573475 heartbeat IPC: 0.949209 cumulative IPC: 0.980472 (Simulation time: 0 hr 4 min 21 sec) 
Heartbeat CPU 0 instructions: 190000001 cycles: 134820713 heartbeat IPC: 0.975873 cumulative IPC: 0.979959 (Simulation time: 0 hr 4 min 39 sec) 
Heartbeat CPU 0 instructions: 200000000 cycles: 145370920 heartbeat IPC: 0.947849 cumulative IPC: 0.97665 (Simulation time: 0 hr 4 min 57 sec) 
Heartbeat CPU 0 instructions: 210000002 cycles: 157811184 heartbeat IPC: 0.803842 cumulative IPC: 0.957929 (Simulation time: 0 hr 5 min 16 sec) 
Heartbeat CPU 0 instructions: 220000000 cycles: 170323002 heartbeat IPC: 0.799244 cumulative IPC: 0.942338 (Simulation time: 0 hr 5 min 35 sec) 
Heartbeat CPU 0 instructions: 230000000 cycles: 182472304 heartbeat IPC: 0.823093 cumulative IPC: 0.931952 (Simulation time: 0 hr 5 min 55 sec) 
Heartbeat CPU 0 instructions: 240000000 cycles: 194572485 heartbeat IPC: 0.826434 cumulative IPC: 0.92353 (Simulation time: 0 hr 6 min 14 sec) 
Heartbeat CPU 0 instructions: 250000000 cycles: 206510623 heartbeat IPC: 0.837652 cumulative IPC: 0.91726 (Simulation time: 0 hr 6 min 33 sec) 
Heartbeat CPU 0 instructions: 260000000 cycles: 218042432 heartbeat IPC: 0.867167 cumulative IPC: 0.91396 (Simulation time: 0 hr 6 min 51 sec) 
Heartbeat CPU 0 instructions: 270000003 cycles: 229887702 heartbeat IPC: 0.844219 cumulative IPC: 0.909541 (Simulation time: 0 hr 7 min 10 sec) 
Heartbeat CPU 0 instructions: 280000000 cycles: 241410160 heartbeat IPC: 0.86787 cumulative IPC: 0.907121 (Simulation time: 0 hr 7 min 29 sec) 
Heartbeat CPU 0 instructions: 290000002 cycles: 252892335 heartbeat IPC: 0.870915 cumulative IPC: 0.90514 (Simulation time: 0 hr 7 min 48 sec) 
Heartbeat CPU 0 instructions: 300000000 cycles: 265311008 heartbeat IPC: 0.805239 cumulative IPC: 0.89956 (Simulation time: 0 hr 8 min 7 sec) 
Heartbeat CPU 0 instructions: 310000000 cycles: 277424922 heartbeat IPC: 0.825497 cumulative IPC: 0.895733 (Simulation time: 0 hr 8 min 26 sec) 
Heartbeat CPU 0 instructions: 320000000 cycles: 290047906 heartbeat IPC: 0.792206 cumulative IPC: 0.890444 (Simulation time: 0 hr 8 min 45 sec) 
Heartbeat CPU 0 instructions: 330000003 cycles: 301945777 heartbeat IPC: 0.840487 cumulative IPC: 0.888149 (Simulation time: 0 hr 9 min 4 sec) 
Heartbeat CPU 0 instructions: 340000000 cycles: 314008443 heartbeat IPC: 0.829004 cumulative IPC: 0.885516 (Simulation time: 0 hr 9 min 23 sec) 
Heartbeat CPU 0 instructions: 350000001 cycles: 324992036 heartbeat IPC: 0.910449 cumulative IPC: 0.886487 (Simulation time: 0 hr 9 min 41 sec) 
Heartbeat CPU 0 instructions: 360000000 cycles: 336745708 heartbeat IPC: 0.850798 cumulative IPC: 0.885059 (Simulation time: 0 hr 10 min 0 sec) 
Heartbeat CPU 0 instructions: 370000001 cycles: 348161840 heartbeat IPC: 0.875953 cumulative IPC: 0.884719 (Simulation time: 0 hr 10 min 19 sec) 
Heartbeat CPU 0 instructions: 380000000 cycles: 359152178 heartbeat IPC: 0.90989 cumulative IPC: 0.885594 (Simulation time: 0 hr 10 min 37 sec) 
Heartbeat CPU 0 instructions: 390000003 cycles: 369771224 heartbeat IPC: 0.941704 cumulative IPC: 0.887417 (Simulation time: 0 hr 10 min 56 sec) 
Heartbeat CPU 0 instructions: 400000000 cycles: 379989694 heartbeat IPC: 0.97862 cumulative IPC: 0.890182 (Simulation time: 0 hr 11 min 14 sec) 
Heartbeat CPU 0 instructions: 410000000 cycles: 390497664 heartbeat IPC: 0.951659 cumulative IPC: 0.892041 (Simulation time: 0 hr 11 min 32 sec) 
Heartbeat CPU 0 instructions: 420000000 cycles: 399878585 heartbeat IPC: 1.06599 cumulative IPC: 0.896614 (Simulation time: 0 hr 11 min 50 sec) 
Heartbeat CPU 0 instructions: 430000002 cycles: 408965620 heartbeat IPC: 1.10047 cumulative IPC: 0.901675 (Simulation time: 0 hr 12 min 7 sec) 
Heartbeat CPU 0 instructions: 440000000 cycles: 419220633 heartbeat IPC: 0.975133 cumulative IPC: 0.903677 (Simulation time: 0 hr 12 min 25 sec) 
Heartbeat CPU 0 instructions: 450000002 cycles: 430287325 heartbeat IPC: 0.903613 cumulative IPC: 0.903675 (Simulation time: 0 hr 12 min 43 sec) 
Heartbeat CPU 0 instructions: 460000000 cycles: 441821585 heartbeat IPC: 0.866982 cumulative IPC: 0.902614 (Simulation time: 0 hr 13 min 2 sec) 
Heartbeat CPU 0 instructions: 470000003 cycles: 452012707 heartbeat IPC: 0.981247 cumulative IPC: 0.904573 (Simulation time: 0 hr 13 min 19 sec) 
Heartbeat CPU 0 instructions: 480000000 cycles: 462549105 heartbeat IPC: 0.949091 cumulative IPC: 0.905691 (Simulation time: 0 hr 13 min 37 sec) 
Heartbeat CPU 0 instructions: 490000000 cycles: 472498106 heartbeat IPC: 1.00513 cumulative IPC: 0.907995 (Simulation time: 0 hr 13 min 55 sec) 
Heartbeat CPU 0 instructions: 500000000 cycles: 484259978 heartbeat IPC: 0.850205 cumulative IPC: 0.906454 (Simulation time: 0 hr 14 min 13 sec) 
Heartbeat CPU 0 instructions: 510000002 cycles: 496667244 heartbeat IPC: 0.805979 cumulative IPC: 0.903707 (Simulation time: 0 hr 14 min 32 sec) 
Heartbeat CPU 0 instructions: 520000000 cycles: 508530961 heartbeat IPC: 0.842906 cumulative IPC: 0.902157 (Simulation time: 0 hr 14 min 51 sec) 
Heartbeat CPU 0 instructions: 530000001 cycles: 520366390 heartbeat IPC: 0.844921 cumulative IPC: 0.900738 (Simulation time: 0 hr 15 min 9 sec) 
Heartbeat CPU 0 instructions: 540000000 cycles: 531955927 heartbeat IPC: 0.862847 cumulative IPC: 0.89984 (Simulation time: 0 hr 15 min 28 sec) 
Heartbeat CPU 0 instructions: 550000001 cycles: 543324646 heartbeat IPC: 0.879607 cumulative IPC: 0.89938 (Simulation time: 0 hr 15 min 46 sec) 
Heartbeat CPU 0 instructions: 560000000 cycles: 554857744 heartbeat IPC: 0.86707 cumulative IPC: 0.898652 (Simulation time: 0 hr 16 min 4 sec) 
Heartbeat CPU 0 instructions: 570000000 cycles: 566240612 heartbeat IPC: 0.878513 cumulative IPC: 0.898214 (Simulation time: 0 hr 16 min 22 sec) 
Heartbeat CPU 0 instructions: 580000000 cycles: 576988172 heartbeat IPC: 0.930444 cumulative IPC: 0.898863 (Simulation time: 0 hr 16 min 40 sec) 
Heartbeat CPU 0 instructions: 590000003 cycles: 588358387 heartbeat IPC: 0.879491 cumulative IPC: 0.898459 (Simulation time: 0 hr 16 min 58 sec) 
Heartbeat CPU 0 instructions: 600000000 cycles: 598931508 heartbeat IPC: 0.945794 cumulative IPC: 0.899359 (Simulation time: 0 hr 17 min 15 sec) 
Finished CPU 0 instructions: 500000001 cycles: 555951375 cumulative IPC: 0.899359 (Simulation time: 0 hr 17 min 15 sec) 

CPU 0 Branch Prediction Accuracy: 93.0095% MPKI: 10.0046
Number of Branches: 71558147 Number of Mispredictions: 5002285
Number of LOAD Instructions: 145708893
Number of LOAD Instructions (ROI): 145708893
Number of STORE Instructions: 40463820
Number of STORE Instructions (ROI): 40463820
Total Destination Memory Operands: 45240498
Total Destination Memory Operands (ROI): 45240498
Total Source Memory Operands: 145708893
Total Source Memory Operands (ROI): 145708893
Number of DEPENDED LOADS: 10665293
Number of DEPENDED LOADS (ROI): 10665293
Number of SQ_ADDED: 45240498
Number of SQ_ADDED (ROI): 45240498
Number of LQ_ADDED: 193326484
Number of LQ_ADDED (ROI): 193326484
Number of Instructions read from trace: 600000002

ChampSim completed all CPUs

Region of Interest Statistics

CPU 0 cumulative IPC: 0.899359 instructions: 500000001 cycles: 555951375
ITLB TOTAL     ACCESS:   77993017  HIT:   77993016  MISS:          1
ITLB LOAD      ACCESS:   77993017  HIT:   77993016  MISS:          1
ITLB RFO       ACCESS:          0  HIT:          0  MISS:          0
ITLB PREFETCH  ACCESS:          0  HIT:          0  MISS:          0
ITLB WRITEBACK ACCESS:          0  HIT:          0  MISS:          0
ITLB PREFETCH  REQUESTED:          0  ISSUED:          0  USEFUL:          0  USELESS:          0
ITLB TOTAL MSHR MERGED:          0
ITLB LOAD MSHR MERGED:          0
ITLB RFO MSHR MERGED:          0
ITLB PREFETCH MSHR MERGED:          0
ITLB WRITEBACK MSHR MERGED:          0
ITLB TOTAL ACCESSES:   77993017 HITS:   77993016 MISSES:          1
ITLB LOAD ACCESSES:   77993017 HITS:   77993016 MISSES:          1
ITLB RFO ACCESSES:          0 HITS:          0 MISSES:          0
ITLB PREFETCH ACCESSES:          0 HITS:          0 MISSES:          0
ITLB WRITEBACK ACCESSES:          0 HITS:          0 MISSES:          0
ITLB RQ ACCESS:  499999995
ITLB RQ TO_CACHE:   77993017
ITLB RQ MERGED:  422006978
ITLB RQ FORWARD:          0
ITLB WQ ACCESS:          0
ITLB WQ TO_CACHE:          0
ITLB WQ MERGED:          0
ITLB WQ FORWARD:          0
DTLB TOTAL     ACCESS:   98670533  HIT:   97789197  MISS:     881336
DTLB LOAD      ACCESS:   70891037  HIT:   70029504  MISS:     861533
DTLB RFO       ACCESS:   27779496  HIT:   27759693  MISS:      19803
DTLB PREFETCH  ACCESS:          0  HIT:          0  MISS:          0
DTLB WRITEBACK ACCESS:          0  HIT:          0  MISS:          0
DTLB PREFETCH  REQUESTED:          0  ISSUED:          0  USEFUL:          0  USELESS:          0
DTLB TOTAL MSHR MERGED:      87333
DTLB LOAD MSHR MERGED:      65594
DTLB RFO MSHR MERGED:      21739
DTLB PREFETCH MSHR MERGED:          0
DTLB WRITEBACK MSHR MERGED:          0
DTLB TOTAL ACCESSES:   98757866 HITS:   97789197 MISSES:     968669
DTLB LOAD ACCESSES:   70956631 HITS:   70029504 MISSES:     927127
DTLB RFO ACCESSES:   27801235 HITS:   27759693 MISSES:      41542
DTLB PREFETCH ACCESSES:          0 HITS:          0 MISSES:          0
DTLB WRITEBACK ACCESSES:          0 HITS:          0 MISSES:          0
DTLB RQ ACCESS:  150279756
DTLB RQ TO_CACHE:   98757866
DTLB RQ MERGED:   51521890
DTLB RQ FORWARD:          0
DTLB WQ ACCESS:          0
DTLB WQ TO_CACHE:          0
DTLB WQ MERGED:          0
DTLB WQ FORWARD:          0
L1D TOTAL     ACCESS:  173339693  HIT:  169171056  MISS:    4168637
L1D LOAD      ACCESS:   75287945  HIT:   73406571  MISS:    1881374
L1D RFO       ACCESS:   36778639  HIT:   36572040  MISS:     206599
L1D PREFETCH  ACCESS:   61273109  HIT:   59192445  MISS:    2080664
L1D WRITEBACK ACCESS:          0  HIT:          0  MISS:          0
L1D PREFETCH  REQUESTED:   75391700  ISSUED:   74827512  USEFUL:     415100  USELESS:    1665553
L1D TOTAL MSHR MERGED:     377280
L1D LOAD MSHR MERGED:     112562
L1D RFO MSHR MERGED:     132852
L1D PREFETCH MSHR MERGED:     131866
L1D WRITEBACK MSHR MERGED:          0
L1D TOTAL ACCESSES:  173868338 HITS:  169322421 MISSES:    4545917
L1D LOAD ACCESSES:   75394452 HITS:   73409323 MISSES:    1985129
L1D RFO ACCESSES:   36910103 HITS:   36572040 MISSES:     338063
L1D PREFETCH ACCESSES:   61563783 HITS:   59341058 MISSES:    2222725
L1D WRITEBACK ACCESSES:          0 HITS:          0 MISSES:          0
L1D RQ ACCESS:  112617353
L1D RQ TO_CACHE:   75391700
L1D RQ MERGED:   37222901
L1D RQ FORWARD:          0
L1D WQ ACCESS:   37662403
L1D WQ TO_CACHE:   36910103
L1D WQ MERGED:     752300
L1D WQ FORWARD:     151365
L1I TOTAL     ACCESS:  100700911  HIT:  100700886  MISS:         25
L1I LOAD      ACCESS:  100700911  HIT:  100700886  MISS:         25
L1I RFO       ACCESS:          0  HIT:          0  MISS:          0
L1I PREFETCH  ACCESS:          0  HIT:          0  MISS:          0
L1I WRITEBACK ACCESS:          0  HIT:          0  MISS:          0
L1I PREFETCH  REQUESTED:          0  ISSUED:          0  USEFUL:          0  USELESS:          0
L1I TOTAL MSHR MERGED:         10
L1I LOAD MSHR MERGED:         10
L1I RFO MSHR MERGED:          0
L1I PREFETCH MSHR MERGED:          0
L1I WRITEBACK MSHR MERGED:          0
L1I TOTAL ACCESSES:  100700921 HITS:  100700886 MISSES:         35
L1I LOAD ACCESSES:  100700921 HITS:  100700886 MISSES:         35
L1I RFO ACCESSES:          0 HITS:          0 MISSES:          0
L1I PREFETCH ACCESSES:          0 HITS:          0 MISSES:          0
L1I WRITEBACK ACCESSES:          0 HITS:          0 MISSES:          0
L1I RQ ACCESS:  499999995
L1I RQ TO_CACHE:  100700921
L1I RQ MERGED:  399299074
L1I RQ FORWARD:          0
L1I WQ ACCESS:          0
L1I WQ TO_CACHE:          0
L1I WQ MERGED:          0
L1I WQ FORWARD:          0
L2C TOTAL     ACCESS:    5852593  HIT:    4009418  MISS:    1843175
L2C LOAD      ACCESS:    1872467  HIT:    1061509  MISS:     810958
L2C RFO       ACCESS:     205206  HIT:     100568  MISS:     104638
L2C PREFETCH  ACCESS:    2169281  HIT:    1246122  MISS:     923159
L2C WRITEBACK ACCESS:    1605639  HIT:    1601219  MISS:       4420
L2C PREFETCH  REQUESTED:      91712  ISSUED:      91712  USEFUL:      86447  USELESS:     836735
L2C TOTAL MSHR MERGED:       1026
L2C LOAD MSHR MERGED:        257
L2C RFO MSHR MERGED:          0
L2C PREFETCH MSHR MERGED:        769
L2C WRITEBACK MSHR MERGED:          0
L2C TOTAL ACCESSES:    5853949 HITS:    4009585 MISSES:    1844364
L2C LOAD ACCESSES:    1872592 HITS:    1061634 MISSES:     810958
L2C RFO ACCESSES:     205211 HITS:     100573 MISSES:     104638
L2C PREFETCH ACCESSES:    2170507 HITS:    1246159 MISSES:     924348
L2C WRITEBACK ACCESSES:    1605639 HITS:    1601219 MISSES:       4420
L2C RQ ACCESS:    2077803
L2C RQ TO_CACHE:    2077673
L2C RQ MERGED:          0
L2C RQ FORWARD:          0
L2C WQ ACCESS:    1605639
L2C WQ TO_CACHE:    1605639
L2C WQ MERGED:          0
L2C WQ FORWARD:        167
LLC TOTAL     ACCESS:    2673558  HIT:    2168907  MISS:     504651
LLC LOAD      ACCESS:     810691  HIT:     639684  MISS:     171007
LLC RFO       ACCESS:     104638  HIT:      60657  MISS:      43981
LLC PREFETCH  ACCESS:     923560  HIT:     668392  MISS:     255168
LLC WRITEBACK ACCESS:     834669  HIT:     800174  MISS:      34495
LLC PREFETCH  REQUESTED:          0  ISSUED:          0  USEFUL:       7626  USELESS:     247822
LLC TOTAL MSHR MERGED:          7
LLC LOAD MSHR MERGED:          3
LLC RFO MSHR MERGED:          0
LLC PREFETCH MSHR MERGED:          4
LLC WRITEBACK MSHR MERGED:          0
LLC TOTAL ACCESSES:    2673578 HITS:    2168920 MISSES:     504658
LLC LOAD ACCESSES:     810701 HITS:     639694 MISSES:     171007
LLC RFO ACCESSES:     104638 HITS:      60657 MISSES:      43981
LLC PREFETCH ACCESSES:     923570 HITS:     668395 MISSES:     255175
LLC WRITEBACK ACCESSES:     834669 HITS:     800174 MISSES:      34495
LLC 0 RQ ACCESS:     915339
LLC 0 RQ TO_CACHE:     915329
LLC 0 RQ MERGED:          0
LLC 0 RQ FORWARD:          0
LLC WQ ACCESS:     834669
LLC WQ TO_CACHE:     834669
LLC WQ MERGED:          0
LLC WQ FORWARD:         13
Major fault: 0 Minor fault: 11278
CPU 0 L1D next line prefetcher final stats
CPU 0 L2C PC-based stride prefetcher final stats
All Misses: 618128
All Hits: 2436449
SD Algo Stats - Switches: 0 SRR-Repls: 204068 BRR-Repls: 0

DRAM Statistics
 CHANNEL 0
 RQ ROW_BUFFER_HIT:      30005  ROW_BUFFER_MISS:     439756
 DBUS_CONGESTED:     342486
 WQ ROW_BUFFER_HIT:      13307  ROW_BUFFER_MISS:     193099  FULL:          0

 AVG_CONGESTED_CYCLE: 13
LOADS RETIRED: 121769268
INSTR RETIRED: 500000000
