
*** ChampSim Multicore Out-of-Order Simulator ***

Warmup Instructions: 100000000
Simulation Instructions: 500000000
Number of CPUs: 1
LLC sets: 2048
LLC ways: 16
Clean RRIP Policies: 2213230222132302 Dirty RRIP Policies: 2203130222031302 PSEL Width: 10 Track Set: 4294967295 PSEL Mask: 1 Demote Mask: 1010100310101003DS Algo: 0Window size: 0
Off-chip DRAM Size: 4096 MB Channels: 1 Width: 64-bit Data Rate: 1600 MT/s

CPU 0 runs /mnt/beegfs/iconst01/spec2017/Omnetpp.trace.gz
NOT SORTED
TRACE STRING: /mnt/beegfs/iconst01/spec2017/Omnetpp.trace.gz
SORTED
TRACE STRING: /mnt/beegfs/iconst01/spec2017/Omnetpp.trace.gz
INITIAL
TRACE STRING: /mnt/beegfs/iconst01/spec2017/Omnetpp.trace.gz

champsim_seed used: 739

CPU 0 L1D next line prefetcher
CPU 0 L2C IP-based stride prefetcher
Initialize DRRIP state
Assign rand_sets[0]: 454  LLC: 2048
rand_sets[0]: 454
Assign rand_sets[1]: 1662  LLC: 2048
rand_sets[1]: 1662
Assign rand_sets[2]: 1921  LLC: 2048
rand_sets[2]: 1921
Assign rand_sets[3]: 1131  LLC: 2048
rand_sets[3]: 1131
Assign rand_sets[4]: 331  LLC: 2048
rand_sets[4]: 331
Assign rand_sets[5]: 1531  LLC: 2048
rand_sets[5]: 1531
Assign rand_sets[6]: 482  LLC: 2048
rand_sets[6]: 482
Assign rand_sets[7]: 1275  LLC: 2048
rand_sets[7]: 1275
Assign rand_sets[8]: 1876  LLC: 2048
rand_sets[8]: 1876
Assign rand_sets[9]: 2038  LLC: 2048
rand_sets[9]: 2038
Assign rand_sets[10]: 701  LLC: 2048
rand_sets[10]: 701
Assign rand_sets[11]: 479  LLC: 2048
rand_sets[11]: 479
Assign rand_sets[12]: 892  LLC: 2048
rand_sets[12]: 892
Assign rand_sets[13]: 1820  LLC: 2048
rand_sets[13]: 1820
Assign rand_sets[14]: 1505  LLC: 2048
rand_sets[14]: 1505
Assign rand_sets[15]: 1159  LLC: 2048
rand_sets[15]: 1159
Assign rand_sets[16]: 513  LLC: 2048
rand_sets[16]: 513
Assign rand_sets[17]: 703  LLC: 2048
rand_sets[17]: 703
Assign rand_sets[18]: 561  LLC: 2048
rand_sets[18]: 561
Assign rand_sets[19]: 990  LLC: 2048
rand_sets[19]: 990
Assign rand_sets[20]: 342  LLC: 2048
rand_sets[20]: 342
Assign rand_sets[21]: 882  LLC: 2048
rand_sets[21]: 882
Assign rand_sets[22]: 15  LLC: 2048
rand_sets[22]: 15
Assign rand_sets[23]: 71  LLC: 2048
rand_sets[23]: 71
Assign rand_sets[24]: 1127  LLC: 2048
rand_sets[24]: 1127
Assign rand_sets[25]: 1382  LLC: 2048
rand_sets[25]: 1382
Assign rand_sets[26]: 647  LLC: 2048
rand_sets[26]: 647
Assign rand_sets[27]: 857  LLC: 2048
rand_sets[27]: 857
Assign rand_sets[28]: 1450  LLC: 2048
rand_sets[28]: 1450
Assign rand_sets[29]: 1160  LLC: 2048
rand_sets[29]: 1160
Assign rand_sets[30]: 1852  LLC: 2048
rand_sets[30]: 1852
Assign rand_sets[31]: 1881  LLC: 2048
rand_sets[31]: 1881
Assign rand_sets[32]: 1770  LLC: 2048
rand_sets[32]: 1770
Assign rand_sets[33]: 1622  LLC: 2048
rand_sets[33]: 1622
Assign rand_sets[34]: 275  LLC: 2048
rand_sets[34]: 275
Assign rand_sets[35]: 635  LLC: 2048
rand_sets[35]: 635
Assign rand_sets[36]: 466  LLC: 2048
rand_sets[36]: 466
Assign rand_sets[37]: 1413  LLC: 2048
rand_sets[37]: 1413
Assign rand_sets[38]: 417  LLC: 2048
rand_sets[38]: 417
Assign rand_sets[39]: 472  LLC: 2048
rand_sets[39]: 472
Assign rand_sets[40]: 1340  LLC: 2048
rand_sets[40]: 1340
Assign rand_sets[41]: 852  LLC: 2048
rand_sets[41]: 852
Assign rand_sets[42]: 1365  LLC: 2048
rand_sets[42]: 1365
Assign rand_sets[43]: 47  LLC: 2048
rand_sets[43]: 47
Assign rand_sets[44]: 823  LLC: 2048
rand_sets[44]: 823
Assign rand_sets[45]: 686  LLC: 2048
rand_sets[45]: 686
Assign rand_sets[46]: 1637  LLC: 2048
rand_sets[46]: 1637
Assign rand_sets[47]: 1115  LLC: 2048
rand_sets[47]: 1115
Assign rand_sets[48]: 986  LLC: 2048
rand_sets[48]: 986
Assign rand_sets[49]: 258  LLC: 2048
rand_sets[49]: 258
Assign rand_sets[50]: 633  LLC: 2048
rand_sets[50]: 633
Assign rand_sets[51]: 920  LLC: 2048
rand_sets[51]: 920
Assign rand_sets[52]: 204  LLC: 2048
rand_sets[52]: 204
Assign rand_sets[53]: 227  LLC: 2048
rand_sets[53]: 227
Assign rand_sets[54]: 1818  LLC: 2048
rand_sets[54]: 1818
Assign rand_sets[55]: 886  LLC: 2048
rand_sets[55]: 886
Assign rand_sets[56]: 1422  LLC: 2048
rand_sets[56]: 1422
Assign rand_sets[57]: 607  LLC: 2048
rand_sets[57]: 607
Assign rand_sets[58]: 217  LLC: 2048
rand_sets[58]: 217
Assign rand_sets[59]: 1945  LLC: 2048
rand_sets[59]: 1945
Assign rand_sets[60]: 143  LLC: 2048
rand_sets[60]: 143
Assign rand_sets[61]: 1311  LLC: 2048
rand_sets[61]: 1311
Assign rand_sets[62]: 319  LLC: 2048
rand_sets[62]: 319
Assign rand_sets[63]: 1846  LLC: 2048
rand_sets[63]: 1846
 CLEAN-RRIP-POLICY-1: 2-2-1-3-2-3-0-2- CLEAN-RRIP-POLICY-2: 2-2-1-3-2-3-0-2-
 DIRTY-RRIP-POLICY-1: 2-2-0-3-1-3-0-2- DIRTY-RRIP-POLICY-2: 2-2-0-3-1-3-0-2-
 PSEL width: 10
Heartbeat CPU 0 instructions: 10000000 cycles: 7319931 heartbeat IPC: 1.36613 cumulative IPC: 1.36613 (Simulation time: 0 hr 0 min 20 sec) 
Heartbeat CPU 0 instructions: 20000000 cycles: 14623854 heartbeat IPC: 1.36913 cumulative IPC: 1.36763 (Simulation time: 0 hr 0 min 40 sec) 
Heartbeat CPU 0 instructions: 30000003 cycles: 21925402 heartbeat IPC: 1.36957 cumulative IPC: 1.36828 (Simulation time: 0 hr 1 min 0 sec) 
Heartbeat CPU 0 instructions: 40000000 cycles: 29213819 heartbeat IPC: 1.37204 cumulative IPC: 1.36922 (Simulation time: 0 hr 1 min 20 sec) 
Heartbeat CPU 0 instructions: 50000000 cycles: 36490480 heartbeat IPC: 1.37426 cumulative IPC: 1.37022 (Simulation time: 0 hr 1 min 40 sec) 
Heartbeat CPU 0 instructions: 60000000 cycles: 43770632 heartbeat IPC: 1.3736 cumulative IPC: 1.37078 (Simulation time: 0 hr 2 min 0 sec) 
Heartbeat CPU 0 instructions: 70000001 cycles: 51056061 heartbeat IPC: 1.3726 cumulative IPC: 1.37104 (Simulation time: 0 hr 2 min 21 sec) 
Heartbeat CPU 0 instructions: 80000000 cycles: 58331290 heartbeat IPC: 1.37453 cumulative IPC: 1.37148 (Simulation time: 0 hr 2 min 41 sec) 
Heartbeat CPU 0 instructions: 90000000 cycles: 65637897 heartbeat IPC: 1.36862 cumulative IPC: 1.37116 (Simulation time: 0 hr 3 min 1 sec) 
Heartbeat CPU 0 instructions: 100000000 cycles: 72930090 heartbeat IPC: 1.37133 cumulative IPC: 1.37118 (Simulation time: 0 hr 3 min 21 sec) 

Warmup complete CPU 0 instructions: 100000002 cycles: 72930091 (Simulation time: 0 hr 3 min 21 sec) 

Heartbeat CPU 0 instructions: 110000002 cycles: 113406843 heartbeat IPC: 0.247055 cumulative IPC: 0.247055 (Simulation time: 0 hr 4 min 2 sec) 
Heartbeat CPU 0 instructions: 120000000 cycles: 153635063 heartbeat IPC: 0.248582 cumulative IPC: 0.247816 (Simulation time: 0 hr 4 min 43 sec) 
Heartbeat CPU 0 instructions: 130000002 cycles: 194086093 heartbeat IPC: 0.247213 cumulative IPC: 0.247615 (Simulation time: 0 hr 5 min 24 sec) 
Heartbeat CPU 0 instructions: 140000000 cycles: 234651210 heartbeat IPC: 0.246517 cumulative IPC: 0.247339 (Simulation time: 0 hr 6 min 5 sec) 
Heartbeat CPU 0 instructions: 150000002 cycles: 274773835 heartbeat IPC: 0.249236 cumulative IPC: 0.247716 (Simulation time: 0 hr 6 min 46 sec) 
Heartbeat CPU 0 instructions: 160000000 cycles: 314944026 heartbeat IPC: 0.248941 cumulative IPC: 0.24792 (Simulation time: 0 hr 7 min 27 sec) 
Heartbeat CPU 0 instructions: 170000001 cycles: 354344038 heartbeat IPC: 0.253807 cumulative IPC: 0.248744 (Simulation time: 0 hr 8 min 7 sec) 
Heartbeat CPU 0 instructions: 180000000 cycles: 394464081 heartbeat IPC: 0.249252 cumulative IPC: 0.248807 (Simulation time: 0 hr 8 min 48 sec) 
Heartbeat CPU 0 instructions: 190000002 cycles: 434584400 heartbeat IPC: 0.24925 cumulative IPC: 0.248856 (Simulation time: 0 hr 9 min 28 sec) 
Heartbeat CPU 0 instructions: 200000000 cycles: 475900692 heartbeat IPC: 0.242035 cumulative IPC: 0.248157 (Simulation time: 0 hr 10 min 10 sec) 
Heartbeat CPU 0 instructions: 210000003 cycles: 516074787 heartbeat IPC: 0.248917 cumulative IPC: 0.248226 (Simulation time: 0 hr 10 min 50 sec) 
Heartbeat CPU 0 instructions: 220000000 cycles: 556430277 heartbeat IPC: 0.247798 cumulative IPC: 0.24819 (Simulation time: 0 hr 11 min 31 sec) 
Heartbeat CPU 0 instructions: 230000000 cycles: 596783233 heartbeat IPC: 0.247813 cumulative IPC: 0.248161 (Simulation time: 0 hr 12 min 12 sec) 
Heartbeat CPU 0 instructions: 240000000 cycles: 636891120 heartbeat IPC: 0.249328 cumulative IPC: 0.248244 (Simulation time: 0 hr 12 min 52 sec) 
Heartbeat CPU 0 instructions: 250000000 cycles: 677038222 heartbeat IPC: 0.249084 cumulative IPC: 0.2483 (Simulation time: 0 hr 13 min 32 sec) 
Heartbeat CPU 0 instructions: 260000000 cycles: 717313863 heartbeat IPC: 0.248289 cumulative IPC: 0.248299 (Simulation time: 0 hr 14 min 12 sec) 
Heartbeat CPU 0 instructions: 270000000 cycles: 757607925 heartbeat IPC: 0.248176 cumulative IPC: 0.248292 (Simulation time: 0 hr 14 min 53 sec) 
Heartbeat CPU 0 instructions: 280000000 cycles: 798239706 heartbeat IPC: 0.246113 cumulative IPC: 0.24817 (Simulation time: 0 hr 15 min 33 sec) 
Heartbeat CPU 0 instructions: 290000001 cycles: 838101930 heartbeat IPC: 0.250864 cumulative IPC: 0.24831 (Simulation time: 0 hr 16 min 13 sec) 
Heartbeat CPU 0 instructions: 300000000 cycles: 878632328 heartbeat IPC: 0.246728 cumulative IPC: 0.248231 (Simulation time: 0 hr 16 min 52 sec) 
Heartbeat CPU 0 instructions: 310000000 cycles: 919142557 heartbeat IPC: 0.246851 cumulative IPC: 0.248165 (Simulation time: 0 hr 17 min 32 sec) 
Heartbeat CPU 0 instructions: 320000000 cycles: 959345248 heartbeat IPC: 0.24874 cumulative IPC: 0.248191 (Simulation time: 0 hr 18 min 11 sec) 
Heartbeat CPU 0 instructions: 330000000 cycles: 999547661 heartbeat IPC: 0.248741 cumulative IPC: 0.248215 (Simulation time: 0 hr 18 min 51 sec) 
Heartbeat CPU 0 instructions: 340000000 cycles: 1040352696 heartbeat IPC: 0.245068 cumulative IPC: 0.248082 (Simulation time: 0 hr 19 min 30 sec) 
Heartbeat CPU 0 instructions: 350000001 cycles: 1080645215 heartbeat IPC: 0.248185 cumulative IPC: 0.248086 (Simulation time: 0 hr 20 min 9 sec) 
Heartbeat CPU 0 instructions: 360000000 cycles: 1121208011 heartbeat IPC: 0.246531 cumulative IPC: 0.248026 (Simulation time: 0 hr 20 min 48 sec) 
Heartbeat CPU 0 instructions: 370000000 cycles: 1160842716 heartbeat IPC: 0.252304 cumulative IPC: 0.248182 (Simulation time: 0 hr 21 min 27 sec) 
Heartbeat CPU 0 instructions: 380000000 cycles: 1201383520 heartbeat IPC: 0.246665 cumulative IPC: 0.248127 (Simulation time: 0 hr 22 min 6 sec) 
Heartbeat CPU 0 instructions: 390000001 cycles: 1241466826 heartbeat IPC: 0.24948 cumulative IPC: 0.248174 (Simulation time: 0 hr 22 min 45 sec) 
Heartbeat CPU 0 instructions: 400000000 cycles: 1281642221 heartbeat IPC: 0.248909 cumulative IPC: 0.248198 (Simulation time: 0 hr 23 min 24 sec) 
Heartbeat CPU 0 instructions: 410000000 cycles: 1321656815 heartbeat IPC: 0.249909 cumulative IPC: 0.248253 (Simulation time: 0 hr 24 min 3 sec) 
Heartbeat CPU 0 instructions: 420000000 cycles: 1361710774 heartbeat IPC: 0.249663 cumulative IPC: 0.248297 (Simulation time: 0 hr 24 min 42 sec) 
Heartbeat CPU 0 instructions: 430000000 cycles: 1401853822 heartbeat IPC: 0.249109 cumulative IPC: 0.248321 (Simulation time: 0 hr 25 min 21 sec) 
Heartbeat CPU 0 instructions: 440000000 cycles: 1442017467 heartbeat IPC: 0.248981 cumulative IPC: 0.248341 (Simulation time: 0 hr 26 min 0 sec) 
Heartbeat CPU 0 instructions: 450000002 cycles: 1482058021 heartbeat IPC: 0.249747 cumulative IPC: 0.248381 (Simulation time: 0 hr 26 min 39 sec) 
Heartbeat CPU 0 instructions: 460000000 cycles: 1521516573 heartbeat IPC: 0.25343 cumulative IPC: 0.248518 (Simulation time: 0 hr 27 min 18 sec) 
Heartbeat CPU 0 instructions: 470000000 cycles: 1561824050 heartbeat IPC: 0.248093 cumulative IPC: 0.248507 (Simulation time: 0 hr 27 min 57 sec) 
Heartbeat CPU 0 instructions: 480000000 cycles: 1601773282 heartbeat IPC: 0.250318 cumulative IPC: 0.248554 (Simulation time: 0 hr 28 min 36 sec) 
Heartbeat CPU 0 instructions: 490000001 cycles: 1641889706 heartbeat IPC: 0.249274 cumulative IPC: 0.248572 (Simulation time: 0 hr 29 min 15 sec) 
Heartbeat CPU 0 instructions: 500000000 cycles: 1682215861 heartbeat IPC: 0.247978 cumulative IPC: 0.248557 (Simulation time: 0 hr 29 min 54 sec) 
Heartbeat CPU 0 instructions: 510000000 cycles: 1722007871 heartbeat IPC: 0.251307 cumulative IPC: 0.248624 (Simulation time: 0 hr 30 min 31 sec) 
Heartbeat CPU 0 instructions: 520000000 cycles: 1762542112 heartbeat IPC: 0.246705 cumulative IPC: 0.248578 (Simulation time: 0 hr 31 min 10 sec) 
Heartbeat CPU 0 instructions: 530000000 cycles: 1802533864 heartbeat IPC: 0.250052 cumulative IPC: 0.248612 (Simulation time: 0 hr 31 min 47 sec) 
Heartbeat CPU 0 instructions: 540000000 cycles: 1842286768 heartbeat IPC: 0.251554 cumulative IPC: 0.248678 (Simulation time: 0 hr 32 min 25 sec) 
Heartbeat CPU 0 instructions: 550000001 cycles: 1882751847 heartbeat IPC: 0.247127 cumulative IPC: 0.248643 (Simulation time: 0 hr 33 min 2 sec) 
Heartbeat CPU 0 instructions: 560000000 cycles: 1923313307 heartbeat IPC: 0.246539 cumulative IPC: 0.248597 (Simulation time: 0 hr 33 min 40 sec) 
Heartbeat CPU 0 instructions: 570000003 cycles: 1963853685 heartbeat IPC: 0.246668 cumulative IPC: 0.248556 (Simulation time: 0 hr 34 min 18 sec) 
Heartbeat CPU 0 instructions: 580000000 cycles: 2004219241 heartbeat IPC: 0.247736 cumulative IPC: 0.248539 (Simulation time: 0 hr 34 min 56 sec) 
Heartbeat CPU 0 instructions: 590000001 cycles: 2045020443 heartbeat IPC: 0.245091 cumulative IPC: 0.248467 (Simulation time: 0 hr 35 min 34 sec) 
Heartbeat CPU 0 instructions: 600000000 cycles: 2085586842 heartbeat IPC: 0.246509 cumulative IPC: 0.248428 (Simulation time: 0 hr 36 min 11 sec) 
Finished CPU 0 instructions: 500000000 cycles: 2012656759 cumulative IPC: 0.248428 (Simulation time: 0 hr 36 min 11 sec) 

CPU 0 Branch Prediction Accuracy: 96.2429% MPKI: 5.85335
Number of Branches: 77897976 Number of Mispredictions: 2926674
Number of LOAD Instructions: 193081861
Number of LOAD Instructions (ROI): 193081861
Number of STORE Instructions: 97310749
Number of STORE Instructions (ROI): 97310749
Total Destination Memory Operands: 106368027
Total Destination Memory Operands (ROI): 106368027
Total Source Memory Operands: 193081861
Total Source Memory Operands (ROI): 193081861
Number of DEPENDED LOADS: 6451567
Number of DEPENDED LOADS (ROI): 6451567
Number of SQ_ADDED: 106367982
Number of SQ_ADDED (ROI): 106367982
Number of LQ_ADDED: 426955015
Number of LQ_ADDED (ROI): 426955015
Number of Instructions read from trace: 600000256

ChampSim completed all CPUs

Region of Interest Statistics

CPU 0 cumulative IPC: 0.248428 instructions: 500000000 cycles: 2012656759
ITLB TOTAL     ACCESS:  151183631  HIT:  151167800  MISS:      15831
ITLB LOAD      ACCESS:  151183631  HIT:  151167800  MISS:      15831
ITLB RFO       ACCESS:          0  HIT:          0  MISS:          0
ITLB PREFETCH  ACCESS:          0  HIT:          0  MISS:          0
ITLB WRITEBACK ACCESS:          0  HIT:          0  MISS:          0
ITLB PREFETCH  REQUESTED:          0  ISSUED:          0  USEFUL:          0  USELESS:          0
ITLB TOTAL MSHR MERGED:      17780
ITLB LOAD MSHR MERGED:      17780
ITLB RFO MSHR MERGED:          0
ITLB PREFETCH MSHR MERGED:          0
ITLB WRITEBACK MSHR MERGED:          0
ITLB TOTAL ACCESSES:  151201411 HITS:  151167800 MISSES:      33611
ITLB LOAD ACCESSES:  151201411 HITS:  151167800 MISSES:      33611
ITLB RFO ACCESSES:          0 HITS:          0 MISSES:          0
ITLB PREFETCH ACCESSES:          0 HITS:          0 MISSES:          0
ITLB WRITEBACK ACCESSES:          0 HITS:          0 MISSES:          0
ITLB RQ ACCESS:  500000242
ITLB RQ TO_CACHE:  151201411
ITLB RQ MERGED:  348798831
ITLB RQ FORWARD:          0
ITLB WQ ACCESS:          0
ITLB WQ TO_CACHE:          0
ITLB WQ MERGED:          0
ITLB WQ FORWARD:          0
DTLB TOTAL     ACCESS:  199552609  HIT:  194173575  MISS:    5379034
DTLB LOAD      ACCESS:  123125120  HIT:  118106570  MISS:    5018550
DTLB RFO       ACCESS:   76427489  HIT:   76067005  MISS:     360484
DTLB PREFETCH  ACCESS:          0  HIT:          0  MISS:          0
DTLB WRITEBACK ACCESS:          0  HIT:          0  MISS:          0
DTLB PREFETCH  REQUESTED:          0  ISSUED:          0  USEFUL:          0  USELESS:          0
DTLB TOTAL MSHR MERGED:     916577
DTLB LOAD MSHR MERGED:     806981
DTLB RFO MSHR MERGED:     109596
DTLB PREFETCH MSHR MERGED:          0
DTLB WRITEBACK MSHR MERGED:          0
DTLB TOTAL ACCESSES:  200469186 HITS:  194173575 MISSES:    6295611
DTLB LOAD ACCESSES:  123932101 HITS:  118106570 MISSES:    5825531
DTLB RFO ACCESSES:   76537085 HITS:   76067005 MISSES:     470080
DTLB PREFETCH ACCESSES:          0 HITS:          0 MISSES:          0
DTLB WRITEBACK ACCESSES:          0 HITS:          0 MISSES:          0
DTLB RQ ACCESS:  243873723
DTLB RQ TO_CACHE:  200469186
DTLB RQ MERGED:   43404537
DTLB RQ FORWARD:          0
DTLB WQ ACCESS:          0
DTLB WQ TO_CACHE:          0
DTLB WQ MERGED:          0
DTLB WQ FORWARD:          0
L1D TOTAL     ACCESS:  335575226  HIT:  317479112  MISS:   18096114
L1D LOAD      ACCESS:  127681817  HIT:  118738059  MISS:    8943758
L1D RFO       ACCESS:   87070614  HIT:   86284488  MISS:     786126
L1D PREFETCH  ACCESS:  120822795  HIT:  112456565  MISS:    8366230
L1D WRITEBACK ACCESS:          0  HIT:          0  MISS:          0
L1D PREFETCH  REQUESTED:  128467799  ISSUED:  126869783  USEFUL:    1741275  USELESS:    6624967
L1D TOTAL MSHR MERGED:    3861425
L1D LOAD MSHR MERGED:     950530
L1D RFO MSHR MERGED:    1076683
L1D PREFETCH MSHR MERGED:    1834212
L1D WRITEBACK MSHR MERGED:          0
L1D TOTAL ACCESSES:  339522842 HITS:  317565303 MISSES:   21957539
L1D LOAD ACCESSES:  128468250 HITS:  118738510 MISSES:    9729740
L1D RFO ACCESSES:   88081653 HITS:   86284488 MISSES:    1797165
L1D PREFETCH ACCESSES:  122972939 HITS:  112542305 MISSES:   10430634
L1D WRITEBACK ACCESSES:          0 HITS:          0 MISSES:          0
L1D RQ ACCESS:  155242338
L1D RQ TO_CACHE:  128467799
L1D RQ MERGED:   26774088
L1D RQ FORWARD:          0
L1D WQ ACCESS:   88631385
L1D WQ TO_CACHE:   88081652
L1D WQ MERGED:     549733
L1D WQ FORWARD:      86191
L1I TOTAL     ACCESS:  175491512  HIT:  175225047  MISS:     266465
L1I LOAD      ACCESS:  175491512  HIT:  175225047  MISS:     266465
L1I RFO       ACCESS:          0  HIT:          0  MISS:          0
L1I PREFETCH  ACCESS:          0  HIT:          0  MISS:          0
L1I WRITEBACK ACCESS:          0  HIT:          0  MISS:          0
L1I PREFETCH  REQUESTED:          0  ISSUED:          0  USEFUL:          0  USELESS:          0
L1I TOTAL MSHR MERGED:     213297
L1I LOAD MSHR MERGED:     213297
L1I RFO MSHR MERGED:          0
L1I PREFETCH MSHR MERGED:          0
L1I WRITEBACK MSHR MERGED:          0
L1I TOTAL ACCESSES:  175704809 HITS:  175225047 MISSES:     479762
L1I LOAD ACCESSES:  175704809 HITS:  175225047 MISSES:     479762
L1I RFO ACCESSES:          0 HITS:          0 MISSES:          0
L1I PREFETCH ACCESSES:          0 HITS:          0 MISSES:          0
L1I WRITEBACK ACCESSES:          0 HITS:          0 MISSES:          0
L1I RQ ACCESS:  500000242
L1I RQ TO_CACHE:  175704809
L1I RQ MERGED:  324295433
L1I RQ FORWARD:          0
L1I WQ ACCESS:          0
L1I WQ TO_CACHE:          0
L1I WQ MERGED:          0
L1I WQ FORWARD:          0
L2C TOTAL     ACCESS:   23738654  HIT:   12112864  MISS:   11625790
L2C LOAD      ACCESS:    9044495  HIT:    3564837  MISS:    5479658
L2C RFO       ACCESS:     720428  HIT:     130276  MISS:     590152
L2C PREFETCH  ACCESS:    8613419  HIT:    3086144  MISS:    5527275
L2C WRITEBACK ACCESS:    5360312  HIT:    5331607  MISS:      28705
L2C PREFETCH  REQUESTED:      18041  ISSUED:      18041  USEFUL:     322986  USELESS:    5204464
L2C TOTAL MSHR MERGED:         22
L2C LOAD MSHR MERGED:          2
L2C RFO MSHR MERGED:          0
L2C PREFETCH MSHR MERGED:         20
L2C WRITEBACK MSHR MERGED:          0
L2C TOTAL ACCESSES:   23740473 HITS:   12114655 MISSES:   11625818
L2C LOAD ACCESSES:    9045675 HITS:    3566017 MISSES:    5479658
L2C RFO ACCESSES:     720482 HITS:     130330 MISSES:     590152
L2C PREFETCH ACCESSES:    8614004 HITS:    3086701 MISSES:    5527303
L2C WRITEBACK ACCESSES:    5360312 HITS:    5331607 MISSES:      28705
L2C RQ ACCESS:    9766157
L2C RQ TO_CACHE:    9764923
L2C RQ MERGED:          0
L2C RQ FORWARD:          0
L2C WQ ACCESS:    5360312
L2C WQ TO_CACHE:    5360312
L2C WQ MERGED:          0
L2C WQ FORWARD:       1791
LLC TOTAL     ACCESS:   15448707  HIT:    6430907  MISS:    9017800
LLC LOAD      ACCESS:    5479626  HIT:    2024390  MISS:    3455236
LLC RFO       ACCESS:     590150  HIT:     274104  MISS:     316046
LLC PREFETCH  ACCESS:    5527266  HIT:    1072515  MISS:    4454751
LLC WRITEBACK ACCESS:    3851665  HIT:    3059898  MISS:     791767
LLC PREFETCH  REQUESTED:          0  ISSUED:          0  USEFUL:      23918  USELESS:    4431352
LLC TOTAL MSHR MERGED:          0
LLC LOAD MSHR MERGED:          0
LLC RFO MSHR MERGED:          0
LLC PREFETCH MSHR MERGED:          0
LLC WRITEBACK MSHR MERGED:          0
LLC TOTAL ACCESSES:   15448756 HITS:    6430956 MISSES:    9017800
LLC LOAD ACCESSES:    5479656 HITS:    2024420 MISSES:    3455236
LLC RFO ACCESSES:     590152 HITS:     274106 MISSES:     316046
LLC PREFETCH ACCESSES:    5527283 HITS:    1072532 MISSES:    4454751
LLC WRITEBACK ACCESSES:    3851665 HITS:    3059898 MISSES:     791767
LLC 0 RQ ACCESS:    6069808
LLC 0 RQ TO_CACHE:    6069776
LLC 0 RQ MERGED:          0
LLC 0 RQ FORWARD:          0
LLC WQ ACCESS:    3851665
LLC WQ TO_CACHE:    3851665
LLC WQ MERGED:          0
LLC WQ FORWARD:         49
Major fault: 0 Minor fault: 44814
CPU 0 L1D next line prefetcher final stats
CPU 0 L2C PC-based stride prefetcher final stats
All Misses: 10906106
All Hits: 7715104
SD Algo Stats - Switches: 0 SRR-Repls: 3941564 BRR-Repls: 0

DRAM Statistics
 CHANNEL 0
 RQ ROW_BUFFER_HIT:    1444136  ROW_BUFFER_MISS:    6779922
 DBUS_CONGESTED:    5556569
 WQ ROW_BUFFER_HIT:     183262  ROW_BUFFER_MISS:    2140058  FULL:          0

 AVG_CONGESTED_CYCLE: 13
LOADS RETIRED: 160808997
INSTR RETIRED: 500000000
