
*** ChampSim Multicore Out-of-Order Simulator ***

Warmup Instructions: 100000000
Simulation Instructions: 500000000
Number of CPUs: 1
LLC sets: 2048
LLC ways: 16
Clean RRIP Policies: 2213230222132302 Dirty RRIP Policies: 2203130222031302 PSEL Width: 10 Track Set: 4294967295 PSEL Mask: 1 Demote Mask: 1010100310101003DS Algo: 0Window size: 0
Off-chip DRAM Size: 4096 MB Channels: 1 Width: 64-bit Data Rate: 1600 MT/s

CPU 0 runs /mnt/beegfs/iconst01/spec2017/Parest.trace.gz
NOT SORTED
TRACE STRING: /mnt/beegfs/iconst01/spec2017/Parest.trace.gz
SORTED
TRACE STRING: /mnt/beegfs/iconst01/spec2017/Parest.trace.gz
INITIAL
TRACE STRING: /mnt/beegfs/iconst01/spec2017/Parest.trace.gz

champsim_seed used: 623

CPU 0 L1D next line prefetcher
CPU 0 L2C IP-based stride prefetcher
Initialize DRRIP state
Assign rand_sets[0]: 454  LLC: 2048
rand_sets[0]: 454
Assign rand_sets[1]: 1662  LLC: 2048
rand_sets[1]: 1662
Assign rand_sets[2]: 1921  LLC: 2048
rand_sets[2]: 1921
Assign rand_sets[3]: 1131  LLC: 2048
rand_sets[3]: 1131
Assign rand_sets[4]: 331  LLC: 2048
rand_sets[4]: 331
Assign rand_sets[5]: 1531  LLC: 2048
rand_sets[5]: 1531
Assign rand_sets[6]: 482  LLC: 2048
rand_sets[6]: 482
Assign rand_sets[7]: 1275  LLC: 2048
rand_sets[7]: 1275
Assign rand_sets[8]: 1876  LLC: 2048
rand_sets[8]: 1876
Assign rand_sets[9]: 2038  LLC: 2048
rand_sets[9]: 2038
Assign rand_sets[10]: 701  LLC: 2048
rand_sets[10]: 701
Assign rand_sets[11]: 479  LLC: 2048
rand_sets[11]: 479
Assign rand_sets[12]: 892  LLC: 2048
rand_sets[12]: 892
Assign rand_sets[13]: 1820  LLC: 2048
rand_sets[13]: 1820
Assign rand_sets[14]: 1505  LLC: 2048
rand_sets[14]: 1505
Assign rand_sets[15]: 1159  LLC: 2048
rand_sets[15]: 1159
Assign rand_sets[16]: 513  LLC: 2048
rand_sets[16]: 513
Assign rand_sets[17]: 703  LLC: 2048
rand_sets[17]: 703
Assign rand_sets[18]: 561  LLC: 2048
rand_sets[18]: 561
Assign rand_sets[19]: 990  LLC: 2048
rand_sets[19]: 990
Assign rand_sets[20]: 342  LLC: 2048
rand_sets[20]: 342
Assign rand_sets[21]: 882  LLC: 2048
rand_sets[21]: 882
Assign rand_sets[22]: 15  LLC: 2048
rand_sets[22]: 15
Assign rand_sets[23]: 71  LLC: 2048
rand_sets[23]: 71
Assign rand_sets[24]: 1127  LLC: 2048
rand_sets[24]: 1127
Assign rand_sets[25]: 1382  LLC: 2048
rand_sets[25]: 1382
Assign rand_sets[26]: 647  LLC: 2048
rand_sets[26]: 647
Assign rand_sets[27]: 857  LLC: 2048
rand_sets[27]: 857
Assign rand_sets[28]: 1450  LLC: 2048
rand_sets[28]: 1450
Assign rand_sets[29]: 1160  LLC: 2048
rand_sets[29]: 1160
Assign rand_sets[30]: 1852  LLC: 2048
rand_sets[30]: 1852
Assign rand_sets[31]: 1881  LLC: 2048
rand_sets[31]: 1881
Assign rand_sets[32]: 1770  LLC: 2048
rand_sets[32]: 1770
Assign rand_sets[33]: 1622  LLC: 2048
rand_sets[33]: 1622
Assign rand_sets[34]: 275  LLC: 2048
rand_sets[34]: 275
Assign rand_sets[35]: 635  LLC: 2048
rand_sets[35]: 635
Assign rand_sets[36]: 466  LLC: 2048
rand_sets[36]: 466
Assign rand_sets[37]: 1413  LLC: 2048
rand_sets[37]: 1413
Assign rand_sets[38]: 417  LLC: 2048
rand_sets[38]: 417
Assign rand_sets[39]: 472  LLC: 2048
rand_sets[39]: 472
Assign rand_sets[40]: 1340  LLC: 2048
rand_sets[40]: 1340
Assign rand_sets[41]: 852  LLC: 2048
rand_sets[41]: 852
Assign rand_sets[42]: 1365  LLC: 2048
rand_sets[42]: 1365
Assign rand_sets[43]: 47  LLC: 2048
rand_sets[43]: 47
Assign rand_sets[44]: 823  LLC: 2048
rand_sets[44]: 823
Assign rand_sets[45]: 686  LLC: 2048
rand_sets[45]: 686
Assign rand_sets[46]: 1637  LLC: 2048
rand_sets[46]: 1637
Assign rand_sets[47]: 1115  LLC: 2048
rand_sets[47]: 1115
Assign rand_sets[48]: 986  LLC: 2048
rand_sets[48]: 986
Assign rand_sets[49]: 258  LLC: 2048
rand_sets[49]: 258
Assign rand_sets[50]: 633  LLC: 2048
rand_sets[50]: 633
Assign rand_sets[51]: 920  LLC: 2048
rand_sets[51]: 920
Assign rand_sets[52]: 204  LLC: 2048
rand_sets[52]: 204
Assign rand_sets[53]: 227  LLC: 2048
rand_sets[53]: 227
Assign rand_sets[54]: 1818  LLC: 2048
rand_sets[54]: 1818
Assign rand_sets[55]: 886  LLC: 2048
rand_sets[55]: 886
Assign rand_sets[56]: 1422  LLC: 2048
rand_sets[56]: 1422
Assign rand_sets[57]: 607  LLC: 2048
rand_sets[57]: 607
Assign rand_sets[58]: 217  LLC: 2048
rand_sets[58]: 217
Assign rand_sets[59]: 1945  LLC: 2048
rand_sets[59]: 1945
Assign rand_sets[60]: 143  LLC: 2048
rand_sets[60]: 143
Assign rand_sets[61]: 1311  LLC: 2048
rand_sets[61]: 1311
Assign rand_sets[62]: 319  LLC: 2048
rand_sets[62]: 319
Assign rand_sets[63]: 1846  LLC: 2048
rand_sets[63]: 1846
 CLEAN-RRIP-POLICY-1: 2-2-1-3-2-3-0-2- CLEAN-RRIP-POLICY-2: 2-2-1-3-2-3-0-2-
 DIRTY-RRIP-POLICY-1: 2-2-0-3-1-3-0-2- DIRTY-RRIP-POLICY-2: 2-2-0-3-1-3-0-2-
 PSEL width: 10
Heartbeat CPU 0 instructions: 10000001 cycles: 4387173 heartbeat IPC: 2.27937 cumulative IPC: 2.27937 (Simulation time: 0 hr 0 min 15 sec) 
Heartbeat CPU 0 instructions: 20000000 cycles: 8781534 heartbeat IPC: 2.27564 cumulative IPC: 2.27751 (Simulation time: 0 hr 0 min 30 sec) 
Heartbeat CPU 0 instructions: 30000003 cycles: 13213550 heartbeat IPC: 2.25631 cumulative IPC: 2.2704 (Simulation time: 0 hr 0 min 45 sec) 
Heartbeat CPU 0 instructions: 40000000 cycles: 17644253 heartbeat IPC: 2.25698 cumulative IPC: 2.26703 (Simulation time: 0 hr 1 min 0 sec) 
Heartbeat CPU 0 instructions: 50000000 cycles: 22052791 heartbeat IPC: 2.26833 cumulative IPC: 2.26729 (Simulation time: 0 hr 1 min 15 sec) 
Heartbeat CPU 0 instructions: 60000000 cycles: 26458847 heartbeat IPC: 2.2696 cumulative IPC: 2.26767 (Simulation time: 0 hr 1 min 29 sec) 
Heartbeat CPU 0 instructions: 70000000 cycles: 30859928 heartbeat IPC: 2.27217 cumulative IPC: 2.26831 (Simulation time: 0 hr 1 min 44 sec) 
Heartbeat CPU 0 instructions: 80000000 cycles: 35255669 heartbeat IPC: 2.27493 cumulative IPC: 2.26914 (Simulation time: 0 hr 1 min 59 sec) 
Heartbeat CPU 0 instructions: 90000000 cycles: 39650107 heartbeat IPC: 2.2756 cumulative IPC: 2.26986 (Simulation time: 0 hr 2 min 14 sec) 
Heartbeat CPU 0 instructions: 100000000 cycles: 44047563 heartbeat IPC: 2.27404 cumulative IPC: 2.27027 (Simulation time: 0 hr 2 min 29 sec) 

Warmup complete CPU 0 instructions: 100000002 cycles: 44047573 (Simulation time: 0 hr 2 min 29 sec) 

Heartbeat CPU 0 instructions: 110000000 cycles: 54027391 heartbeat IPC: 1.00202 cumulative IPC: 1.00202 (Simulation time: 0 hr 2 min 48 sec) 
Heartbeat CPU 0 instructions: 120000000 cycles: 63045274 heartbeat IPC: 1.10891 cumulative IPC: 1.05276 (Simulation time: 0 hr 3 min 7 sec) 
Heartbeat CPU 0 instructions: 130000000 cycles: 72120127 heartbeat IPC: 1.10195 cumulative IPC: 1.06866 (Simulation time: 0 hr 3 min 26 sec) 
Heartbeat CPU 0 instructions: 140000000 cycles: 81340602 heartbeat IPC: 1.08454 cumulative IPC: 1.07259 (Simulation time: 0 hr 3 min 45 sec) 
Heartbeat CPU 0 instructions: 150000000 cycles: 92419485 heartbeat IPC: 0.902618 cumulative IPC: 1.03366 (Simulation time: 0 hr 4 min 4 sec) 
Heartbeat CPU 0 instructions: 160000000 cycles: 102476640 heartbeat IPC: 0.994317 cumulative IPC: 1.02689 (Simulation time: 0 hr 4 min 23 sec) 
Heartbeat CPU 0 instructions: 170000003 cycles: 112298890 heartbeat IPC: 1.0181 cumulative IPC: 1.02562 (Simulation time: 0 hr 4 min 42 sec) 
Heartbeat CPU 0 instructions: 180000000 cycles: 121966756 heartbeat IPC: 1.03435 cumulative IPC: 1.0267 (Simulation time: 0 hr 5 min 1 sec) 
Heartbeat CPU 0 instructions: 190000002 cycles: 131760715 heartbeat IPC: 1.02104 cumulative IPC: 1.02607 (Simulation time: 0 hr 5 min 20 sec) 
Heartbeat CPU 0 instructions: 200000000 cycles: 141033415 heartbeat IPC: 1.07843 cumulative IPC: 1.03108 (Simulation time: 0 hr 5 min 38 sec) 
Heartbeat CPU 0 instructions: 210000000 cycles: 150696737 heartbeat IPC: 1.03484 cumulative IPC: 1.03142 (Simulation time: 0 hr 5 min 57 sec) 
Heartbeat CPU 0 instructions: 220000000 cycles: 159692451 heartbeat IPC: 1.11164 cumulative IPC: 1.03766 (Simulation time: 0 hr 6 min 16 sec) 
Heartbeat CPU 0 instructions: 230000001 cycles: 171901210 heartbeat IPC: 0.819084 cumulative IPC: 1.01679 (Simulation time: 0 hr 6 min 37 sec) 
Heartbeat CPU 0 instructions: 240000000 cycles: 182358647 heartbeat IPC: 0.956257 cumulative IPC: 1.01221 (Simulation time: 0 hr 6 min 56 sec) 
Heartbeat CPU 0 instructions: 250000002 cycles: 192202976 heartbeat IPC: 1.01581 cumulative IPC: 1.01245 (Simulation time: 0 hr 7 min 15 sec) 
Heartbeat CPU 0 instructions: 260000000 cycles: 201780276 heartbeat IPC: 1.04414 cumulative IPC: 1.01437 (Simulation time: 0 hr 7 min 33 sec) 
Heartbeat CPU 0 instructions: 270000001 cycles: 211205792 heartbeat IPC: 1.06095 cumulative IPC: 1.017 (Simulation time: 0 hr 7 min 52 sec) 
Heartbeat CPU 0 instructions: 280000000 cycles: 220930130 heartbeat IPC: 1.02835 cumulative IPC: 1.01762 (Simulation time: 0 hr 8 min 11 sec) 
Heartbeat CPU 0 instructions: 290000002 cycles: 230064186 heartbeat IPC: 1.0948 cumulative IPC: 1.02141 (Simulation time: 0 hr 8 min 30 sec) 
Heartbeat CPU 0 instructions: 300000000 cycles: 239658539 heartbeat IPC: 1.04228 cumulative IPC: 1.02244 (Simulation time: 0 hr 8 min 49 sec) 
Heartbeat CPU 0 instructions: 310000000 cycles: 248719037 heartbeat IPC: 1.10369 cumulative IPC: 1.02603 (Simulation time: 0 hr 9 min 7 sec) 
Heartbeat CPU 0 instructions: 320000000 cycles: 257912723 heartbeat IPC: 1.0877 cumulative IPC: 1.02869 (Simulation time: 0 hr 9 min 26 sec) 
Heartbeat CPU 0 instructions: 330000003 cycles: 267262641 heartbeat IPC: 1.06953 cumulative IPC: 1.0304 (Simulation time: 0 hr 9 min 45 sec) 
Heartbeat CPU 0 instructions: 340000000 cycles: 277226086 heartbeat IPC: 1.00367 cumulative IPC: 1.02925 (Simulation time: 0 hr 10 min 4 sec) 
Heartbeat CPU 0 instructions: 350000000 cycles: 287533142 heartbeat IPC: 0.970209 cumulative IPC: 1.02675 (Simulation time: 0 hr 10 min 23 sec) 
Heartbeat CPU 0 instructions: 360000000 cycles: 297304681 heartbeat IPC: 1.02338 cumulative IPC: 1.02662 (Simulation time: 0 hr 10 min 42 sec) 
Heartbeat CPU 0 instructions: 370000000 cycles: 306807186 heartbeat IPC: 1.05235 cumulative IPC: 1.02756 (Simulation time: 0 hr 11 min 1 sec) 
Heartbeat CPU 0 instructions: 380000000 cycles: 316145182 heartbeat IPC: 1.07089 cumulative IPC: 1.02904 (Simulation time: 0 hr 11 min 19 sec) 
Heartbeat CPU 0 instructions: 390000002 cycles: 325273713 heartbeat IPC: 1.09547 cumulative IPC: 1.0312 (Simulation time: 0 hr 11 min 38 sec) 
Heartbeat CPU 0 instructions: 400000000 cycles: 334823442 heartbeat IPC: 1.04715 cumulative IPC: 1.03172 (Simulation time: 0 hr 11 min 56 sec) 
Heartbeat CPU 0 instructions: 410000000 cycles: 343791454 heartbeat IPC: 1.11507 cumulative IPC: 1.03422 (Simulation time: 0 hr 12 min 15 sec) 
Heartbeat CPU 0 instructions: 420000000 cycles: 354692354 heartbeat IPC: 0.917355 cumulative IPC: 1.03012 (Simulation time: 0 hr 12 min 34 sec) 
Heartbeat CPU 0 instructions: 430000000 cycles: 365528292 heartbeat IPC: 0.922855 cumulative IPC: 1.0265 (Simulation time: 0 hr 12 min 54 sec) 
Heartbeat CPU 0 instructions: 440000000 cycles: 375406266 heartbeat IPC: 1.01235 cumulative IPC: 1.02608 (Simulation time: 0 hr 13 min 13 sec) 
Heartbeat CPU 0 instructions: 450000000 cycles: 385188323 heartbeat IPC: 1.02228 cumulative IPC: 1.02597 (Simulation time: 0 hr 13 min 31 sec) 
Heartbeat CPU 0 instructions: 460000000 cycles: 394909016 heartbeat IPC: 1.02873 cumulative IPC: 1.02605 (Simulation time: 0 hr 13 min 50 sec) 
Heartbeat CPU 0 instructions: 470000001 cycles: 404684897 heartbeat IPC: 1.02293 cumulative IPC: 1.02596 (Simulation time: 0 hr 14 min 9 sec) 
Heartbeat CPU 0 instructions: 480000000 cycles: 413915010 heartbeat IPC: 1.08341 cumulative IPC: 1.0274 (Simulation time: 0 hr 14 min 28 sec) 
Heartbeat CPU 0 instructions: 490000002 cycles: 423639969 heartbeat IPC: 1.02828 cumulative IPC: 1.02742 (Simulation time: 0 hr 14 min 47 sec) 
Heartbeat CPU 0 instructions: 500000000 cycles: 432965913 heartbeat IPC: 1.07228 cumulative IPC: 1.02849 (Simulation time: 0 hr 15 min 6 sec) 
Heartbeat CPU 0 instructions: 510000000 cycles: 442109107 heartbeat IPC: 1.09371 cumulative IPC: 1.02999 (Simulation time: 0 hr 15 min 24 sec) 
Heartbeat CPU 0 instructions: 520000000 cycles: 451534995 heartbeat IPC: 1.06091 cumulative IPC: 1.03071 (Simulation time: 0 hr 15 min 43 sec) 
Heartbeat CPU 0 instructions: 530000001 cycles: 461723982 heartbeat IPC: 0.981452 cumulative IPC: 1.02951 (Simulation time: 0 hr 16 min 2 sec) 
Heartbeat CPU 0 instructions: 540000000 cycles: 472200437 heartbeat IPC: 0.954521 cumulative IPC: 1.02767 (Simulation time: 0 hr 16 min 21 sec) 
Heartbeat CPU 0 instructions: 550000003 cycles: 482156461 heartbeat IPC: 1.00442 cumulative IPC: 1.02714 (Simulation time: 0 hr 16 min 39 sec) 
Heartbeat CPU 0 instructions: 560000000 cycles: 491848689 heartbeat IPC: 1.03175 cumulative IPC: 1.02724 (Simulation time: 0 hr 16 min 58 sec) 
Heartbeat CPU 0 instructions: 570000002 cycles: 501368577 heartbeat IPC: 1.05043 cumulative IPC: 1.02772 (Simulation time: 0 hr 17 min 16 sec) 
Heartbeat CPU 0 instructions: 580000000 cycles: 510658203 heartbeat IPC: 1.07647 cumulative IPC: 1.02869 (Simulation time: 0 hr 17 min 35 sec) 
Heartbeat CPU 0 instructions: 590000002 cycles: 520319396 heartbeat IPC: 1.03507 cumulative IPC: 1.02882 (Simulation time: 0 hr 17 min 53 sec) 
Heartbeat CPU 0 instructions: 600000000 cycles: 529541986 heartbeat IPC: 1.08429 cumulative IPC: 1.02988 (Simulation time: 0 hr 18 min 11 sec) 
Finished CPU 0 instructions: 500000000 cycles: 485494427 cumulative IPC: 1.02988 (Simulation time: 0 hr 18 min 11 sec) 

CPU 0 Branch Prediction Accuracy: 97.8526% MPKI: 2.66709
Number of Branches: 62099103 Number of Mispredictions: 1333545
Number of LOAD Instructions: 210576465
Number of LOAD Instructions (ROI): 210576465
Number of STORE Instructions: 16915507
Number of STORE Instructions (ROI): 16915507
Total Destination Memory Operands: 16918869
Total Destination Memory Operands (ROI): 16918869
Total Source Memory Operands: 210576465
Total Source Memory Operands (ROI): 210576465
Number of DEPENDED LOADS: 345550
Number of DEPENDED LOADS (ROI): 345550
Number of SQ_ADDED: 16918826
Number of SQ_ADDED (ROI): 16918826
Number of LQ_ADDED: 210606687
Number of LQ_ADDED (ROI): 210606687
Number of Instructions read from trace: 600000257

ChampSim completed all CPUs

Region of Interest Statistics

CPU 0 cumulative IPC: 1.02988 instructions: 500000000 cycles: 485494427
ITLB TOTAL     ACCESS:   76345496  HIT:   76345458  MISS:         38
ITLB LOAD      ACCESS:   76345496  HIT:   76345458  MISS:         38
ITLB RFO       ACCESS:          0  HIT:          0  MISS:          0
ITLB PREFETCH  ACCESS:          0  HIT:          0  MISS:          0
ITLB WRITEBACK ACCESS:          0  HIT:          0  MISS:          0
ITLB PREFETCH  REQUESTED:          0  ISSUED:          0  USEFUL:          0  USELESS:          0
ITLB TOTAL MSHR MERGED:         37
ITLB LOAD MSHR MERGED:         37
ITLB RFO MSHR MERGED:          0
ITLB PREFETCH MSHR MERGED:          0
ITLB WRITEBACK MSHR MERGED:          0
ITLB TOTAL ACCESSES:   76345533 HITS:   76345458 MISSES:         75
ITLB LOAD ACCESSES:   76345533 HITS:   76345458 MISSES:         75
ITLB RFO ACCESSES:          0 HITS:          0 MISSES:          0
ITLB PREFETCH ACCESSES:          0 HITS:          0 MISSES:          0
ITLB WRITEBACK ACCESSES:          0 HITS:          0 MISSES:          0
ITLB RQ ACCESS:  500000188
ITLB RQ TO_CACHE:   76345534
ITLB RQ MERGED:  423654654
ITLB RQ FORWARD:          0
ITLB WQ ACCESS:          0
ITLB WQ TO_CACHE:          0
ITLB WQ MERGED:          0
ITLB WQ FORWARD:          0
DTLB TOTAL     ACCESS:  136729333  HIT:  136526536  MISS:     202797
DTLB LOAD      ACCESS:  128667083  HIT:  128467007  MISS:     200076
DTLB RFO       ACCESS:    8062250  HIT:    8059529  MISS:       2721
DTLB PREFETCH  ACCESS:          0  HIT:          0  MISS:          0
DTLB WRITEBACK ACCESS:          0  HIT:          0  MISS:          0
DTLB PREFETCH  REQUESTED:          0  ISSUED:          0  USEFUL:          0  USELESS:          0
DTLB TOTAL MSHR MERGED:     447893
DTLB LOAD MSHR MERGED:     444189
DTLB RFO MSHR MERGED:       3704
DTLB PREFETCH MSHR MERGED:          0
DTLB WRITEBACK MSHR MERGED:          0
DTLB TOTAL ACCESSES:  137177226 HITS:  136526536 MISSES:     650690
DTLB LOAD ACCESSES:  129111272 HITS:  128467007 MISSES:     644265
DTLB RFO ACCESSES:    8065954 HITS:    8059529 MISSES:       6425
DTLB PREFETCH ACCESSES:          0 HITS:          0 MISSES:          0
DTLB WRITEBACK ACCESSES:          0 HITS:          0 MISSES:          0
DTLB RQ ACCESS:  189419006
DTLB RQ TO_CACHE:  137177226
DTLB RQ MERGED:   52241780
DTLB RQ FORWARD:          0
DTLB WQ ACCESS:          0
DTLB WQ TO_CACHE:          0
DTLB WQ MERGED:          0
DTLB WQ FORWARD:          0
L1D TOTAL     ACCESS:  125159573  HIT:  107602599  MISS:   17556974
L1D LOAD      ACCESS:   72258140  HIT:   61973047  MISS:   10285093
L1D RFO       ACCESS:   14014151  HIT:   13861311  MISS:     152840
L1D PREFETCH  ACCESS:   38887282  HIT:   31768241  MISS:    7119041
L1D WRITEBACK ACCESS:          0  HIT:          0  MISS:          0
L1D PREFETCH  REQUESTED:   85474881  ISSUED:   84154521  USEFUL:    5859635  USELESS:    1259417
L1D TOTAL MSHR MERGED:   31668710
L1D LOAD MSHR MERGED:   18390589
L1D RFO MSHR MERGED:     266373
L1D PREFETCH MSHR MERGED:   13011748
L1D WRITEBACK MSHR MERGED:          0
L1D TOTAL ACCESSES:  156828777 HITS:  107603094 MISSES:   49225683
L1D LOAD ACCESSES:   85474894 HITS:   61973060 MISSES:   23501834
L1D RFO ACCESSES:   14280493 HITS:   13861311 MISSES:     419182
L1D PREFETCH ACCESSES:   57073390 HITS:   31768723 MISSES:   25304667
L1D WRITEBACK ACCESSES:          0 HITS:          0 MISSES:          0
L1D RQ ACCESS:  175129984
L1D RQ TO_CACHE:   85474881
L1D RQ MERGED:   89655090
L1D RQ FORWARD:          0
L1D WQ ACCESS:   14289037
L1D WQ TO_CACHE:   14280493
L1D WQ MERGED:       8544
L1D WQ FORWARD:        495
L1I TOTAL     ACCESS:   93376384  HIT:   93374588  MISS:       1796
L1I LOAD      ACCESS:   93376384  HIT:   93374588  MISS:       1796
L1I RFO       ACCESS:          0  HIT:          0  MISS:          0
L1I PREFETCH  ACCESS:          0  HIT:          0  MISS:          0
L1I WRITEBACK ACCESS:          0  HIT:          0  MISS:          0
L1I PREFETCH  REQUESTED:          0  ISSUED:          0  USEFUL:          0  USELESS:          0
L1I TOTAL MSHR MERGED:       2339
L1I LOAD MSHR MERGED:       2339
L1I RFO MSHR MERGED:          0
L1I PREFETCH MSHR MERGED:          0
L1I WRITEBACK MSHR MERGED:          0
L1I TOTAL ACCESSES:   93378723 HITS:   93374588 MISSES:       4135
L1I LOAD ACCESSES:   93378723 HITS:   93374588 MISSES:       4135
L1I RFO ACCESSES:          0 HITS:          0 MISSES:          0
L1I PREFETCH ACCESSES:          0 HITS:          0 MISSES:          0
L1I WRITEBACK ACCESSES:          0 HITS:          0 MISSES:          0
L1I RQ ACCESS:  500000187
L1I RQ TO_CACHE:   93378723
L1I RQ MERGED:  406621464
L1I RQ FORWARD:          0
L1I WQ ACCESS:          0
L1I WQ TO_CACHE:          0
L1I WQ MERGED:          0
L1I WQ FORWARD:          0
L2C TOTAL     ACCESS:   20901951  HIT:    8672738  MISS:   12229213
L2C LOAD      ACCESS:    5113016  HIT:    2145289  MISS:    2967727
L2C RFO       ACCESS:     152809  HIT:       6521  MISS:     146288
L2C PREFETCH  ACCESS:   13863371  HIT:    4748283  MISS:    9115088
L2C WRITEBACK ACCESS:    1772755  HIT:    1772645  MISS:        110
L2C PREFETCH  REQUESTED:    1810690  ISSUED:    1810690  USEFUL:    1065922  USELESS:    8050820
L2C TOTAL MSHR MERGED:      97460
L2C LOAD MSHR MERGED:      22155
L2C RFO MSHR MERGED:          0
L2C PREFETCH MSHR MERGED:      75305
L2C WRITEBACK MSHR MERGED:          0
L2C TOTAL ACCESSES:   21023607 HITS:    8672779 MISSES:   12350828
L2C LOAD ACCESSES:    5113041 HITS:    2145314 MISSES:    2967727
L2C RFO ACCESSES:     152809 HITS:       6521 MISSES:     146288
L2C PREFETCH ACCESSES:   13985002 HITS:    4748299 MISSES:    9236703
L2C WRITEBACK ACCESSES:    1772755 HITS:    1772645 MISSES:        110
L2C RQ ACCESS:    5265850
L2C RQ TO_CACHE:    5265825
L2C RQ MERGED:          0
L2C RQ FORWARD:          0
L2C WQ ACCESS:    1772755
L2C WQ TO_CACHE:    1772755
L2C WQ MERGED:          0
L2C WQ FORWARD:         41
LLC TOTAL     ACCESS:   12533677  HIT:    6809353  MISS:    5724324
LLC LOAD      ACCESS:    2945551  HIT:    2496626  MISS:     448925
LLC RFO       ACCESS:     146288  HIT:      74662  MISS:      71626
LLC PREFETCH  ACCESS:    9155854  HIT:    4007952  MISS:    5147902
LLC WRITEBACK ACCESS:     285984  HIT:     230113  MISS:      55871
LLC PREFETCH  REQUESTED:          0  ISSUED:          0  USEFUL:       8733  USELESS:    5139048
LLC TOTAL MSHR MERGED:       1289
LLC LOAD MSHR MERGED:        282
LLC RFO MSHR MERGED:          0
LLC PREFETCH MSHR MERGED:       1007
LLC WRITEBACK MSHR MERGED:          0
LLC TOTAL ACCESSES:   12535000 HITS:    6809387 MISSES:    5725613
LLC LOAD ACCESSES:    2945572 HITS:    2496647 MISSES:     448925
LLC RFO ACCESSES:     146288 HITS:      74662 MISSES:      71626
LLC PREFETCH ACCESSES:    9157156 HITS:    4007965 MISSES:    5149191
LLC WRITEBACK ACCESSES:     285984 HITS:     230113 MISSES:      55871
LLC 0 RQ ACCESS:    3091860
LLC 0 RQ TO_CACHE:    3091839
LLC 0 RQ MERGED:          0
LLC 0 RQ FORWARD:          0
LLC WQ ACCESS:     285984
LLC WQ TO_CACHE:     285984
LLC WQ MERGED:          0
LLC WQ FORWARD:         34
Major fault: 0 Minor fault: 6524
CPU 0 L1D next line prefetcher final stats
CPU 0 L2C PC-based stride prefetcher final stats
All Misses: 7521002
All Hits: 7537689
SD Algo Stats - Switches: 0 SRR-Repls: 475642 BRR-Repls: 0

DRAM Statistics
 CHANNEL 0
 RQ ROW_BUFFER_HIT:    4850702  ROW_BUFFER_MISS:     808876
 DBUS_CONGESTED:    2041239
 WQ ROW_BUFFER_HIT:      15138  ROW_BUFFER_MISS:      76851  FULL:          0

 AVG_CONGESTED_CYCLE: 12
LOADS RETIRED: 175418235
INSTR RETIRED: 500000000
