
*** ChampSim Multicore Out-of-Order Simulator ***

Warmup Instructions: 100000000
Simulation Instructions: 500000000
Number of CPUs: 1
LLC sets: 2048
LLC ways: 16
Clean RRIP Policies: 2113230221132302 Dirty RRIP Policies: 2103130221031302 PSEL Width: 10 Track Set: 4294967295 PSEL Mask: 1 Demote Mask: 4040100040401000DS Algo: 0Window size: 0
Off-chip DRAM Size: 4096 MB Channels: 1 Width: 64-bit Data Rate: 1600 MT/s

CPU 0 runs /mnt/beegfs/iconst01/spec2017/Fotonik3d.trace.gz
NOT SORTED
TRACE STRING: /mnt/beegfs/iconst01/spec2017/Fotonik3d.trace.gz
SORTED
TRACE STRING: /mnt/beegfs/iconst01/spec2017/Fotonik3d.trace.gz
INITIAL
TRACE STRING: /mnt/beegfs/iconst01/spec2017/Fotonik3d.trace.gz

champsim_seed used: 881

CPU 0 L1D next line prefetcher
CPU 0 L2C IP-based stride prefetcher
Initialize DRRIP state
Assign rand_sets[0]: 454  LLC: 2048
rand_sets[0]: 454
Assign rand_sets[1]: 1662  LLC: 2048
rand_sets[1]: 1662
Assign rand_sets[2]: 1921  LLC: 2048
rand_sets[2]: 1921
Assign rand_sets[3]: 1131  LLC: 2048
rand_sets[3]: 1131
Assign rand_sets[4]: 331  LLC: 2048
rand_sets[4]: 331
Assign rand_sets[5]: 1531  LLC: 2048
rand_sets[5]: 1531
Assign rand_sets[6]: 482  LLC: 2048
rand_sets[6]: 482
Assign rand_sets[7]: 1275  LLC: 2048
rand_sets[7]: 1275
Assign rand_sets[8]: 1876  LLC: 2048
rand_sets[8]: 1876
Assign rand_sets[9]: 2038  LLC: 2048
rand_sets[9]: 2038
Assign rand_sets[10]: 701  LLC: 2048
rand_sets[10]: 701
Assign rand_sets[11]: 479  LLC: 2048
rand_sets[11]: 479
Assign rand_sets[12]: 892  LLC: 2048
rand_sets[12]: 892
Assign rand_sets[13]: 1820  LLC: 2048
rand_sets[13]: 1820
Assign rand_sets[14]: 1505  LLC: 2048
rand_sets[14]: 1505
Assign rand_sets[15]: 1159  LLC: 2048
rand_sets[15]: 1159
Assign rand_sets[16]: 513  LLC: 2048
rand_sets[16]: 513
Assign rand_sets[17]: 703  LLC: 2048
rand_sets[17]: 703
Assign rand_sets[18]: 561  LLC: 2048
rand_sets[18]: 561
Assign rand_sets[19]: 990  LLC: 2048
rand_sets[19]: 990
Assign rand_sets[20]: 342  LLC: 2048
rand_sets[20]: 342
Assign rand_sets[21]: 882  LLC: 2048
rand_sets[21]: 882
Assign rand_sets[22]: 15  LLC: 2048
rand_sets[22]: 15
Assign rand_sets[23]: 71  LLC: 2048
rand_sets[23]: 71
Assign rand_sets[24]: 1127  LLC: 2048
rand_sets[24]: 1127
Assign rand_sets[25]: 1382  LLC: 2048
rand_sets[25]: 1382
Assign rand_sets[26]: 647  LLC: 2048
rand_sets[26]: 647
Assign rand_sets[27]: 857  LLC: 2048
rand_sets[27]: 857
Assign rand_sets[28]: 1450  LLC: 2048
rand_sets[28]: 1450
Assign rand_sets[29]: 1160  LLC: 2048
rand_sets[29]: 1160
Assign rand_sets[30]: 1852  LLC: 2048
rand_sets[30]: 1852
Assign rand_sets[31]: 1881  LLC: 2048
rand_sets[31]: 1881
Assign rand_sets[32]: 1770  LLC: 2048
rand_sets[32]: 1770
Assign rand_sets[33]: 1622  LLC: 2048
rand_sets[33]: 1622
Assign rand_sets[34]: 275  LLC: 2048
rand_sets[34]: 275
Assign rand_sets[35]: 635  LLC: 2048
rand_sets[35]: 635
Assign rand_sets[36]: 466  LLC: 2048
rand_sets[36]: 466
Assign rand_sets[37]: 1413  LLC: 2048
rand_sets[37]: 1413
Assign rand_sets[38]: 417  LLC: 2048
rand_sets[38]: 417
Assign rand_sets[39]: 472  LLC: 2048
rand_sets[39]: 472
Assign rand_sets[40]: 1340  LLC: 2048
rand_sets[40]: 1340
Assign rand_sets[41]: 852  LLC: 2048
rand_sets[41]: 852
Assign rand_sets[42]: 1365  LLC: 2048
rand_sets[42]: 1365
Assign rand_sets[43]: 47  LLC: 2048
rand_sets[43]: 47
Assign rand_sets[44]: 823  LLC: 2048
rand_sets[44]: 823
Assign rand_sets[45]: 686  LLC: 2048
rand_sets[45]: 686
Assign rand_sets[46]: 1637  LLC: 2048
rand_sets[46]: 1637
Assign rand_sets[47]: 1115  LLC: 2048
rand_sets[47]: 1115
Assign rand_sets[48]: 986  LLC: 2048
rand_sets[48]: 986
Assign rand_sets[49]: 258  LLC: 2048
rand_sets[49]: 258
Assign rand_sets[50]: 633  LLC: 2048
rand_sets[50]: 633
Assign rand_sets[51]: 920  LLC: 2048
rand_sets[51]: 920
Assign rand_sets[52]: 204  LLC: 2048
rand_sets[52]: 204
Assign rand_sets[53]: 227  LLC: 2048
rand_sets[53]: 227
Assign rand_sets[54]: 1818  LLC: 2048
rand_sets[54]: 1818
Assign rand_sets[55]: 886  LLC: 2048
rand_sets[55]: 886
Assign rand_sets[56]: 1422  LLC: 2048
rand_sets[56]: 1422
Assign rand_sets[57]: 607  LLC: 2048
rand_sets[57]: 607
Assign rand_sets[58]: 217  LLC: 2048
rand_sets[58]: 217
Assign rand_sets[59]: 1945  LLC: 2048
rand_sets[59]: 1945
Assign rand_sets[60]: 143  LLC: 2048
rand_sets[60]: 143
Assign rand_sets[61]: 1311  LLC: 2048
rand_sets[61]: 1311
Assign rand_sets[62]: 319  LLC: 2048
rand_sets[62]: 319
Assign rand_sets[63]: 1846  LLC: 2048
rand_sets[63]: 1846
 CLEAN-RRIP-POLICY-1: 2-1-1-3-2-3-0-2- CLEAN-RRIP-POLICY-2: 2-1-1-3-2-3-0-2-
 DIRTY-RRIP-POLICY-1: 2-1-0-3-1-3-0-2- DIRTY-RRIP-POLICY-2: 2-1-0-3-1-3-0-2-
 PSEL width: 10
Heartbeat CPU 0 instructions: 10000002 cycles: 7306831 heartbeat IPC: 1.36858 cumulative IPC: 1.36858 (Simulation time: 0 hr 0 min 24 sec) 
Heartbeat CPU 0 instructions: 20000000 cycles: 14613866 heartbeat IPC: 1.36854 cumulative IPC: 1.36856 (Simulation time: 0 hr 0 min 48 sec) 
Heartbeat CPU 0 instructions: 30000001 cycles: 21920800 heartbeat IPC: 1.36856 cumulative IPC: 1.36856 (Simulation time: 0 hr 1 min 13 sec) 
Heartbeat CPU 0 instructions: 40000000 cycles: 29227639 heartbeat IPC: 1.36858 cumulative IPC: 1.36857 (Simulation time: 0 hr 1 min 37 sec) 
Heartbeat CPU 0 instructions: 50000001 cycles: 36534395 heartbeat IPC: 1.3686 cumulative IPC: 1.36857 (Simulation time: 0 hr 2 min 1 sec) 
Heartbeat CPU 0 instructions: 60000000 cycles: 43841439 heartbeat IPC: 1.36854 cumulative IPC: 1.36857 (Simulation time: 0 hr 2 min 26 sec) 
Heartbeat CPU 0 instructions: 70000002 cycles: 51148257 heartbeat IPC: 1.36859 cumulative IPC: 1.36857 (Simulation time: 0 hr 2 min 50 sec) 
Heartbeat CPU 0 instructions: 80000000 cycles: 58455037 heartbeat IPC: 1.36859 cumulative IPC: 1.36857 (Simulation time: 0 hr 3 min 14 sec) 
Heartbeat CPU 0 instructions: 90000003 cycles: 65765681 heartbeat IPC: 1.36787 cumulative IPC: 1.36849 (Simulation time: 0 hr 3 min 39 sec) 
Heartbeat CPU 0 instructions: 100000000 cycles: 73076339 heartbeat IPC: 1.36787 cumulative IPC: 1.36843 (Simulation time: 0 hr 4 min 3 sec) 

Warmup complete CPU 0 instructions: 100000002 cycles: 73076351 (Simulation time: 0 hr 4 min 3 sec) 

Heartbeat CPU 0 instructions: 110000001 cycles: 85615501 heartbeat IPC: 0.797502 cumulative IPC: 0.797502 (Simulation time: 0 hr 4 min 33 sec) 
Heartbeat CPU 0 instructions: 120000000 cycles: 98072606 heartbeat IPC: 0.802755 cumulative IPC: 0.80012 (Simulation time: 0 hr 5 min 2 sec) 
Heartbeat CPU 0 instructions: 130000000 cycles: 110600248 heartbeat IPC: 0.798235 cumulative IPC: 0.79949 (Simulation time: 0 hr 5 min 31 sec) 
Heartbeat CPU 0 instructions: 140000000 cycles: 123107159 heartbeat IPC: 0.799558 cumulative IPC: 0.799507 (Simulation time: 0 hr 6 min 0 sec) 
Heartbeat CPU 0 instructions: 150000000 cycles: 135562452 heartbeat IPC: 0.802872 cumulative IPC: 0.800178 (Simulation time: 0 hr 6 min 29 sec) 
Heartbeat CPU 0 instructions: 160000000 cycles: 148055001 heartbeat IPC: 0.800477 cumulative IPC: 0.800228 (Simulation time: 0 hr 6 min 58 sec) 
Heartbeat CPU 0 instructions: 170000001 cycles: 160556780 heartbeat IPC: 0.799886 cumulative IPC: 0.800179 (Simulation time: 0 hr 7 min 28 sec) 
Heartbeat CPU 0 instructions: 180000000 cycles: 173062751 heartbeat IPC: 0.799618 cumulative IPC: 0.800109 (Simulation time: 0 hr 7 min 57 sec) 
Heartbeat CPU 0 instructions: 190000000 cycles: 185579114 heartbeat IPC: 0.798954 cumulative IPC: 0.79998 (Simulation time: 0 hr 8 min 26 sec) 
Heartbeat CPU 0 instructions: 200000000 cycles: 198068237 heartbeat IPC: 0.800697 cumulative IPC: 0.800052 (Simulation time: 0 hr 8 min 55 sec) 
Heartbeat CPU 0 instructions: 210000002 cycles: 210608438 heartbeat IPC: 0.797436 cumulative IPC: 0.799813 (Simulation time: 0 hr 9 min 24 sec) 
Heartbeat CPU 0 instructions: 220000000 cycles: 223143020 heartbeat IPC: 0.797793 cumulative IPC: 0.799645 (Simulation time: 0 hr 9 min 54 sec) 
Heartbeat CPU 0 instructions: 230000002 cycles: 235645321 heartbeat IPC: 0.799853 cumulative IPC: 0.799661 (Simulation time: 0 hr 10 min 23 sec) 
Heartbeat CPU 0 instructions: 240000000 cycles: 248842634 heartbeat IPC: 0.75773 cumulative IPC: 0.796512 (Simulation time: 0 hr 10 min 52 sec) 
Heartbeat CPU 0 instructions: 250000002 cycles: 266107928 heartbeat IPC: 0.579197 cumulative IPC: 0.777075 (Simulation time: 0 hr 11 min 24 sec) 
Heartbeat CPU 0 instructions: 260000000 cycles: 283262251 heartbeat IPC: 0.582943 cumulative IPC: 0.761231 (Simulation time: 0 hr 11 min 56 sec) 
Heartbeat CPU 0 instructions: 270000000 cycles: 300466429 heartbeat IPC: 0.581254 cumulative IPC: 0.747614 (Simulation time: 0 hr 12 min 28 sec) 
Heartbeat CPU 0 instructions: 280000000 cycles: 317635917 heartbeat IPC: 0.582429 cumulative IPC: 0.736017 (Simulation time: 0 hr 12 min 59 sec) 
Heartbeat CPU 0 instructions: 290000000 cycles: 346089337 heartbeat IPC: 0.351452 cumulative IPC: 0.695938 (Simulation time: 0 hr 13 min 39 sec) 
Heartbeat CPU 0 instructions: 300000000 cycles: 382990381 heartbeat IPC: 0.270995 cumulative IPC: 0.64534 (Simulation time: 0 hr 14 min 24 sec) 
Heartbeat CPU 0 instructions: 310000000 cycles: 399566181 heartbeat IPC: 0.603289 cumulative IPC: 0.643205 (Simulation time: 0 hr 14 min 55 sec) 
Heartbeat CPU 0 instructions: 320000000 cycles: 416082391 heartbeat IPC: 0.605466 cumulative IPC: 0.641388 (Simulation time: 0 hr 15 min 26 sec) 
Heartbeat CPU 0 instructions: 330000003 cycles: 432642170 heartbeat IPC: 0.603873 cumulative IPC: 0.63966 (Simulation time: 0 hr 15 min 57 sec) 
Heartbeat CPU 0 instructions: 340000000 cycles: 449176002 heartbeat IPC: 0.60482 cumulative IPC: 0.638129 (Simulation time: 0 hr 16 min 28 sec) 
Heartbeat CPU 0 instructions: 350000001 cycles: 463931855 heartbeat IPC: 0.677697 cumulative IPC: 0.639623 (Simulation time: 0 hr 16 min 57 sec) 
Heartbeat CPU 0 instructions: 360000000 cycles: 475853409 heartbeat IPC: 0.838817 cumulative IPC: 0.645518 (Simulation time: 0 hr 17 min 24 sec) 
Heartbeat CPU 0 instructions: 370000002 cycles: 487572192 heartbeat IPC: 0.853331 cumulative IPC: 0.651394 (Simulation time: 0 hr 17 min 51 sec) 
Heartbeat CPU 0 instructions: 380000000 cycles: 499458071 heartbeat IPC: 0.841334 cumulative IPC: 0.656689 (Simulation time: 0 hr 18 min 18 sec) 
Heartbeat CPU 0 instructions: 390000003 cycles: 512817920 heartbeat IPC: 0.748512 cumulative IPC: 0.659478 (Simulation time: 0 hr 18 min 46 sec) 
Heartbeat CPU 0 instructions: 400000000 cycles: 525105055 heartbeat IPC: 0.813859 cumulative IPC: 0.663675 (Simulation time: 0 hr 19 min 13 sec) 
Heartbeat CPU 0 instructions: 410000003 cycles: 537098678 heartbeat IPC: 0.833777 cumulative IPC: 0.668071 (Simulation time: 0 hr 19 min 41 sec) 
Heartbeat CPU 0 instructions: 420000000 cycles: 549949892 heartbeat IPC: 0.778136 cumulative IPC: 0.671037 (Simulation time: 0 hr 20 min 9 sec) 
Heartbeat CPU 0 instructions: 430000003 cycles: 568478665 heartbeat IPC: 0.539701 cumulative IPC: 0.666125 (Simulation time: 0 hr 20 min 34 sec) 
Heartbeat CPU 0 instructions: 440000000 cycles: 586999937 heartbeat IPC: 0.53992 cumulative IPC: 0.661577 (Simulation time: 0 hr 20 min 59 sec) 
Heartbeat CPU 0 instructions: 450000003 cycles: 605550907 heartbeat IPC: 0.539056 cumulative IPC: 0.657308 (Simulation time: 0 hr 21 min 24 sec) 
Heartbeat CPU 0 instructions: 460000000 cycles: 624073079 heartbeat IPC: 0.539893 cumulative IPC: 0.653361 (Simulation time: 0 hr 21 min 49 sec) 
Heartbeat CPU 0 instructions: 470000003 cycles: 642604362 heartbeat IPC: 0.539628 cumulative IPC: 0.649661 (Simulation time: 0 hr 22 min 14 sec) 
Heartbeat CPU 0 instructions: 480000000 cycles: 661128260 heartbeat IPC: 0.539843 cumulative IPC: 0.646201 (Simulation time: 0 hr 22 min 39 sec) 
Heartbeat CPU 0 instructions: 490000003 cycles: 679683227 heartbeat IPC: 0.538939 cumulative IPC: 0.64292 (Simulation time: 0 hr 23 min 4 sec) 
Heartbeat CPU 0 instructions: 500000000 cycles: 698195221 heartbeat IPC: 0.54019 cumulative IPC: 0.639878 (Simulation time: 0 hr 23 min 28 sec) 
Heartbeat CPU 0 instructions: 510000003 cycles: 716733139 heartbeat IPC: 0.539435 cumulative IPC: 0.636985 (Simulation time: 0 hr 23 min 53 sec) 
Heartbeat CPU 0 instructions: 520000000 cycles: 735251645 heartbeat IPC: 0.54 cumulative IPC: 0.634273 (Simulation time: 0 hr 24 min 18 sec) 
Heartbeat CPU 0 instructions: 530000001 cycles: 753806708 heartbeat IPC: 0.538936 cumulative IPC: 0.631674 (Simulation time: 0 hr 24 min 43 sec) 
Heartbeat CPU 0 instructions: 540000000 cycles: 772281105 heartbeat IPC: 0.54129 cumulative IPC: 0.629286 (Simulation time: 0 hr 25 min 8 sec) 
Heartbeat CPU 0 instructions: 550000001 cycles: 790747074 heartbeat IPC: 0.541537 cumulative IPC: 0.627029 (Simulation time: 0 hr 25 min 33 sec) 
Heartbeat CPU 0 instructions: 560000000 cycles: 809237667 heartbeat IPC: 0.540815 cumulative IPC: 0.624863 (Simulation time: 0 hr 25 min 58 sec) 
Heartbeat CPU 0 instructions: 570000001 cycles: 827703007 heartbeat IPC: 0.541555 cumulative IPC: 0.622825 (Simulation time: 0 hr 26 min 23 sec) 
Heartbeat CPU 0 instructions: 580000000 cycles: 846120546 heartbeat IPC: 0.542961 cumulative IPC: 0.620922 (Simulation time: 0 hr 26 min 48 sec) 
Heartbeat CPU 0 instructions: 590000001 cycles: 864608946 heartbeat IPC: 0.54088 cumulative IPC: 0.619052 (Simulation time: 0 hr 27 min 13 sec) 
Heartbeat CPU 0 instructions: 600000000 cycles: 883093655 heartbeat IPC: 0.540988 cumulative IPC: 0.617271 (Simulation time: 0 hr 27 min 38 sec) 
Finished CPU 0 instructions: 500000002 cycles: 810017318 cumulative IPC: 0.617271 (Simulation time: 0 hr 27 min 38 sec) 

CPU 0 Branch Prediction Accuracy: 99.5931% MPKI: 0.08288
Number of Branches: 10184133 Number of Mispredictions: 41440
Number of LOAD Instructions: 261155957
Number of LOAD Instructions (ROI): 261155957
Number of STORE Instructions: 57884062
Number of STORE Instructions (ROI): 57884062
Total Destination Memory Operands: 83293336
Total Destination Memory Operands (ROI): 83293336
Total Source Memory Operands: 261155957
Total Source Memory Operands (ROI): 261155957
Number of DEPENDED LOADS: 22257043
Number of DEPENDED LOADS (ROI): 22257043
Number of SQ_ADDED: 83293300
Number of SQ_ADDED (ROI): 83293300
Number of LQ_ADDED: 1777520815
Number of LQ_ADDED (ROI): 1777520815
Number of Instructions read from trace: 600000257

ChampSim completed all CPUs

Region of Interest Statistics

CPU 0 cumulative IPC: 0.617271 instructions: 500000002 cycles: 810017318
ITLB TOTAL     ACCESS:   94660411  HIT:   94660373  MISS:         38
ITLB LOAD      ACCESS:   94660411  HIT:   94660373  MISS:         38
ITLB RFO       ACCESS:          0  HIT:          0  MISS:          0
ITLB PREFETCH  ACCESS:          0  HIT:          0  MISS:          0
ITLB WRITEBACK ACCESS:          0  HIT:          0  MISS:          0
ITLB PREFETCH  REQUESTED:          0  ISSUED:          0  USEFUL:          0  USELESS:          0
ITLB TOTAL MSHR MERGED:         93
ITLB LOAD MSHR MERGED:         93
ITLB RFO MSHR MERGED:          0
ITLB PREFETCH MSHR MERGED:          0
ITLB WRITEBACK MSHR MERGED:          0
ITLB TOTAL ACCESSES:   94660504 HITS:   94660373 MISSES:        131
ITLB LOAD ACCESSES:   94660504 HITS:   94660373 MISSES:        131
ITLB RFO ACCESSES:          0 HITS:          0 MISSES:          0
ITLB PREFETCH ACCESSES:          0 HITS:          0 MISSES:          0
ITLB WRITEBACK ACCESSES:          0 HITS:          0 MISSES:          0
ITLB RQ ACCESS:  500000001
ITLB RQ TO_CACHE:   94660505
ITLB RQ MERGED:  405339496
ITLB RQ FORWARD:          0
ITLB WQ ACCESS:          0
ITLB WQ TO_CACHE:          0
ITLB WQ MERGED:          0
ITLB WQ FORWARD:          0
DTLB TOTAL     ACCESS:  149171254  HIT:  148574294  MISS:     596960
DTLB LOAD      ACCESS:  107297290  HIT:  106700341  MISS:     596949
DTLB RFO       ACCESS:   41873964  HIT:   41873953  MISS:         11
DTLB PREFETCH  ACCESS:          0  HIT:          0  MISS:          0
DTLB WRITEBACK ACCESS:          0  HIT:          0  MISS:          0
DTLB PREFETCH  REQUESTED:          0  ISSUED:          0  USEFUL:          0  USELESS:          0
DTLB TOTAL MSHR MERGED:     134038
DTLB LOAD MSHR MERGED:     134038
DTLB RFO MSHR MERGED:          0
DTLB PREFETCH MSHR MERGED:          0
DTLB WRITEBACK MSHR MERGED:          0
DTLB TOTAL ACCESSES:  149305292 HITS:  148574294 MISSES:     730998
DTLB LOAD ACCESSES:  107431328 HITS:  106700341 MISSES:     730987
DTLB RFO ACCESSES:   41873964 HITS:   41873953 MISSES:         11
DTLB PREFETCH ACCESSES:          0 HITS:          0 MISSES:          0
DTLB WRITEBACK ACCESSES:          0 HITS:          0 MISSES:          0
DTLB RQ ACCESS:  259758851
DTLB RQ TO_CACHE:  149305292
DTLB RQ MERGED:  110453559
DTLB RQ FORWARD:          0
DTLB WQ ACCESS:          0
DTLB WQ TO_CACHE:          0
DTLB WQ MERGED:          0
DTLB WQ FORWARD:          0
L1D TOTAL     ACCESS:  261028704  HIT:  245631235  MISS:   15397469
L1D LOAD      ACCESS:  118062753  HIT:  112560330  MISS:    5502423
L1D RFO       ACCESS:   68946893  HIT:   68932484  MISS:      14409
L1D PREFETCH  ACCESS:   74019058  HIT:   64138421  MISS:    9880637
L1D WRITEBACK ACCESS:          0  HIT:          0  MISS:          0
L1D PREFETCH  REQUESTED:  120652203  ISSUED:  119074860  USEFUL:    8010186  USELESS:    1870473
L1D TOTAL MSHR MERGED:   16520908
L1D LOAD MSHR MERGED:    5001525
L1D RFO MSHR MERGED:      21680
L1D PREFETCH MSHR MERGED:   11497703
L1D WRITEBACK MSHR MERGED:          0
L1D TOTAL ACCESSES:  277659729 HITS:  245741352 MISSES:   31918377
L1D LOAD ACCESSES:  120659727 HITS:  112567854 MISSES:    8091873
L1D RFO ACCESSES:   68968572 HITS:   68932484 MISSES:      36088
L1D PREFETCH ACCESSES:   88031430 HITS:   64241014 MISSES:   23790416
L1D WRITEBACK ACCESSES:          0 HITS:          0 MISSES:          0
L1D RQ ACCESS:  190684535
L1D RQ TO_CACHE:  120652203
L1D RQ MERGED:   70024808
L1D RQ FORWARD:          0
L1D WQ ACCESS:   69074336
L1D WQ TO_CACHE:   68968574
L1D WQ MERGED:     105762
L1D WQ FORWARD:     110117
L1I TOTAL     ACCESS:  121575321  HIT:  121574248  MISS:       1073
L1I LOAD      ACCESS:  121575321  HIT:  121574248  MISS:       1073
L1I RFO       ACCESS:          0  HIT:          0  MISS:          0
L1I PREFETCH  ACCESS:          0  HIT:          0  MISS:          0
L1I WRITEBACK ACCESS:          0  HIT:          0  MISS:          0
L1I PREFETCH  REQUESTED:          0  ISSUED:          0  USEFUL:          0  USELESS:          0
L1I TOTAL MSHR MERGED:       1118
L1I LOAD MSHR MERGED:       1118
L1I RFO MSHR MERGED:          0
L1I PREFETCH MSHR MERGED:          0
L1I WRITEBACK MSHR MERGED:          0
L1I TOTAL ACCESSES:  121576439 HITS:  121574248 MISSES:       2191
L1I LOAD ACCESSES:  121576439 HITS:  121574248 MISSES:       2191
L1I RFO ACCESSES:          0 HITS:          0 MISSES:          0
L1I PREFETCH ACCESSES:          0 HITS:          0 MISSES:          0
L1I WRITEBACK ACCESSES:          0 HITS:          0 MISSES:          0
L1I RQ ACCESS:  500000000
L1I RQ TO_CACHE:  121576439
L1I RQ MERGED:  378423561
L1I RQ FORWARD:          0
L1I WQ ACCESS:          0
L1I WQ TO_CACHE:          0
L1I WQ MERGED:          0
L1I WQ FORWARD:          0
L2C TOTAL     ACCESS:   22469885  HIT:    9151553  MISS:   13318332
L2C LOAD      ACCESS:    3091391  HIT:     416575  MISS:    2674816
L2C RFO       ACCESS:      14408  HIT:      13994  MISS:        414
L2C PREFETCH  ACCESS:   12734141  HIT:    2092837  MISS:   10641304
L2C WRITEBACK ACCESS:    6629945  HIT:    6628147  MISS:       1798
L2C PREFETCH  REQUESTED:     695016  ISSUED:     695016  USEFUL:     185978  USELESS:   10456124
L2C TOTAL MSHR MERGED:      72123
L2C LOAD MSHR MERGED:      22534
L2C RFO MSHR MERGED:          0
L2C PREFETCH MSHR MERGED:      49589
L2C WRITEBACK MSHR MERGED:          0
L2C TOTAL ACCESSES:   22683204 HITS:    9151592 MISSES:   13531612
L2C LOAD ACCESSES:    3091421 HITS:     416605 MISSES:    2674816
L2C RFO ACCESSES:      14408 HITS:      13994 MISSES:        414
L2C PREFETCH ACCESSES:   12947430 HITS:    2092846 MISSES:   10854584
L2C WRITEBACK ACCESSES:    6629945 HITS:    6628147 MISSES:       1798
L2C RQ ACCESS:    3105829
L2C RQ TO_CACHE:    3105799
L2C RQ MERGED:          0
L2C RQ FORWARD:          0
L2C WQ ACCESS:    6629945
L2C WQ TO_CACHE:    6629945
L2C WQ MERGED:          0
L2C WQ FORWARD:         39
LLC TOTAL     ACCESS:   20026083  HIT:    1954454  MISS:   18071629
LLC LOAD      ACCESS:    2652282  HIT:     403400  MISS:    2248882
LLC RFO       ACCESS:        414  HIT:         18  MISS:        396
LLC PREFETCH  ACCESS:   10782163  HIT:     115711  MISS:   10666452
LLC WRITEBACK ACCESS:    6591224  HIT:    1435325  MISS:    5155899
LLC PREFETCH  REQUESTED:          0  ISSUED:          0  USEFUL:      46445  USELESS:   10621047
LLC TOTAL MSHR MERGED:      21478
LLC LOAD MSHR MERGED:       9937
LLC RFO MSHR MERGED:          0
LLC PREFETCH MSHR MERGED:      11541
LLC WRITEBACK MSHR MERGED:          0
LLC TOTAL ACCESSES:   20047562 HITS:    1954454 MISSES:   18093108
LLC LOAD ACCESSES:    2652282 HITS:     403400 MISSES:    2248882
LLC RFO ACCESSES:        414 HITS:         18 MISSES:        396
LLC PREFETCH ACCESSES:   10803642 HITS:     115711 MISSES:   10687931
LLC WRITEBACK ACCESSES:    6591224 HITS:    1435325 MISSES:    5155899
LLC 0 RQ ACCESS:    2652696
LLC 0 RQ TO_CACHE:    2652696
LLC 0 RQ MERGED:          0
LLC 0 RQ FORWARD:          0
LLC WQ ACCESS:    6591225
LLC WQ TO_CACHE:    6591225
LLC WQ MERGED:          0
LLC WQ FORWARD:          0
Major fault: 0 Minor fault: 183991
CPU 0 L1D next line prefetcher final stats
CPU 0 L2C PC-based stride prefetcher final stats
All Misses: 20945029
All Hits: 2012100
SD Algo Stats - Switches: 0 SRR-Repls: 2314147 BRR-Repls: 0

DRAM Statistics
 CHANNEL 0
 RQ ROW_BUFFER_HIT:    7176235  ROW_BUFFER_MISS:    5739496
 DBUS_CONGESTED:   11437350
 WQ ROW_BUFFER_HIT:    1178797  ROW_BUFFER_MISS:    5408519  FULL:          0

 AVG_CONGESTED_CYCLE: 13
LOADS RETIRED: 204440772
INSTR RETIRED: 500000000
