
*** ChampSim Multicore Out-of-Order Simulator ***

Warmup Instructions: 100000000
Simulation Instructions: 500000000
Number of CPUs: 1
LLC sets: 2048
LLC ways: 16
Clean RRIP Policies: 2113230221132302 Dirty RRIP Policies: 2103130221031302 PSEL Width: 10 Track Set: 4294967295 PSEL Mask: 1 Demote Mask: 4040100040401000DS Algo: 0Window size: 0
Off-chip DRAM Size: 4096 MB Channels: 1 Width: 64-bit Data Rate: 1600 MT/s

CPU 0 runs /mnt/beegfs/iconst01/spec2017/Parest.trace.gz
NOT SORTED
TRACE STRING: /mnt/beegfs/iconst01/spec2017/Parest.trace.gz
SORTED
TRACE STRING: /mnt/beegfs/iconst01/spec2017/Parest.trace.gz
INITIAL
TRACE STRING: /mnt/beegfs/iconst01/spec2017/Parest.trace.gz

champsim_seed used: 623

CPU 0 L1D next line prefetcher
CPU 0 L2C IP-based stride prefetcher
Initialize DRRIP state
Assign rand_sets[0]: 454  LLC: 2048
rand_sets[0]: 454
Assign rand_sets[1]: 1662  LLC: 2048
rand_sets[1]: 1662
Assign rand_sets[2]: 1921  LLC: 2048
rand_sets[2]: 1921
Assign rand_sets[3]: 1131  LLC: 2048
rand_sets[3]: 1131
Assign rand_sets[4]: 331  LLC: 2048
rand_sets[4]: 331
Assign rand_sets[5]: 1531  LLC: 2048
rand_sets[5]: 1531
Assign rand_sets[6]: 482  LLC: 2048
rand_sets[6]: 482
Assign rand_sets[7]: 1275  LLC: 2048
rand_sets[7]: 1275
Assign rand_sets[8]: 1876  LLC: 2048
rand_sets[8]: 1876
Assign rand_sets[9]: 2038  LLC: 2048
rand_sets[9]: 2038
Assign rand_sets[10]: 701  LLC: 2048
rand_sets[10]: 701
Assign rand_sets[11]: 479  LLC: 2048
rand_sets[11]: 479
Assign rand_sets[12]: 892  LLC: 2048
rand_sets[12]: 892
Assign rand_sets[13]: 1820  LLC: 2048
rand_sets[13]: 1820
Assign rand_sets[14]: 1505  LLC: 2048
rand_sets[14]: 1505
Assign rand_sets[15]: 1159  LLC: 2048
rand_sets[15]: 1159
Assign rand_sets[16]: 513  LLC: 2048
rand_sets[16]: 513
Assign rand_sets[17]: 703  LLC: 2048
rand_sets[17]: 703
Assign rand_sets[18]: 561  LLC: 2048
rand_sets[18]: 561
Assign rand_sets[19]: 990  LLC: 2048
rand_sets[19]: 990
Assign rand_sets[20]: 342  LLC: 2048
rand_sets[20]: 342
Assign rand_sets[21]: 882  LLC: 2048
rand_sets[21]: 882
Assign rand_sets[22]: 15  LLC: 2048
rand_sets[22]: 15
Assign rand_sets[23]: 71  LLC: 2048
rand_sets[23]: 71
Assign rand_sets[24]: 1127  LLC: 2048
rand_sets[24]: 1127
Assign rand_sets[25]: 1382  LLC: 2048
rand_sets[25]: 1382
Assign rand_sets[26]: 647  LLC: 2048
rand_sets[26]: 647
Assign rand_sets[27]: 857  LLC: 2048
rand_sets[27]: 857
Assign rand_sets[28]: 1450  LLC: 2048
rand_sets[28]: 1450
Assign rand_sets[29]: 1160  LLC: 2048
rand_sets[29]: 1160
Assign rand_sets[30]: 1852  LLC: 2048
rand_sets[30]: 1852
Assign rand_sets[31]: 1881  LLC: 2048
rand_sets[31]: 1881
Assign rand_sets[32]: 1770  LLC: 2048
rand_sets[32]: 1770
Assign rand_sets[33]: 1622  LLC: 2048
rand_sets[33]: 1622
Assign rand_sets[34]: 275  LLC: 2048
rand_sets[34]: 275
Assign rand_sets[35]: 635  LLC: 2048
rand_sets[35]: 635
Assign rand_sets[36]: 466  LLC: 2048
rand_sets[36]: 466
Assign rand_sets[37]: 1413  LLC: 2048
rand_sets[37]: 1413
Assign rand_sets[38]: 417  LLC: 2048
rand_sets[38]: 417
Assign rand_sets[39]: 472  LLC: 2048
rand_sets[39]: 472
Assign rand_sets[40]: 1340  LLC: 2048
rand_sets[40]: 1340
Assign rand_sets[41]: 852  LLC: 2048
rand_sets[41]: 852
Assign rand_sets[42]: 1365  LLC: 2048
rand_sets[42]: 1365
Assign rand_sets[43]: 47  LLC: 2048
rand_sets[43]: 47
Assign rand_sets[44]: 823  LLC: 2048
rand_sets[44]: 823
Assign rand_sets[45]: 686  LLC: 2048
rand_sets[45]: 686
Assign rand_sets[46]: 1637  LLC: 2048
rand_sets[46]: 1637
Assign rand_sets[47]: 1115  LLC: 2048
rand_sets[47]: 1115
Assign rand_sets[48]: 986  LLC: 2048
rand_sets[48]: 986
Assign rand_sets[49]: 258  LLC: 2048
rand_sets[49]: 258
Assign rand_sets[50]: 633  LLC: 2048
rand_sets[50]: 633
Assign rand_sets[51]: 920  LLC: 2048
rand_sets[51]: 920
Assign rand_sets[52]: 204  LLC: 2048
rand_sets[52]: 204
Assign rand_sets[53]: 227  LLC: 2048
rand_sets[53]: 227
Assign rand_sets[54]: 1818  LLC: 2048
rand_sets[54]: 1818
Assign rand_sets[55]: 886  LLC: 2048
rand_sets[55]: 886
Assign rand_sets[56]: 1422  LLC: 2048
rand_sets[56]: 1422
Assign rand_sets[57]: 607  LLC: 2048
rand_sets[57]: 607
Assign rand_sets[58]: 217  LLC: 2048
rand_sets[58]: 217
Assign rand_sets[59]: 1945  LLC: 2048
rand_sets[59]: 1945
Assign rand_sets[60]: 143  LLC: 2048
rand_sets[60]: 143
Assign rand_sets[61]: 1311  LLC: 2048
rand_sets[61]: 1311
Assign rand_sets[62]: 319  LLC: 2048
rand_sets[62]: 319
Assign rand_sets[63]: 1846  LLC: 2048
rand_sets[63]: 1846
 CLEAN-RRIP-POLICY-1: 2-1-1-3-2-3-0-2- CLEAN-RRIP-POLICY-2: 2-1-1-3-2-3-0-2-
 DIRTY-RRIP-POLICY-1: 2-1-0-3-1-3-0-2- DIRTY-RRIP-POLICY-2: 2-1-0-3-1-3-0-2-
 PSEL width: 10
Heartbeat CPU 0 instructions: 10000001 cycles: 4387143 heartbeat IPC: 2.27939 cumulative IPC: 2.27939 (Simulation time: 0 hr 0 min 14 sec) 
Heartbeat CPU 0 instructions: 20000000 cycles: 8781333 heartbeat IPC: 2.27573 cumulative IPC: 2.27756 (Simulation time: 0 hr 0 min 29 sec) 
Heartbeat CPU 0 instructions: 30000003 cycles: 13213269 heartbeat IPC: 2.25635 cumulative IPC: 2.27045 (Simulation time: 0 hr 0 min 44 sec) 
Heartbeat CPU 0 instructions: 40000000 cycles: 17643877 heartbeat IPC: 2.25703 cumulative IPC: 2.26708 (Simulation time: 0 hr 0 min 58 sec) 
Heartbeat CPU 0 instructions: 50000000 cycles: 22052152 heartbeat IPC: 2.26846 cumulative IPC: 2.26735 (Simulation time: 0 hr 1 min 12 sec) 
Heartbeat CPU 0 instructions: 60000000 cycles: 26457918 heartbeat IPC: 2.26975 cumulative IPC: 2.26775 (Simulation time: 0 hr 1 min 26 sec) 
Heartbeat CPU 0 instructions: 70000000 cycles: 30858835 heartbeat IPC: 2.27225 cumulative IPC: 2.26839 (Simulation time: 0 hr 1 min 40 sec) 
Heartbeat CPU 0 instructions: 80000000 cycles: 35254446 heartbeat IPC: 2.275 cumulative IPC: 2.26922 (Simulation time: 0 hr 1 min 55 sec) 
Heartbeat CPU 0 instructions: 90000000 cycles: 39648744 heartbeat IPC: 2.27568 cumulative IPC: 2.26993 (Simulation time: 0 hr 2 min 10 sec) 
Heartbeat CPU 0 instructions: 100000000 cycles: 44046083 heartbeat IPC: 2.2741 cumulative IPC: 2.27035 (Simulation time: 0 hr 2 min 24 sec) 

Warmup complete CPU 0 instructions: 100000002 cycles: 44046093 (Simulation time: 0 hr 2 min 24 sec) 

Heartbeat CPU 0 instructions: 110000000 cycles: 54011395 heartbeat IPC: 1.00348 cumulative IPC: 1.00348 (Simulation time: 0 hr 2 min 43 sec) 
Heartbeat CPU 0 instructions: 120000000 cycles: 62993074 heartbeat IPC: 1.11338 cumulative IPC: 1.05558 (Simulation time: 0 hr 3 min 1 sec) 
Heartbeat CPU 0 instructions: 130000000 cycles: 72014494 heartbeat IPC: 1.10847 cumulative IPC: 1.07264 (Simulation time: 0 hr 3 min 19 sec) 
Heartbeat CPU 0 instructions: 140000000 cycles: 81172557 heartbeat IPC: 1.09193 cumulative IPC: 1.0774 (Simulation time: 0 hr 3 min 37 sec) 
Heartbeat CPU 0 instructions: 150000000 cycles: 92272141 heartbeat IPC: 0.900935 cumulative IPC: 1.03678 (Simulation time: 0 hr 3 min 56 sec) 
Heartbeat CPU 0 instructions: 160000000 cycles: 102362973 heartbeat IPC: 0.990999 cumulative IPC: 1.02886 (Simulation time: 0 hr 4 min 14 sec) 
Heartbeat CPU 0 instructions: 170000000 cycles: 112207314 heartbeat IPC: 1.01581 cumulative IPC: 1.02698 (Simulation time: 0 hr 4 min 33 sec) 
Heartbeat CPU 0 instructions: 180000000 cycles: 121873451 heartbeat IPC: 1.03454 cumulative IPC: 1.02792 (Simulation time: 0 hr 4 min 51 sec) 
Heartbeat CPU 0 instructions: 190000002 cycles: 131653284 heartbeat IPC: 1.02251 cumulative IPC: 1.02731 (Simulation time: 0 hr 5 min 9 sec) 
Heartbeat CPU 0 instructions: 200000000 cycles: 140886173 heartbeat IPC: 1.08308 cumulative IPC: 1.03263 (Simulation time: 0 hr 5 min 27 sec) 
Heartbeat CPU 0 instructions: 210000000 cycles: 150520505 heartbeat IPC: 1.03795 cumulative IPC: 1.03311 (Simulation time: 0 hr 5 min 46 sec) 
Heartbeat CPU 0 instructions: 220000000 cycles: 159448880 heartbeat IPC: 1.12002 cumulative IPC: 1.03984 (Simulation time: 0 hr 6 min 4 sec) 
Heartbeat CPU 0 instructions: 230000001 cycles: 171584910 heartbeat IPC: 0.823993 cumulative IPC: 1.0193 (Simulation time: 0 hr 6 min 24 sec) 
Heartbeat CPU 0 instructions: 240000000 cycles: 182070400 heartbeat IPC: 0.953699 cumulative IPC: 1.01431 (Simulation time: 0 hr 6 min 42 sec) 
Heartbeat CPU 0 instructions: 250000002 cycles: 191934602 heartbeat IPC: 1.01377 cumulative IPC: 1.01428 (Simulation time: 0 hr 7 min 1 sec) 
Heartbeat CPU 0 instructions: 260000000 cycles: 201518718 heartbeat IPC: 1.04339 cumulative IPC: 1.01605 (Simulation time: 0 hr 7 min 19 sec) 
Heartbeat CPU 0 instructions: 270000001 cycles: 210914255 heartbeat IPC: 1.06434 cumulative IPC: 1.01877 (Simulation time: 0 hr 7 min 37 sec) 
Heartbeat CPU 0 instructions: 280000000 cycles: 220614438 heartbeat IPC: 1.03091 cumulative IPC: 1.01944 (Simulation time: 0 hr 7 min 55 sec) 
Heartbeat CPU 0 instructions: 290000002 cycles: 229677241 heartbeat IPC: 1.10341 cumulative IPC: 1.02354 (Simulation time: 0 hr 8 min 13 sec) 
Heartbeat CPU 0 instructions: 300000000 cycles: 239217444 heartbeat IPC: 1.0482 cumulative IPC: 1.02474 (Simulation time: 0 hr 8 min 31 sec) 
Heartbeat CPU 0 instructions: 310000000 cycles: 248218274 heartbeat IPC: 1.11101 cumulative IPC: 1.02854 (Simulation time: 0 hr 8 min 50 sec) 
Heartbeat CPU 0 instructions: 320000000 cycles: 257333422 heartbeat IPC: 1.09707 cumulative IPC: 1.03147 (Simulation time: 0 hr 9 min 8 sec) 
Heartbeat CPU 0 instructions: 330000003 cycles: 266615880 heartbeat IPC: 1.0773 cumulative IPC: 1.03338 (Simulation time: 0 hr 9 min 26 sec) 
Heartbeat CPU 0 instructions: 340000000 cycles: 276538291 heartbeat IPC: 1.00782 cumulative IPC: 1.03229 (Simulation time: 0 hr 9 min 45 sec) 
Heartbeat CPU 0 instructions: 350000000 cycles: 286877859 heartbeat IPC: 0.967158 cumulative IPC: 1.02952 (Simulation time: 0 hr 10 min 3 sec) 
Heartbeat CPU 0 instructions: 360000000 cycles: 296666808 heartbeat IPC: 1.02156 cumulative IPC: 1.02921 (Simulation time: 0 hr 10 min 21 sec) 
Heartbeat CPU 0 instructions: 370000000 cycles: 306177960 heartbeat IPC: 1.0514 cumulative IPC: 1.03002 (Simulation time: 0 hr 10 min 39 sec) 
Heartbeat CPU 0 instructions: 380000000 cycles: 315506942 heartbeat IPC: 1.07193 cumulative IPC: 1.03146 (Simulation time: 0 hr 10 min 57 sec) 
Heartbeat CPU 0 instructions: 390000002 cycles: 324595972 heartbeat IPC: 1.10023 cumulative IPC: 1.03368 (Simulation time: 0 hr 11 min 15 sec) 
Heartbeat CPU 0 instructions: 400000000 cycles: 334116733 heartbeat IPC: 1.05034 cumulative IPC: 1.03423 (Simulation time: 0 hr 11 min 34 sec) 
Heartbeat CPU 0 instructions: 410000000 cycles: 343000234 heartbeat IPC: 1.12568 cumulative IPC: 1.03695 (Simulation time: 0 hr 11 min 52 sec) 
Heartbeat CPU 0 instructions: 420000000 cycles: 353802428 heartbeat IPC: 0.925738 cumulative IPC: 1.03307 (Simulation time: 0 hr 12 min 11 sec) 
Heartbeat CPU 0 instructions: 430000000 cycles: 364669559 heartbeat IPC: 0.920206 cumulative IPC: 1.02924 (Simulation time: 0 hr 12 min 29 sec) 
Heartbeat CPU 0 instructions: 440000000 cycles: 374550577 heartbeat IPC: 1.01204 cumulative IPC: 1.02873 (Simulation time: 0 hr 12 min 48 sec) 
Heartbeat CPU 0 instructions: 450000000 cycles: 384311282 heartbeat IPC: 1.02452 cumulative IPC: 1.02861 (Simulation time: 0 hr 13 min 6 sec) 
Heartbeat CPU 0 instructions: 460000000 cycles: 394000514 heartbeat IPC: 1.03207 cumulative IPC: 1.02871 (Simulation time: 0 hr 13 min 24 sec) 
Heartbeat CPU 0 instructions: 470000001 cycles: 403741773 heartbeat IPC: 1.02656 cumulative IPC: 1.02865 (Simulation time: 0 hr 13 min 42 sec) 
Heartbeat CPU 0 instructions: 480000000 cycles: 412913481 heartbeat IPC: 1.09031 cumulative IPC: 1.03018 (Simulation time: 0 hr 14 min 0 sec) 
Heartbeat CPU 0 instructions: 490000002 cycles: 422597650 heartbeat IPC: 1.03261 cumulative IPC: 1.03024 (Simulation time: 0 hr 14 min 18 sec) 
Heartbeat CPU 0 instructions: 500000000 cycles: 431867434 heartbeat IPC: 1.07877 cumulative IPC: 1.0314 (Simulation time: 0 hr 14 min 37 sec) 
Heartbeat CPU 0 instructions: 510000000 cycles: 440951753 heartbeat IPC: 1.1008 cumulative IPC: 1.03299 (Simulation time: 0 hr 14 min 55 sec) 
Heartbeat CPU 0 instructions: 520000000 cycles: 450320733 heartbeat IPC: 1.06735 cumulative IPC: 1.03378 (Simulation time: 0 hr 15 min 13 sec) 
Heartbeat CPU 0 instructions: 530000001 cycles: 460475120 heartbeat IPC: 0.984796 cumulative IPC: 1.03259 (Simulation time: 0 hr 15 min 32 sec) 
Heartbeat CPU 0 instructions: 540000000 cycles: 470994173 heartbeat IPC: 0.950656 cumulative IPC: 1.03057 (Simulation time: 0 hr 15 min 50 sec) 
Heartbeat CPU 0 instructions: 550000003 cycles: 480971460 heartbeat IPC: 1.00228 cumulative IPC: 1.02992 (Simulation time: 0 hr 16 min 8 sec) 
Heartbeat CPU 0 instructions: 560000000 cycles: 490675668 heartbeat IPC: 1.03048 cumulative IPC: 1.02994 (Simulation time: 0 hr 16 min 26 sec) 
Heartbeat CPU 0 instructions: 570000002 cycles: 500187094 heartbeat IPC: 1.05137 cumulative IPC: 1.03038 (Simulation time: 0 hr 16 min 44 sec) 
Heartbeat CPU 0 instructions: 580000000 cycles: 509468524 heartbeat IPC: 1.07742 cumulative IPC: 1.03132 (Simulation time: 0 hr 17 min 2 sec) 
Heartbeat CPU 0 instructions: 590000001 cycles: 519103332 heartbeat IPC: 1.0379 cumulative IPC: 1.03145 (Simulation time: 0 hr 17 min 20 sec) 
Heartbeat CPU 0 instructions: 600000000 cycles: 528268086 heartbeat IPC: 1.09114 cumulative IPC: 1.03258 (Simulation time: 0 hr 17 min 38 sec) 
Finished CPU 0 instructions: 500000000 cycles: 484222007 cumulative IPC: 1.03258 (Simulation time: 0 hr 17 min 38 sec) 

CPU 0 Branch Prediction Accuracy: 97.8526% MPKI: 2.66709
Number of Branches: 62099103 Number of Mispredictions: 1333545
Number of LOAD Instructions: 210576465
Number of LOAD Instructions (ROI): 210576465
Number of STORE Instructions: 16915507
Number of STORE Instructions (ROI): 16915507
Total Destination Memory Operands: 16918869
Total Destination Memory Operands (ROI): 16918869
Total Source Memory Operands: 210576465
Total Source Memory Operands (ROI): 210576465
Number of DEPENDED LOADS: 344944
Number of DEPENDED LOADS (ROI): 344944
Number of SQ_ADDED: 16918826
Number of SQ_ADDED (ROI): 16918826
Number of LQ_ADDED: 210605580
Number of LQ_ADDED (ROI): 210605580
Number of Instructions read from trace: 600000257

ChampSim completed all CPUs

Region of Interest Statistics

CPU 0 cumulative IPC: 1.03258 instructions: 500000000 cycles: 484222007
ITLB TOTAL     ACCESS:   76354121  HIT:   76354083  MISS:         38
ITLB LOAD      ACCESS:   76354121  HIT:   76354083  MISS:         38
ITLB RFO       ACCESS:          0  HIT:          0  MISS:          0
ITLB PREFETCH  ACCESS:          0  HIT:          0  MISS:          0
ITLB WRITEBACK ACCESS:          0  HIT:          0  MISS:          0
ITLB PREFETCH  REQUESTED:          0  ISSUED:          0  USEFUL:          0  USELESS:          0
ITLB TOTAL MSHR MERGED:         37
ITLB LOAD MSHR MERGED:         37
ITLB RFO MSHR MERGED:          0
ITLB PREFETCH MSHR MERGED:          0
ITLB WRITEBACK MSHR MERGED:          0
ITLB TOTAL ACCESSES:   76354158 HITS:   76354083 MISSES:         75
ITLB LOAD ACCESSES:   76354158 HITS:   76354083 MISSES:         75
ITLB RFO ACCESSES:          0 HITS:          0 MISSES:          0
ITLB PREFETCH ACCESSES:          0 HITS:          0 MISSES:          0
ITLB WRITEBACK ACCESSES:          0 HITS:          0 MISSES:          0
ITLB RQ ACCESS:  500000188
ITLB RQ TO_CACHE:   76354159
ITLB RQ MERGED:  423646029
ITLB RQ FORWARD:          0
ITLB WQ ACCESS:          0
ITLB WQ TO_CACHE:          0
ITLB WQ MERGED:          0
ITLB WQ FORWARD:          0
DTLB TOTAL     ACCESS:  136723180  HIT:  136520383  MISS:     202797
DTLB LOAD      ACCESS:  128661172  HIT:  128461096  MISS:     200076
DTLB RFO       ACCESS:    8062008  HIT:    8059287  MISS:       2721
DTLB PREFETCH  ACCESS:          0  HIT:          0  MISS:          0
DTLB WRITEBACK ACCESS:          0  HIT:          0  MISS:          0
DTLB PREFETCH  REQUESTED:          0  ISSUED:          0  USEFUL:          0  USELESS:          0
DTLB TOTAL MSHR MERGED:     448990
DTLB LOAD MSHR MERGED:     445180
DTLB RFO MSHR MERGED:       3810
DTLB PREFETCH MSHR MERGED:          0
DTLB WRITEBACK MSHR MERGED:          0
DTLB TOTAL ACCESSES:  137172170 HITS:  136520383 MISSES:     651787
DTLB LOAD ACCESSES:  129106352 HITS:  128461096 MISSES:     645256
DTLB RFO ACCESSES:    8065818 HITS:    8059287 MISSES:       6531
DTLB PREFETCH ACCESSES:          0 HITS:          0 MISSES:          0
DTLB WRITEBACK ACCESSES:          0 HITS:          0 MISSES:          0
DTLB RQ ACCESS:  189419619
DTLB RQ TO_CACHE:  137172170
DTLB RQ MERGED:   52247449
DTLB RQ FORWARD:          0
DTLB WQ ACCESS:          0
DTLB WQ TO_CACHE:          0
DTLB WQ MERGED:          0
DTLB WQ FORWARD:          0
L1D TOTAL     ACCESS:  125185290  HIT:  107628270  MISS:   17557020
L1D LOAD      ACCESS:   72277054  HIT:   61998811  MISS:   10278243
L1D RFO       ACCESS:   14015483  HIT:   13862650  MISS:     152833
L1D PREFETCH  ACCESS:   38892753  HIT:   31766809  MISS:    7125944
L1D WRITEBACK ACCESS:          0  HIT:          0  MISS:          0
L1D PREFETCH  REQUESTED:   85481104  ISSUED:   84159985  USEFUL:    5866516  USELESS:    1259439
L1D TOTAL MSHR MERGED:   31655329
L1D LOAD MSHR MERGED:   18372175
L1D RFO MSHR MERGED:     265158
L1D PREFETCH MSHR MERGED:   13017996
L1D WRITEBACK MSHR MERGED:          0
L1D TOTAL ACCESSES:  156841118 HITS:  107628770 MISSES:   49212348
L1D LOAD ACCESSES:   85481121 HITS:   61998828 MISSES:   23482293
L1D RFO ACCESSES:   14280613 HITS:   13862650 MISSES:     417963
L1D PREFETCH ACCESSES:   57079384 HITS:   31767292 MISSES:   25312092
L1D WRITEBACK ACCESSES:          0 HITS:          0 MISSES:          0
L1D RQ ACCESS:  175130597
L1D RQ TO_CACHE:   85481104
L1D RQ MERGED:   89649476
L1D RQ FORWARD:          0
L1D WQ ACCESS:   14289037
L1D WQ TO_CACHE:   14280613
L1D WQ MERGED:       8424
L1D WQ FORWARD:        500
L1I TOTAL     ACCESS:   93384389  HIT:   93382593  MISS:       1796
L1I LOAD      ACCESS:   93384389  HIT:   93382593  MISS:       1796
L1I RFO       ACCESS:          0  HIT:          0  MISS:          0
L1I PREFETCH  ACCESS:          0  HIT:          0  MISS:          0
L1I WRITEBACK ACCESS:          0  HIT:          0  MISS:          0
L1I PREFETCH  REQUESTED:          0  ISSUED:          0  USEFUL:          0  USELESS:          0
L1I TOTAL MSHR MERGED:       2341
L1I LOAD MSHR MERGED:       2341
L1I RFO MSHR MERGED:          0
L1I PREFETCH MSHR MERGED:          0
L1I WRITEBACK MSHR MERGED:          0
L1I TOTAL ACCESSES:   93386730 HITS:   93382593 MISSES:       4137
L1I LOAD ACCESSES:   93386730 HITS:   93382593 MISSES:       4137
L1I RFO ACCESSES:          0 HITS:          0 MISSES:          0
L1I PREFETCH ACCESSES:          0 HITS:          0 MISSES:          0
L1I WRITEBACK ACCESSES:          0 HITS:          0 MISSES:          0
L1I RQ ACCESS:  500000187
L1I RQ TO_CACHE:   93386730
L1I RQ MERGED:  406613457
L1I RQ FORWARD:          0
L1I WQ ACCESS:          0
L1I WQ TO_CACHE:          0
L1I WQ MERGED:          0
L1I WQ FORWARD:          0
L2C TOTAL     ACCESS:   20898897  HIT:    8669630  MISS:   12229267
L2C LOAD      ACCESS:    5111888  HIT:    2143316  MISS:    2968572
L2C RFO       ACCESS:     152805  HIT:       6514  MISS:     146291
L2C PREFETCH  ACCESS:   13861453  HIT:    4747158  MISS:    9114295
L2C WRITEBACK ACCESS:    1772751  HIT:    1772642  MISS:        109
L2C PREFETCH  REQUESTED:    1807073  ISSUED:    1807073  USEFUL:    1064092  USELESS:    8051862
L2C TOTAL MSHR MERGED:      97868
L2C LOAD MSHR MERGED:      22680
L2C RFO MSHR MERGED:          0
L2C PREFETCH MSHR MERGED:      75188
L2C WRITEBACK MSHR MERGED:          0
L2C TOTAL ACCESSES:   21019364 HITS:    8669674 MISSES:   12349690
L2C LOAD ACCESSES:    5111914 HITS:    2143342 MISSES:    2968572
L2C RFO ACCESSES:     152805 HITS:       6514 MISSES:     146291
L2C PREFETCH ACCESSES:   13981894 HITS:    4747176 MISSES:    9234718
L2C WRITEBACK ACCESSES:    1772751 HITS:    1772642 MISSES:        109
L2C RQ ACCESS:    5264719
L2C RQ TO_CACHE:    5264693
L2C RQ MERGED:          0
L2C RQ FORWARD:          0
L2C WQ ACCESS:    1772751
L2C WQ TO_CACHE:    1772751
L2C WQ MERGED:          0
L2C WQ FORWARD:         44
LLC TOTAL     ACCESS:   12532492  HIT:    6800145  MISS:    5732347
LLC LOAD      ACCESS:    2945877  HIT:    2471767  MISS:     474110
LLC RFO       ACCESS:     146291  HIT:      87809  MISS:      58482
LLC PREFETCH  ACCESS:    9154344  HIT:    4000107  MISS:    5154237
LLC WRITEBACK ACCESS:     285980  HIT:     240462  MISS:      45518
LLC PREFETCH  REQUESTED:          0  ISSUED:          0  USEFUL:       6679  USELESS:    5147493
LLC TOTAL MSHR MERGED:       1020
LLC LOAD MSHR MERGED:        203
LLC RFO MSHR MERGED:          0
LLC PREFETCH MSHR MERGED:        817
LLC WRITEBACK MSHR MERGED:          0
LLC TOTAL ACCESSES:   12533541 HITS:    6800174 MISSES:    5733367
LLC LOAD ACCESSES:    2945892 HITS:    2471782 MISSES:     474110
LLC RFO ACCESSES:     146291 HITS:      87809 MISSES:      58482
LLC PREFETCH ACCESSES:    9155378 HITS:    4000121 MISSES:    5155257
LLC WRITEBACK ACCESSES:     285980 HITS:     240462 MISSES:      45518
LLC 0 RQ ACCESS:    3092183
LLC 0 RQ TO_CACHE:    3092168
LLC 0 RQ MERGED:          0
LLC 0 RQ FORWARD:          0
LLC WQ ACCESS:     285980
LLC WQ TO_CACHE:     285980
LLC WQ MERGED:          0
LLC WQ FORWARD:         29
Major fault: 0 Minor fault: 6524
CPU 0 L1D next line prefetcher final stats
CPU 0 L2C PC-based stride prefetcher final stats
All Misses: 7530940
All Hits: 7526566
SD Algo Stats - Switches: 0 SRR-Repls: 504253 BRR-Repls: 0

DRAM Statistics
 CHANNEL 0
 RQ ROW_BUFFER_HIT:    4891317  ROW_BUFFER_MISS:     788306
 DBUS_CONGESTED:    2052486
 WQ ROW_BUFFER_HIT:       8443  ROW_BUFFER_MISS:      65134  FULL:          0

 AVG_CONGESTED_CYCLE: 12
LOADS RETIRED: 175418235
INSTR RETIRED: 500000000
