
*** ChampSim Multicore Out-of-Order Simulator ***

Warmup Instructions: 100000000
Simulation Instructions: 500000000
Number of CPUs: 1
LLC sets: 2048
LLC ways: 16
Clean RRIP Policies: 2113230221132302 Dirty RRIP Policies: 2103130221031302 PSEL Width: 10 Track Set: 4294967295 PSEL Mask: 1 Demote Mask: 4040100040401000DS Algo: 0Window size: 0
Off-chip DRAM Size: 4096 MB Channels: 1 Width: 64-bit Data Rate: 1600 MT/s

CPU 0 runs /mnt/beegfs/iconst01/spec2017/Xalancbmk.trace.gz
NOT SORTED
TRACE STRING: /mnt/beegfs/iconst01/spec2017/Xalancbmk.trace.gz
SORTED
TRACE STRING: /mnt/beegfs/iconst01/spec2017/Xalancbmk.trace.gz
INITIAL
TRACE STRING: /mnt/beegfs/iconst01/spec2017/Xalancbmk.trace.gz

champsim_seed used: 913

CPU 0 L1D next line prefetcher
CPU 0 L2C IP-based stride prefetcher
Initialize DRRIP state
Assign rand_sets[0]: 454  LLC: 2048
rand_sets[0]: 454
Assign rand_sets[1]: 1662  LLC: 2048
rand_sets[1]: 1662
Assign rand_sets[2]: 1921  LLC: 2048
rand_sets[2]: 1921
Assign rand_sets[3]: 1131  LLC: 2048
rand_sets[3]: 1131
Assign rand_sets[4]: 331  LLC: 2048
rand_sets[4]: 331
Assign rand_sets[5]: 1531  LLC: 2048
rand_sets[5]: 1531
Assign rand_sets[6]: 482  LLC: 2048
rand_sets[6]: 482
Assign rand_sets[7]: 1275  LLC: 2048
rand_sets[7]: 1275
Assign rand_sets[8]: 1876  LLC: 2048
rand_sets[8]: 1876
Assign rand_sets[9]: 2038  LLC: 2048
rand_sets[9]: 2038
Assign rand_sets[10]: 701  LLC: 2048
rand_sets[10]: 701
Assign rand_sets[11]: 479  LLC: 2048
rand_sets[11]: 479
Assign rand_sets[12]: 892  LLC: 2048
rand_sets[12]: 892
Assign rand_sets[13]: 1820  LLC: 2048
rand_sets[13]: 1820
Assign rand_sets[14]: 1505  LLC: 2048
rand_sets[14]: 1505
Assign rand_sets[15]: 1159  LLC: 2048
rand_sets[15]: 1159
Assign rand_sets[16]: 513  LLC: 2048
rand_sets[16]: 513
Assign rand_sets[17]: 703  LLC: 2048
rand_sets[17]: 703
Assign rand_sets[18]: 561  LLC: 2048
rand_sets[18]: 561
Assign rand_sets[19]: 990  LLC: 2048
rand_sets[19]: 990
Assign rand_sets[20]: 342  LLC: 2048
rand_sets[20]: 342
Assign rand_sets[21]: 882  LLC: 2048
rand_sets[21]: 882
Assign rand_sets[22]: 15  LLC: 2048
rand_sets[22]: 15
Assign rand_sets[23]: 71  LLC: 2048
rand_sets[23]: 71
Assign rand_sets[24]: 1127  LLC: 2048
rand_sets[24]: 1127
Assign rand_sets[25]: 1382  LLC: 2048
rand_sets[25]: 1382
Assign rand_sets[26]: 647  LLC: 2048
rand_sets[26]: 647
Assign rand_sets[27]: 857  LLC: 2048
rand_sets[27]: 857
Assign rand_sets[28]: 1450  LLC: 2048
rand_sets[28]: 1450
Assign rand_sets[29]: 1160  LLC: 2048
rand_sets[29]: 1160
Assign rand_sets[30]: 1852  LLC: 2048
rand_sets[30]: 1852
Assign rand_sets[31]: 1881  LLC: 2048
rand_sets[31]: 1881
Assign rand_sets[32]: 1770  LLC: 2048
rand_sets[32]: 1770
Assign rand_sets[33]: 1622  LLC: 2048
rand_sets[33]: 1622
Assign rand_sets[34]: 275  LLC: 2048
rand_sets[34]: 275
Assign rand_sets[35]: 635  LLC: 2048
rand_sets[35]: 635
Assign rand_sets[36]: 466  LLC: 2048
rand_sets[36]: 466
Assign rand_sets[37]: 1413  LLC: 2048
rand_sets[37]: 1413
Assign rand_sets[38]: 417  LLC: 2048
rand_sets[38]: 417
Assign rand_sets[39]: 472  LLC: 2048
rand_sets[39]: 472
Assign rand_sets[40]: 1340  LLC: 2048
rand_sets[40]: 1340
Assign rand_sets[41]: 852  LLC: 2048
rand_sets[41]: 852
Assign rand_sets[42]: 1365  LLC: 2048
rand_sets[42]: 1365
Assign rand_sets[43]: 47  LLC: 2048
rand_sets[43]: 47
Assign rand_sets[44]: 823  LLC: 2048
rand_sets[44]: 823
Assign rand_sets[45]: 686  LLC: 2048
rand_sets[45]: 686
Assign rand_sets[46]: 1637  LLC: 2048
rand_sets[46]: 1637
Assign rand_sets[47]: 1115  LLC: 2048
rand_sets[47]: 1115
Assign rand_sets[48]: 986  LLC: 2048
rand_sets[48]: 986
Assign rand_sets[49]: 258  LLC: 2048
rand_sets[49]: 258
Assign rand_sets[50]: 633  LLC: 2048
rand_sets[50]: 633
Assign rand_sets[51]: 920  LLC: 2048
rand_sets[51]: 920
Assign rand_sets[52]: 204  LLC: 2048
rand_sets[52]: 204
Assign rand_sets[53]: 227  LLC: 2048
rand_sets[53]: 227
Assign rand_sets[54]: 1818  LLC: 2048
rand_sets[54]: 1818
Assign rand_sets[55]: 886  LLC: 2048
rand_sets[55]: 886
Assign rand_sets[56]: 1422  LLC: 2048
rand_sets[56]: 1422
Assign rand_sets[57]: 607  LLC: 2048
rand_sets[57]: 607
Assign rand_sets[58]: 217  LLC: 2048
rand_sets[58]: 217
Assign rand_sets[59]: 1945  LLC: 2048
rand_sets[59]: 1945
Assign rand_sets[60]: 143  LLC: 2048
rand_sets[60]: 143
Assign rand_sets[61]: 1311  LLC: 2048
rand_sets[61]: 1311
Assign rand_sets[62]: 319  LLC: 2048
rand_sets[62]: 319
Assign rand_sets[63]: 1846  LLC: 2048
rand_sets[63]: 1846
 CLEAN-RRIP-POLICY-1: 2-1-1-3-2-3-0-2- CLEAN-RRIP-POLICY-2: 2-1-1-3-2-3-0-2-
 DIRTY-RRIP-POLICY-1: 2-1-0-3-1-3-0-2- DIRTY-RRIP-POLICY-2: 2-1-0-3-1-3-0-2-
 PSEL width: 10
Heartbeat CPU 0 instructions: 10000003 cycles: 4592589 heartbeat IPC: 2.17742 cumulative IPC: 2.17742 (Simulation time: 0 hr 0 min 15 sec) 
Heartbeat CPU 0 instructions: 20000000 cycles: 8984887 heartbeat IPC: 2.27671 cumulative IPC: 2.22596 (Simulation time: 0 hr 0 min 29 sec) 
Heartbeat CPU 0 instructions: 30000000 cycles: 13393858 heartbeat IPC: 2.2681 cumulative IPC: 2.23983 (Simulation time: 0 hr 0 min 43 sec) 
Heartbeat CPU 0 instructions: 40000000 cycles: 18022163 heartbeat IPC: 2.16062 cumulative IPC: 2.21949 (Simulation time: 0 hr 0 min 58 sec) 
Heartbeat CPU 0 instructions: 50000002 cycles: 22438442 heartbeat IPC: 2.26435 cumulative IPC: 2.22832 (Simulation time: 0 hr 1 min 12 sec) 
Heartbeat CPU 0 instructions: 60000000 cycles: 27093988 heartbeat IPC: 2.14798 cumulative IPC: 2.21451 (Simulation time: 0 hr 1 min 28 sec) 
Heartbeat CPU 0 instructions: 70000003 cycles: 31498840 heartbeat IPC: 2.27022 cumulative IPC: 2.2223 (Simulation time: 0 hr 1 min 42 sec) 
Heartbeat CPU 0 instructions: 80000000 cycles: 35919265 heartbeat IPC: 2.26223 cumulative IPC: 2.22722 (Simulation time: 0 hr 1 min 56 sec) 
Heartbeat CPU 0 instructions: 90000002 cycles: 40374336 heartbeat IPC: 2.24463 cumulative IPC: 2.22914 (Simulation time: 0 hr 2 min 10 sec) 
Heartbeat CPU 0 instructions: 100000000 cycles: 44845856 heartbeat IPC: 2.23638 cumulative IPC: 2.22986 (Simulation time: 0 hr 2 min 25 sec) 

Warmup complete CPU 0 instructions: 100000003 cycles: 44845857 (Simulation time: 0 hr 2 min 25 sec) 

Heartbeat CPU 0 instructions: 110000000 cycles: 71864496 heartbeat IPC: 0.370115 cumulative IPC: 0.370115 (Simulation time: 0 hr 2 min 56 sec) 
Heartbeat CPU 0 instructions: 120000000 cycles: 100416920 heartbeat IPC: 0.350233 cumulative IPC: 0.359899 (Simulation time: 0 hr 3 min 28 sec) 
Heartbeat CPU 0 instructions: 130000000 cycles: 123809918 heartbeat IPC: 0.427478 cumulative IPC: 0.37992 (Simulation time: 0 hr 3 min 57 sec) 
Heartbeat CPU 0 instructions: 140000000 cycles: 146438307 heartbeat IPC: 0.441923 cumulative IPC: 0.39373 (Simulation time: 0 hr 4 min 25 sec) 
Heartbeat CPU 0 instructions: 150000000 cycles: 170823983 heartbeat IPC: 0.410077 cumulative IPC: 0.396894 (Simulation time: 0 hr 4 min 54 sec) 
Heartbeat CPU 0 instructions: 160000000 cycles: 195783177 heartbeat IPC: 0.400654 cumulative IPC: 0.397516 (Simulation time: 0 hr 5 min 23 sec) 
Heartbeat CPU 0 instructions: 170000002 cycles: 217150679 heartbeat IPC: 0.468001 cumulative IPC: 0.406257 (Simulation time: 0 hr 5 min 51 sec) 
Heartbeat CPU 0 instructions: 180000000 cycles: 239594185 heartbeat IPC: 0.445563 cumulative IPC: 0.410787 (Simulation time: 0 hr 6 min 19 sec) 
Heartbeat CPU 0 instructions: 190000000 cycles: 258542961 heartbeat IPC: 0.527739 cumulative IPC: 0.421157 (Simulation time: 0 hr 6 min 44 sec) 
Heartbeat CPU 0 instructions: 200000000 cycles: 279487460 heartbeat IPC: 0.477452 cumulative IPC: 0.426182 (Simulation time: 0 hr 7 min 11 sec) 
Heartbeat CPU 0 instructions: 210000001 cycles: 305937312 heartbeat IPC: 0.378074 cumulative IPC: 0.421308 (Simulation time: 0 hr 7 min 42 sec) 
Heartbeat CPU 0 instructions: 220000000 cycles: 331742498 heartbeat IPC: 0.387519 cumulative IPC: 0.418269 (Simulation time: 0 hr 8 min 12 sec) 
Heartbeat CPU 0 instructions: 230000000 cycles: 354057702 heartbeat IPC: 0.448125 cumulative IPC: 0.420424 (Simulation time: 0 hr 8 min 40 sec) 
Heartbeat CPU 0 instructions: 240000000 cycles: 379893065 heartbeat IPC: 0.387066 cumulative IPC: 0.417852 (Simulation time: 0 hr 9 min 10 sec) 
Heartbeat CPU 0 instructions: 250000001 cycles: 404860023 heartbeat IPC: 0.400529 cumulative IPC: 0.41665 (Simulation time: 0 hr 9 min 40 sec) 
Heartbeat CPU 0 instructions: 260000000 cycles: 425757013 heartbeat IPC: 0.478538 cumulative IPC: 0.420045 (Simulation time: 0 hr 10 min 7 sec) 
Heartbeat CPU 0 instructions: 270000000 cycles: 447264353 heartbeat IPC: 0.464958 cumulative IPC: 0.422446 (Simulation time: 0 hr 10 min 34 sec) 
Heartbeat CPU 0 instructions: 280000000 cycles: 475210268 heartbeat IPC: 0.357834 cumulative IPC: 0.41825 (Simulation time: 0 hr 11 min 6 sec) 
Heartbeat CPU 0 instructions: 290000000 cycles: 496303603 heartbeat IPC: 0.474083 cumulative IPC: 0.420859 (Simulation time: 0 hr 11 min 32 sec) 
Heartbeat CPU 0 instructions: 300000000 cycles: 516729453 heartbeat IPC: 0.489576 cumulative IPC: 0.423833 (Simulation time: 0 hr 11 min 59 sec) 
Heartbeat CPU 0 instructions: 310000000 cycles: 535868464 heartbeat IPC: 0.522493 cumulative IPC: 0.427679 (Simulation time: 0 hr 12 min 24 sec) 
Heartbeat CPU 0 instructions: 320000000 cycles: 565416388 heartbeat IPC: 0.338433 cumulative IPC: 0.422613 (Simulation time: 0 hr 12 min 57 sec) 
Heartbeat CPU 0 instructions: 330000001 cycles: 584839016 heartbeat IPC: 0.514863 cumulative IPC: 0.425931 (Simulation time: 0 hr 13 min 23 sec) 
Heartbeat CPU 0 instructions: 340000000 cycles: 604092726 heartbeat IPC: 0.51938 cumulative IPC: 0.429149 (Simulation time: 0 hr 13 min 48 sec) 
Heartbeat CPU 0 instructions: 350000001 cycles: 629350942 heartbeat IPC: 0.395911 cumulative IPC: 0.427712 (Simulation time: 0 hr 14 min 18 sec) 
Heartbeat CPU 0 instructions: 360000000 cycles: 651667928 heartbeat IPC: 0.448089 cumulative IPC: 0.428462 (Simulation time: 0 hr 14 min 46 sec) 
Heartbeat CPU 0 instructions: 370000001 cycles: 676807191 heartbeat IPC: 0.397784 cumulative IPC: 0.427241 (Simulation time: 0 hr 15 min 15 sec) 
Heartbeat CPU 0 instructions: 380000000 cycles: 699985053 heartbeat IPC: 0.431446 cumulative IPC: 0.42739 (Simulation time: 0 hr 15 min 44 sec) 
Heartbeat CPU 0 instructions: 390000000 cycles: 718751067 heartbeat IPC: 0.532878 cumulative IPC: 0.430328 (Simulation time: 0 hr 16 min 9 sec) 
Heartbeat CPU 0 instructions: 400000000 cycles: 738548921 heartbeat IPC: 0.505105 cumulative IPC: 0.432462 (Simulation time: 0 hr 16 min 34 sec) 
Heartbeat CPU 0 instructions: 410000001 cycles: 764879747 heartbeat IPC: 0.379783 cumulative IPC: 0.430535 (Simulation time: 0 hr 17 min 5 sec) 
Heartbeat CPU 0 instructions: 420000000 cycles: 789526874 heartbeat IPC: 0.405727 cumulative IPC: 0.429714 (Simulation time: 0 hr 17 min 34 sec) 
Heartbeat CPU 0 instructions: 430000002 cycles: 810684641 heartbeat IPC: 0.47264 cumulative IPC: 0.4309 (Simulation time: 0 hr 18 min 1 sec) 
Heartbeat CPU 0 instructions: 440000000 cycles: 830837600 heartbeat IPC: 0.496205 cumulative IPC: 0.432575 (Simulation time: 0 hr 18 min 27 sec) 
Heartbeat CPU 0 instructions: 450000002 cycles: 857708018 heartbeat IPC: 0.372157 cumulative IPC: 0.430577 (Simulation time: 0 hr 18 min 57 sec) 
Heartbeat CPU 0 instructions: 460000000 cycles: 883789350 heartbeat IPC: 0.383416 cumulative IPC: 0.429111 (Simulation time: 0 hr 19 min 27 sec) 
Heartbeat CPU 0 instructions: 470000002 cycles: 909764881 heartbeat IPC: 0.384978 cumulative IPC: 0.427786 (Simulation time: 0 hr 19 min 57 sec) 
Heartbeat CPU 0 instructions: 480000000 cycles: 934057323 heartbeat IPC: 0.411651 cumulative IPC: 0.427345 (Simulation time: 0 hr 20 min 26 sec) 
Heartbeat CPU 0 instructions: 490000000 cycles: 954902172 heartbeat IPC: 0.479735 cumulative IPC: 0.428545 (Simulation time: 0 hr 20 min 53 sec) 
Heartbeat CPU 0 instructions: 500000000 cycles: 979775753 heartbeat IPC: 0.402033 cumulative IPC: 0.42784 (Simulation time: 0 hr 21 min 22 sec) 
Heartbeat CPU 0 instructions: 510000000 cycles: 1004835085 heartbeat IPC: 0.399053 cumulative IPC: 0.427088 (Simulation time: 0 hr 21 min 51 sec) 
Heartbeat CPU 0 instructions: 520000000 cycles: 1025838011 heartbeat IPC: 0.476124 cumulative IPC: 0.428138 (Simulation time: 0 hr 22 min 18 sec) 
Heartbeat CPU 0 instructions: 530000003 cycles: 1051563079 heartbeat IPC: 0.388726 cumulative IPC: 0.427131 (Simulation time: 0 hr 22 min 48 sec) 
Heartbeat CPU 0 instructions: 540000000 cycles: 1074539189 heartbeat IPC: 0.435235 cumulative IPC: 0.427312 (Simulation time: 0 hr 23 min 16 sec) 
Heartbeat CPU 0 instructions: 550000000 cycles: 1100118642 heartbeat IPC: 0.390939 cumulative IPC: 0.42643 (Simulation time: 0 hr 23 min 45 sec) 
Heartbeat CPU 0 instructions: 560000000 cycles: 1123211754 heartbeat IPC: 0.43303 cumulative IPC: 0.426571 (Simulation time: 0 hr 24 min 13 sec) 
Heartbeat CPU 0 instructions: 570000002 cycles: 1146687660 heartbeat IPC: 0.425969 cumulative IPC: 0.426559 (Simulation time: 0 hr 24 min 41 sec) 
Heartbeat CPU 0 instructions: 580000000 cycles: 1167599411 heartbeat IPC: 0.4782 cumulative IPC: 0.42752 (Simulation time: 0 hr 25 min 8 sec) 
Heartbeat CPU 0 instructions: 590000001 cycles: 1191568303 heartbeat IPC: 0.417207 cumulative IPC: 0.427305 (Simulation time: 0 hr 25 min 36 sec) 
Heartbeat CPU 0 instructions: 600000000 cycles: 1210700029 heartbeat IPC: 0.522692 cumulative IPC: 0.42887 (Simulation time: 0 hr 26 min 2 sec) 
Finished CPU 0 instructions: 500000000 cycles: 1165854193 cumulative IPC: 0.42887 (Simulation time: 0 hr 26 min 2 sec) 

CPU 0 Branch Prediction Accuracy: 99.5434% MPKI: 1.33026
Number of Branches: 145676990 Number of Mispredictions: 665128
Number of LOAD Instructions: 188863207
Number of LOAD Instructions (ROI): 188863207
Number of STORE Instructions: 7332002
Number of STORE Instructions (ROI): 7332002
Total Destination Memory Operands: 10029285
Total Destination Memory Operands (ROI): 10029285
Total Source Memory Operands: 188863207
Total Source Memory Operands (ROI): 188863207
Number of DEPENDED LOADS: 291018
Number of DEPENDED LOADS (ROI): 291018
Number of SQ_ADDED: 10029285
Number of SQ_ADDED (ROI): 10029285
Number of LQ_ADDED: 200632547
Number of LQ_ADDED (ROI): 200632547
Number of Instructions read from trace: 600000010

ChampSim completed all CPUs

Region of Interest Statistics

CPU 0 cumulative IPC: 0.42887 instructions: 500000000 cycles: 1165854193
ITLB TOTAL     ACCESS:  145824706  HIT:  145785179  MISS:      39527
ITLB LOAD      ACCESS:  145824706  HIT:  145785179  MISS:      39527
ITLB RFO       ACCESS:          0  HIT:          0  MISS:          0
ITLB PREFETCH  ACCESS:          0  HIT:          0  MISS:          0
ITLB WRITEBACK ACCESS:          0  HIT:          0  MISS:          0
ITLB PREFETCH  REQUESTED:          0  ISSUED:          0  USEFUL:          0  USELESS:          0
ITLB TOTAL MSHR MERGED:      57363
ITLB LOAD MSHR MERGED:      57363
ITLB RFO MSHR MERGED:          0
ITLB PREFETCH MSHR MERGED:          0
ITLB WRITEBACK MSHR MERGED:          0
ITLB TOTAL ACCESSES:  145882069 HITS:  145785179 MISSES:      96890
ITLB LOAD ACCESSES:  145882069 HITS:  145785179 MISSES:      96890
ITLB RFO ACCESSES:          0 HITS:          0 MISSES:          0
ITLB PREFETCH ACCESSES:          0 HITS:          0 MISSES:          0
ITLB WRITEBACK ACCESSES:          0 HITS:          0 MISSES:          0
ITLB RQ ACCESS:  499999754
ITLB RQ TO_CACHE:  145882069
ITLB RQ MERGED:  354117685
ITLB RQ FORWARD:          0
ITLB WQ ACCESS:          0
ITLB WQ TO_CACHE:          0
ITLB WQ MERGED:          0
ITLB WQ FORWARD:          0
DTLB TOTAL     ACCESS:  135200640  HIT:  134032280  MISS:    1168360
DTLB LOAD      ACCESS:  127159802  HIT:  126000549  MISS:    1159253
DTLB RFO       ACCESS:    8040838  HIT:    8031731  MISS:       9107
DTLB PREFETCH  ACCESS:          0  HIT:          0  MISS:          0
DTLB WRITEBACK ACCESS:          0  HIT:          0  MISS:          0
DTLB PREFETCH  REQUESTED:          0  ISSUED:          0  USEFUL:          0  USELESS:          0
DTLB TOTAL MSHR MERGED:     579196
DTLB LOAD MSHR MERGED:     574821
DTLB RFO MSHR MERGED:       4375
DTLB PREFETCH MSHR MERGED:          0
DTLB WRITEBACK MSHR MERGED:          0
DTLB TOTAL ACCESSES:  135779836 HITS:  134032280 MISSES:    1747556
DTLB LOAD ACCESSES:  127734623 HITS:  126000549 MISSES:    1734074
DTLB RFO ACCESSES:    8045213 HITS:    8031731 MISSES:      13482
DTLB PREFETCH ACCESSES:          0 HITS:          0 MISSES:          0
DTLB WRITEBACK ACCESSES:          0 HITS:          0 MISSES:          0
DTLB RQ ACCESS:  165763325
DTLB RQ TO_CACHE:  135779836
DTLB RQ MERGED:   29983489
DTLB RQ FORWARD:          0
DTLB WQ ACCESS:          0
DTLB WQ TO_CACHE:          0
DTLB WQ MERGED:          0
DTLB WQ FORWARD:          0
L1D TOTAL     ACCESS:  157089079  HIT:  139773389  MISS:   17315690
L1D LOAD      ACCESS:   90002024  HIT:   78865166  MISS:   11136858
L1D RFO       ACCESS:    8500684  HIT:    8413558  MISS:      87126
L1D PREFETCH  ACCESS:   58586371  HIT:   52494665  MISS:    6091706
L1D WRITEBACK ACCESS:          0  HIT:          0  MISS:          0
L1D PREFETCH  REQUESTED:   93721334  ISSUED:   92853749  USEFUL:    2010306  USELESS:    4081473
L1D TOTAL MSHR MERGED:   14976742
L1D LOAD MSHR MERGED:    7112482
L1D RFO MSHR MERGED:     123743
L1D PREFETCH MSHR MERGED:    7740517
L1D WRITEBACK MSHR MERGED:          0
L1D TOTAL ACCESSES:  172065972 HITS:  139773540 MISSES:   32292432
L1D LOAD ACCESSES:   93721337 HITS:   78865169 MISSES:   14856168
L1D RFO ACCESSES:    8622628 HITS:    8413558 MISSES:     209070
L1D PREFETCH ACCESSES:   69722007 HITS:   52494813 MISSES:   17227194
L1D WRITEBACK ACCESSES:          0 HITS:          0 MISSES:          0
L1D RQ ACCESS:  157124119
L1D RQ TO_CACHE:   93721334
L1D RQ MERGED:   63402782
L1D RQ FORWARD:          0
L1D WQ ACCESS:    8639208
L1D WQ TO_CACHE:    8622628
L1D WQ MERGED:      16580
L1D WQ FORWARD:        151
L1I TOTAL     ACCESS:  178805279  HIT:  178141616  MISS:     663663
L1I LOAD      ACCESS:  178805279  HIT:  178141616  MISS:     663663
L1I RFO       ACCESS:          0  HIT:          0  MISS:          0
L1I PREFETCH  ACCESS:          0  HIT:          0  MISS:          0
L1I WRITEBACK ACCESS:          0  HIT:          0  MISS:          0
L1I PREFETCH  REQUESTED:          0  ISSUED:          0  USEFUL:          0  USELESS:          0
L1I TOTAL MSHR MERGED:     596617
L1I LOAD MSHR MERGED:     596617
L1I RFO MSHR MERGED:          0
L1I PREFETCH MSHR MERGED:          0
L1I WRITEBACK MSHR MERGED:          0
L1I TOTAL ACCESSES:  179401896 HITS:  178141616 MISSES:    1260280
L1I LOAD ACCESSES:  179401896 HITS:  178141616 MISSES:    1260280
L1I RFO ACCESSES:          0 HITS:          0 MISSES:          0
L1I PREFETCH ACCESSES:          0 HITS:          0 MISSES:          0
L1I WRITEBACK ACCESSES:          0 HITS:          0 MISSES:          0
L1I RQ ACCESS:  499999757
L1I RQ TO_CACHE:  179401896
L1I RQ MERGED:  320597861
L1I RQ FORWARD:          0
L1I WQ ACCESS:          0
L1I WQ TO_CACHE:          0
L1I WQ MERGED:          0
L1I WQ FORWARD:          0
L2C TOTAL     ACCESS:   19278165  HIT:    2058264  MISS:   17219901
L2C LOAD      ACCESS:    8407244  HIT:     951563  MISS:    7455681
L2C RFO       ACCESS:      85304  HIT:      53740  MISS:      31564
L2C PREFETCH  ACCESS:   10500588  HIT:     770743  MISS:    9729845
L2C WRITEBACK ACCESS:     285029  HIT:     282218  MISS:       2811
L2C PREFETCH  REQUESTED:    1018223  ISSUED:    1018223  USEFUL:     275157  USELESS:    9453781
L2C TOTAL MSHR MERGED:        980
L2C LOAD MSHR MERGED:        209
L2C RFO MSHR MERGED:          1
L2C PREFETCH MSHR MERGED:        770
L2C WRITEBACK MSHR MERGED:          0
L2C TOTAL ACCESSES:   19281352 HITS:    2058458 MISSES:   17222894
L2C LOAD ACCESSES:    8407349 HITS:     951668 MISSES:    7455681
L2C RFO ACCESSES:      85327 HITS:      53763 MISSES:      31564
L2C PREFETCH ACCESSES:   10503647 HITS:     770809 MISSES:    9732838
L2C WRITEBACK ACCESSES:     285029 HITS:     282218 MISSES:       2811
L2C RQ ACCESS:    8492676
L2C RQ TO_CACHE:    8492548
L2C RQ MERGED:          0
L2C RQ FORWARD:          0
L2C WQ ACCESS:     285029
L2C WQ TO_CACHE:     285029
L2C WQ MERGED:          0
L2C WQ FORWARD:        194
LLC TOTAL     ACCESS:   17325157  HIT:    4948136  MISS:   12377021
LLC LOAD      ACCESS:    7455472  HIT:    3908805  MISS:    3546667
LLC RFO       ACCESS:      31563  HIT:      18507  MISS:      13056
LLC PREFETCH  ACCESS:    9732063  HIT:     933189  MISS:    8798874
LLC WRITEBACK ACCESS:     106059  HIT:      87635  MISS:      18424
LLC PREFETCH  REQUESTED:          0  ISSUED:          0  USEFUL:       2014  USELESS:    8796113
LLC TOTAL MSHR MERGED:          5
LLC LOAD MSHR MERGED:          0
LLC RFO MSHR MERGED:          0
LLC PREFETCH MSHR MERGED:          5
LLC WRITEBACK MSHR MERGED:          0
LLC TOTAL ACCESSES:   17325162 HITS:    4948136 MISSES:   12377026
LLC LOAD ACCESSES:    7455472 HITS:    3908805 MISSES:    3546667
LLC RFO ACCESSES:      31563 HITS:      18507 MISSES:      13056
LLC PREFETCH ACCESSES:    9732068 HITS:     933189 MISSES:    8798879
LLC WRITEBACK ACCESSES:     106059 HITS:      87635 MISSES:      18424
LLC 0 RQ ACCESS:    7487035
LLC 0 RQ TO_CACHE:    7487035
LLC 0 RQ MERGED:          0
LLC 0 RQ FORWARD:          0
LLC WQ ACCESS:     106059
LLC WQ TO_CACHE:     106059
LLC WQ MERGED:          0
LLC WQ FORWARD:          0
Major fault: 0 Minor fault: 6432
CPU 0 L1D next line prefetcher final stats
CPU 0 L2C PC-based stride prefetcher final stats
All Misses: 14608993
All Hits: 5935801
SD Algo Stats - Switches: 0 SRR-Repls: 3792413 BRR-Repls: 0

DRAM Statistics
 CHANNEL 0
 RQ ROW_BUFFER_HIT:    9343073  ROW_BUFFER_MISS:    3010741
 DBUS_CONGESTED:    5794760
 WQ ROW_BUFFER_HIT:       1239  ROW_BUFFER_MISS:      38009  FULL:          0

 AVG_CONGESTED_CYCLE: 12
LOADS RETIRED: 157382665
INSTR RETIRED: 500000000
