
*** ChampSim Multicore Out-of-Order Simulator ***

Warmup Instructions: 100000000
Simulation Instructions: 500000000
Number of CPUs: 1
LLC sets: 2048
LLC ways: 16
Clean RRIP Policies: 2213230222132302 Dirty RRIP Policies: 1203130212031302 PSEL Width: 10 Track Set: 4294967295 PSEL Mask: 1 Demote Mask: 1140103011401030DS Algo: 0Window size: 0
Off-chip DRAM Size: 4096 MB Channels: 1 Width: 64-bit Data Rate: 1600 MT/s

CPU 0 runs /mnt/beegfs/iconst01/spec2017/Blender.trace.gz
NOT SORTED
TRACE STRING: /mnt/beegfs/iconst01/spec2017/Blender.trace.gz
SORTED
TRACE STRING: /mnt/beegfs/iconst01/spec2017/Blender.trace.gz
INITIAL
TRACE STRING: /mnt/beegfs/iconst01/spec2017/Blender.trace.gz

champsim_seed used: 700

CPU 0 L1D next line prefetcher
CPU 0 L2C IP-based stride prefetcher
Initialize DRRIP state
Assign rand_sets[0]: 454  LLC: 2048
rand_sets[0]: 454
Assign rand_sets[1]: 1662  LLC: 2048
rand_sets[1]: 1662
Assign rand_sets[2]: 1921  LLC: 2048
rand_sets[2]: 1921
Assign rand_sets[3]: 1131  LLC: 2048
rand_sets[3]: 1131
Assign rand_sets[4]: 331  LLC: 2048
rand_sets[4]: 331
Assign rand_sets[5]: 1531  LLC: 2048
rand_sets[5]: 1531
Assign rand_sets[6]: 482  LLC: 2048
rand_sets[6]: 482
Assign rand_sets[7]: 1275  LLC: 2048
rand_sets[7]: 1275
Assign rand_sets[8]: 1876  LLC: 2048
rand_sets[8]: 1876
Assign rand_sets[9]: 2038  LLC: 2048
rand_sets[9]: 2038
Assign rand_sets[10]: 701  LLC: 2048
rand_sets[10]: 701
Assign rand_sets[11]: 479  LLC: 2048
rand_sets[11]: 479
Assign rand_sets[12]: 892  LLC: 2048
rand_sets[12]: 892
Assign rand_sets[13]: 1820  LLC: 2048
rand_sets[13]: 1820
Assign rand_sets[14]: 1505  LLC: 2048
rand_sets[14]: 1505
Assign rand_sets[15]: 1159  LLC: 2048
rand_sets[15]: 1159
Assign rand_sets[16]: 513  LLC: 2048
rand_sets[16]: 513
Assign rand_sets[17]: 703  LLC: 2048
rand_sets[17]: 703
Assign rand_sets[18]: 561  LLC: 2048
rand_sets[18]: 561
Assign rand_sets[19]: 990  LLC: 2048
rand_sets[19]: 990
Assign rand_sets[20]: 342  LLC: 2048
rand_sets[20]: 342
Assign rand_sets[21]: 882  LLC: 2048
rand_sets[21]: 882
Assign rand_sets[22]: 15  LLC: 2048
rand_sets[22]: 15
Assign rand_sets[23]: 71  LLC: 2048
rand_sets[23]: 71
Assign rand_sets[24]: 1127  LLC: 2048
rand_sets[24]: 1127
Assign rand_sets[25]: 1382  LLC: 2048
rand_sets[25]: 1382
Assign rand_sets[26]: 647  LLC: 2048
rand_sets[26]: 647
Assign rand_sets[27]: 857  LLC: 2048
rand_sets[27]: 857
Assign rand_sets[28]: 1450  LLC: 2048
rand_sets[28]: 1450
Assign rand_sets[29]: 1160  LLC: 2048
rand_sets[29]: 1160
Assign rand_sets[30]: 1852  LLC: 2048
rand_sets[30]: 1852
Assign rand_sets[31]: 1881  LLC: 2048
rand_sets[31]: 1881
Assign rand_sets[32]: 1770  LLC: 2048
rand_sets[32]: 1770
Assign rand_sets[33]: 1622  LLC: 2048
rand_sets[33]: 1622
Assign rand_sets[34]: 275  LLC: 2048
rand_sets[34]: 275
Assign rand_sets[35]: 635  LLC: 2048
rand_sets[35]: 635
Assign rand_sets[36]: 466  LLC: 2048
rand_sets[36]: 466
Assign rand_sets[37]: 1413  LLC: 2048
rand_sets[37]: 1413
Assign rand_sets[38]: 417  LLC: 2048
rand_sets[38]: 417
Assign rand_sets[39]: 472  LLC: 2048
rand_sets[39]: 472
Assign rand_sets[40]: 1340  LLC: 2048
rand_sets[40]: 1340
Assign rand_sets[41]: 852  LLC: 2048
rand_sets[41]: 852
Assign rand_sets[42]: 1365  LLC: 2048
rand_sets[42]: 1365
Assign rand_sets[43]: 47  LLC: 2048
rand_sets[43]: 47
Assign rand_sets[44]: 823  LLC: 2048
rand_sets[44]: 823
Assign rand_sets[45]: 686  LLC: 2048
rand_sets[45]: 686
Assign rand_sets[46]: 1637  LLC: 2048
rand_sets[46]: 1637
Assign rand_sets[47]: 1115  LLC: 2048
rand_sets[47]: 1115
Assign rand_sets[48]: 986  LLC: 2048
rand_sets[48]: 986
Assign rand_sets[49]: 258  LLC: 2048
rand_sets[49]: 258
Assign rand_sets[50]: 633  LLC: 2048
rand_sets[50]: 633
Assign rand_sets[51]: 920  LLC: 2048
rand_sets[51]: 920
Assign rand_sets[52]: 204  LLC: 2048
rand_sets[52]: 204
Assign rand_sets[53]: 227  LLC: 2048
rand_sets[53]: 227
Assign rand_sets[54]: 1818  LLC: 2048
rand_sets[54]: 1818
Assign rand_sets[55]: 886  LLC: 2048
rand_sets[55]: 886
Assign rand_sets[56]: 1422  LLC: 2048
rand_sets[56]: 1422
Assign rand_sets[57]: 607  LLC: 2048
rand_sets[57]: 607
Assign rand_sets[58]: 217  LLC: 2048
rand_sets[58]: 217
Assign rand_sets[59]: 1945  LLC: 2048
rand_sets[59]: 1945
Assign rand_sets[60]: 143  LLC: 2048
rand_sets[60]: 143
Assign rand_sets[61]: 1311  LLC: 2048
rand_sets[61]: 1311
Assign rand_sets[62]: 319  LLC: 2048
rand_sets[62]: 319
Assign rand_sets[63]: 1846  LLC: 2048
rand_sets[63]: 1846
 CLEAN-RRIP-POLICY-1: 2-2-1-3-2-3-0-2- CLEAN-RRIP-POLICY-2: 2-2-1-3-2-3-0-2-
 DIRTY-RRIP-POLICY-1: 1-2-0-3-1-3-0-2- DIRTY-RRIP-POLICY-2: 1-2-0-3-1-3-0-2-
 PSEL width: 10
Heartbeat CPU 0 instructions: 10000002 cycles: 5480930 heartbeat IPC: 1.82451 cumulative IPC: 1.82451 (Simulation time: 0 hr 0 min 13 sec) 
Heartbeat CPU 0 instructions: 20000000 cycles: 10913520 heartbeat IPC: 1.84074 cumulative IPC: 1.83259 (Simulation time: 0 hr 0 min 26 sec) 
Heartbeat CPU 0 instructions: 30000000 cycles: 16447385 heartbeat IPC: 1.80706 cumulative IPC: 1.824 (Simulation time: 0 hr 0 min 38 sec) 
Heartbeat CPU 0 instructions: 40000000 cycles: 21898184 heartbeat IPC: 1.83459 cumulative IPC: 1.82664 (Simulation time: 0 hr 0 min 51 sec) 
Heartbeat CPU 0 instructions: 50000000 cycles: 27400082 heartbeat IPC: 1.81755 cumulative IPC: 1.82481 (Simulation time: 0 hr 1 min 3 sec) 
Heartbeat CPU 0 instructions: 60000000 cycles: 32778875 heartbeat IPC: 1.85915 cumulative IPC: 1.83045 (Simulation time: 0 hr 1 min 16 sec) 
Heartbeat CPU 0 instructions: 70000001 cycles: 38335133 heartbeat IPC: 1.79977 cumulative IPC: 1.826 (Simulation time: 0 hr 1 min 29 sec) 
Heartbeat CPU 0 instructions: 80000000 cycles: 43795279 heartbeat IPC: 1.83145 cumulative IPC: 1.82668 (Simulation time: 0 hr 1 min 41 sec) 
Heartbeat CPU 0 instructions: 90000000 cycles: 49241883 heartbeat IPC: 1.83601 cumulative IPC: 1.82771 (Simulation time: 0 hr 1 min 54 sec) 
Heartbeat CPU 0 instructions: 100000000 cycles: 54786902 heartbeat IPC: 1.80342 cumulative IPC: 1.82525 (Simulation time: 0 hr 2 min 6 sec) 

Warmup complete CPU 0 instructions: 100000002 cycles: 54786903 (Simulation time: 0 hr 2 min 6 sec) 

Heartbeat CPU 0 instructions: 110000001 cycles: 69146740 heartbeat IPC: 0.696387 cumulative IPC: 0.696387 (Simulation time: 0 hr 2 min 24 sec) 
Heartbeat CPU 0 instructions: 120000000 cycles: 84105457 heartbeat IPC: 0.668506 cumulative IPC: 0.682162 (Simulation time: 0 hr 2 min 43 sec) 
Heartbeat CPU 0 instructions: 130000000 cycles: 98573987 heartbeat IPC: 0.691155 cumulative IPC: 0.685134 (Simulation time: 0 hr 3 min 1 sec) 
Heartbeat CPU 0 instructions: 140000000 cycles: 112899289 heartbeat IPC: 0.698066 cumulative IPC: 0.688321 (Simulation time: 0 hr 3 min 19 sec) 
Heartbeat CPU 0 instructions: 150000000 cycles: 127563342 heartbeat IPC: 0.68194 cumulative IPC: 0.687036 (Simulation time: 0 hr 3 min 37 sec) 
Heartbeat CPU 0 instructions: 160000000 cycles: 142616853 heartbeat IPC: 0.664297 cumulative IPC: 0.683138 (Simulation time: 0 hr 3 min 55 sec) 
Heartbeat CPU 0 instructions: 170000001 cycles: 157444815 heartbeat IPC: 0.674402 cumulative IPC: 0.681876 (Simulation time: 0 hr 4 min 13 sec) 
Heartbeat CPU 0 instructions: 180000000 cycles: 172317173 heartbeat IPC: 0.672388 cumulative IPC: 0.680676 (Simulation time: 0 hr 4 min 31 sec) 
Heartbeat CPU 0 instructions: 190000002 cycles: 186753714 heartbeat IPC: 0.692687 cumulative IPC: 0.68199 (Simulation time: 0 hr 4 min 49 sec) 
Heartbeat CPU 0 instructions: 200000000 cycles: 201096983 heartbeat IPC: 0.697191 cumulative IPC: 0.68348 (Simulation time: 0 hr 5 min 7 sec) 
Heartbeat CPU 0 instructions: 210000003 cycles: 215685842 heartbeat IPC: 0.685455 cumulative IPC: 0.683659 (Simulation time: 0 hr 5 min 25 sec) 
Heartbeat CPU 0 instructions: 220000000 cycles: 230340376 heartbeat IPC: 0.682382 cumulative IPC: 0.683552 (Simulation time: 0 hr 5 min 44 sec) 
Heartbeat CPU 0 instructions: 230000001 cycles: 245398400 heartbeat IPC: 0.664098 cumulative IPC: 0.682016 (Simulation time: 0 hr 6 min 2 sec) 
Heartbeat CPU 0 instructions: 240000000 cycles: 260274188 heartbeat IPC: 0.672233 cumulative IPC: 0.681307 (Simulation time: 0 hr 6 min 20 sec) 
Heartbeat CPU 0 instructions: 250000003 cycles: 275057637 heartbeat IPC: 0.676432 cumulative IPC: 0.68098 (Simulation time: 0 hr 6 min 38 sec) 
Heartbeat CPU 0 instructions: 260000000 cycles: 290494612 heartbeat IPC: 0.647795 cumulative IPC: 0.678807 (Simulation time: 0 hr 6 min 56 sec) 
Heartbeat CPU 0 instructions: 270000003 cycles: 305070823 heartbeat IPC: 0.68605 cumulative IPC: 0.679229 (Simulation time: 0 hr 7 min 14 sec) 
Heartbeat CPU 0 instructions: 280000000 cycles: 319497719 heartbeat IPC: 0.69315 cumulative IPC: 0.679987 (Simulation time: 0 hr 7 min 32 sec) 
Heartbeat CPU 0 instructions: 290000002 cycles: 333906381 heartbeat IPC: 0.694027 cumulative IPC: 0.680712 (Simulation time: 0 hr 7 min 51 sec) 
Heartbeat CPU 0 instructions: 300000000 cycles: 349259757 heartbeat IPC: 0.651322 cumulative IPC: 0.67918 (Simulation time: 0 hr 8 min 9 sec) 
Heartbeat CPU 0 instructions: 310000000 cycles: 364189384 heartbeat IPC: 0.669809 cumulative IPC: 0.678728 (Simulation time: 0 hr 8 min 27 sec) 
Heartbeat CPU 0 instructions: 320000000 cycles: 378958616 heartbeat IPC: 0.677083 cumulative IPC: 0.678653 (Simulation time: 0 hr 8 min 45 sec) 
Heartbeat CPU 0 instructions: 330000000 cycles: 394664484 heartbeat IPC: 0.636705 cumulative IPC: 0.676714 (Simulation time: 0 hr 9 min 3 sec) 
Heartbeat CPU 0 instructions: 340000000 cycles: 409268753 heartbeat IPC: 0.684731 cumulative IPC: 0.677045 (Simulation time: 0 hr 9 min 21 sec) 
Heartbeat CPU 0 instructions: 350000000 cycles: 423845629 heartbeat IPC: 0.686018 cumulative IPC: 0.677399 (Simulation time: 0 hr 9 min 39 sec) 
Heartbeat CPU 0 instructions: 360000000 cycles: 438466171 heartbeat IPC: 0.683969 cumulative IPC: 0.677649 (Simulation time: 0 hr 9 min 57 sec) 
Heartbeat CPU 0 instructions: 370000002 cycles: 453841414 heartbeat IPC: 0.650396 cumulative IPC: 0.676599 (Simulation time: 0 hr 10 min 15 sec) 
Heartbeat CPU 0 instructions: 380000000 cycles: 468640458 heartbeat IPC: 0.675719 cumulative IPC: 0.676568 (Simulation time: 0 hr 10 min 33 sec) 
Heartbeat CPU 0 instructions: 390000003 cycles: 483546113 heartbeat IPC: 0.670887 cumulative IPC: 0.67637 (Simulation time: 0 hr 10 min 51 sec) 
Heartbeat CPU 0 instructions: 400000000 cycles: 499331359 heartbeat IPC: 0.633503 cumulative IPC: 0.674848 (Simulation time: 0 hr 11 min 10 sec) 
Heartbeat CPU 0 instructions: 410000001 cycles: 514311261 heartbeat IPC: 0.667561 cumulative IPC: 0.674611 (Simulation time: 0 hr 11 min 27 sec) 
Heartbeat CPU 0 instructions: 420000000 cycles: 529020991 heartbeat IPC: 0.679822 cumulative IPC: 0.674772 (Simulation time: 0 hr 11 min 45 sec) 
Heartbeat CPU 0 instructions: 430000000 cycles: 544383276 heartbeat IPC: 0.650945 cumulative IPC: 0.674025 (Simulation time: 0 hr 12 min 3 sec) 
Heartbeat CPU 0 instructions: 440000000 cycles: 559165583 heartbeat IPC: 0.676484 cumulative IPC: 0.674097 (Simulation time: 0 hr 12 min 21 sec) 
Heartbeat CPU 0 instructions: 450000000 cycles: 574085041 heartbeat IPC: 0.670266 cumulative IPC: 0.673987 (Simulation time: 0 hr 12 min 39 sec) 
Heartbeat CPU 0 instructions: 460000000 cycles: 589783452 heartbeat IPC: 0.637007 cumulative IPC: 0.672902 (Simulation time: 0 hr 12 min 57 sec) 
Heartbeat CPU 0 instructions: 470000000 cycles: 604814919 heartbeat IPC: 0.665271 cumulative IPC: 0.672693 (Simulation time: 0 hr 13 min 15 sec) 
Heartbeat CPU 0 instructions: 480000000 cycles: 619662527 heartbeat IPC: 0.673509 cumulative IPC: 0.672714 (Simulation time: 0 hr 13 min 33 sec) 
Heartbeat CPU 0 instructions: 490000002 cycles: 634889733 heartbeat IPC: 0.656719 cumulative IPC: 0.672295 (Simulation time: 0 hr 13 min 51 sec) 
Heartbeat CPU 0 instructions: 500000000 cycles: 649726541 heartbeat IPC: 0.673999 cumulative IPC: 0.672337 (Simulation time: 0 hr 14 min 9 sec) 
Heartbeat CPU 0 instructions: 510000001 cycles: 664785053 heartbeat IPC: 0.664076 cumulative IPC: 0.672133 (Simulation time: 0 hr 14 min 27 sec) 
Heartbeat CPU 0 instructions: 520000000 cycles: 680197197 heartbeat IPC: 0.648839 cumulative IPC: 0.671559 (Simulation time: 0 hr 14 min 45 sec) 
Heartbeat CPU 0 instructions: 530000001 cycles: 695574513 heartbeat IPC: 0.650309 cumulative IPC: 0.671049 (Simulation time: 0 hr 15 min 3 sec) 
Heartbeat CPU 0 instructions: 540000000 cycles: 710123536 heartbeat IPC: 0.687331 cumulative IPC: 0.671411 (Simulation time: 0 hr 15 min 21 sec) 
Heartbeat CPU 0 instructions: 550000001 cycles: 725331684 heartbeat IPC: 0.657542 cumulative IPC: 0.671096 (Simulation time: 0 hr 15 min 39 sec) 
Heartbeat CPU 0 instructions: 560000000 cycles: 740102578 heartbeat IPC: 0.677007 cumulative IPC: 0.671224 (Simulation time: 0 hr 15 min 57 sec) 
Heartbeat CPU 0 instructions: 570000002 cycles: 755198602 heartbeat IPC: 0.662426 cumulative IPC: 0.671034 (Simulation time: 0 hr 16 min 15 sec) 
Heartbeat CPU 0 instructions: 580000000 cycles: 770169982 heartbeat IPC: 0.667941 cumulative IPC: 0.670969 (Simulation time: 0 hr 16 min 33 sec) 
Heartbeat CPU 0 instructions: 590000001 cycles: 785125292 heartbeat IPC: 0.668659 cumulative IPC: 0.670922 (Simulation time: 0 hr 16 min 51 sec) 
Heartbeat CPU 0 instructions: 600000000 cycles: 799745539 heartbeat IPC: 0.683983 cumulative IPC: 0.671178 (Simulation time: 0 hr 17 min 9 sec) 
Finished CPU 0 instructions: 500000000 cycles: 744958644 cumulative IPC: 0.671178 (Simulation time: 0 hr 17 min 9 sec) 

CPU 0 Branch Prediction Accuracy: 93.7783% MPKI: 10.0718
Number of Branches: 80940586 Number of Mispredictions: 5035908
Number of LOAD Instructions: 184238101
Number of LOAD Instructions (ROI): 184238101
Number of STORE Instructions: 33143298
Number of STORE Instructions (ROI): 33143298
Total Destination Memory Operands: 33324321
Total Destination Memory Operands (ROI): 33324321
Total Source Memory Operands: 184238101
Total Source Memory Operands (ROI): 184238101
Number of DEPENDED LOADS: 4461253
Number of DEPENDED LOADS (ROI): 4461253
Number of SQ_ADDED: 33324292
Number of SQ_ADDED (ROI): 33324292
Number of LQ_ADDED: 184865766
Number of LQ_ADDED (ROI): 184865766
Number of Instructions read from trace: 600000256

ChampSim completed all CPUs

Region of Interest Statistics

CPU 0 cumulative IPC: 0.671178 instructions: 500000000 cycles: 744958644
ITLB TOTAL     ACCESS:   77745140  HIT:   77745140  MISS:          0
ITLB LOAD      ACCESS:   77745140  HIT:   77745140  MISS:          0
ITLB RFO       ACCESS:          0  HIT:          0  MISS:          0
ITLB PREFETCH  ACCESS:          0  HIT:          0  MISS:          0
ITLB WRITEBACK ACCESS:          0  HIT:          0  MISS:          0
ITLB PREFETCH  REQUESTED:          0  ISSUED:          0  USEFUL:          0  USELESS:          0
ITLB TOTAL MSHR MERGED:          0
ITLB LOAD MSHR MERGED:          0
ITLB RFO MSHR MERGED:          0
ITLB PREFETCH MSHR MERGED:          0
ITLB WRITEBACK MSHR MERGED:          0
ITLB TOTAL ACCESSES:   77745140 HITS:   77745140 MISSES:          0
ITLB LOAD ACCESSES:   77745140 HITS:   77745140 MISSES:          0
ITLB RFO ACCESSES:          0 HITS:          0 MISSES:          0
ITLB PREFETCH ACCESSES:          0 HITS:          0 MISSES:          0
ITLB WRITEBACK ACCESSES:          0 HITS:          0 MISSES:          0
ITLB RQ ACCESS:  500000245
ITLB RQ TO_CACHE:   77745140
ITLB RQ MERGED:  422255105
ITLB RQ FORWARD:          0
ITLB WQ ACCESS:          0
ITLB WQ TO_CACHE:          0
ITLB WQ MERGED:          0
ITLB WQ FORWARD:          0
DTLB TOTAL     ACCESS:   88436455  HIT:   87299605  MISS:    1136850
DTLB LOAD      ACCESS:   66309867  HIT:   65177257  MISS:    1132610
DTLB RFO       ACCESS:   22126588  HIT:   22122348  MISS:       4240
DTLB PREFETCH  ACCESS:          0  HIT:          0  MISS:          0
DTLB WRITEBACK ACCESS:          0  HIT:          0  MISS:          0
DTLB PREFETCH  REQUESTED:          0  ISSUED:          0  USEFUL:          0  USELESS:          0
DTLB TOTAL MSHR MERGED:     135522
DTLB LOAD MSHR MERGED:     133705
DTLB RFO MSHR MERGED:       1817
DTLB PREFETCH MSHR MERGED:          0
DTLB WRITEBACK MSHR MERGED:          0
DTLB TOTAL ACCESSES:   88571977 HITS:   87299605 MISSES:    1272372
DTLB LOAD ACCESSES:   66443572 HITS:   65177257 MISSES:    1266315
DTLB RFO ACCESSES:   22128405 HITS:   22122348 MISSES:       6057
DTLB PREFETCH ACCESSES:          0 HITS:          0 MISSES:          0
DTLB WRITEBACK ACCESSES:          0 HITS:          0 MISSES:          0
DTLB RQ ACCESS:  177579457
DTLB RQ TO_CACHE:   88571977
DTLB RQ MERGED:   89007480
DTLB RQ FORWARD:          0
DTLB WQ ACCESS:          0
DTLB WQ TO_CACHE:          0
DTLB WQ MERGED:          0
DTLB WQ FORWARD:          0
L1D TOTAL     ACCESS:  142098907  HIT:  136539851  MISS:    5559056
L1D LOAD      ACCESS:   61384107  HIT:   58280088  MISS:    3104019
L1D RFO       ACCESS:   27669057  HIT:   27587248  MISS:      81809
L1D PREFETCH  ACCESS:   53045743  HIT:   50672515  MISS:    2373228
L1D WRITEBACK ACCESS:          0  HIT:          0  MISS:          0
L1D PREFETCH  REQUESTED:   61669799  ISSUED:   60751639  USEFUL:     666342  USELESS:    1706891
L1D TOTAL MSHR MERGED:    1179905
L1D LOAD MSHR MERGED:     384072
L1D RFO MSHR MERGED:     164023
L1D PREFETCH MSHR MERGED:     631810
L1D WRITEBACK MSHR MERGED:          0
L1D TOTAL ACCESSES:  143376427 HITS:  136637466 MISSES:    6738961
L1D LOAD ACCESSES:   61669809 HITS:   58280098 MISSES:    3389711
L1D RFO ACCESSES:   27829288 HITS:   27587248 MISSES:     242040
L1D PREFETCH ACCESSES:   53877330 HITS:   50770120 MISSES:    3107210
L1D WRITEBACK ACCESSES:          0 HITS:          0 MISSES:          0
L1D RQ ACCESS:  149746491
L1D RQ TO_CACHE:   61669799
L1D RQ MERGED:   88076682
L1D RQ FORWARD:          0
L1D WQ ACCESS:   27832966
L1D WQ TO_CACHE:   27829288
L1D WQ MERGED:       3678
L1D WQ FORWARD:      97615
L1I TOTAL     ACCESS:   96222444  HIT:   96063176  MISS:     159268
L1I LOAD      ACCESS:   96222444  HIT:   96063176  MISS:     159268
L1I RFO       ACCESS:          0  HIT:          0  MISS:          0
L1I PREFETCH  ACCESS:          0  HIT:          0  MISS:          0
L1I WRITEBACK ACCESS:          0  HIT:          0  MISS:          0
L1I PREFETCH  REQUESTED:          0  ISSUED:          0  USEFUL:          0  USELESS:          0
L1I TOTAL MSHR MERGED:     130257
L1I LOAD MSHR MERGED:     130257
L1I RFO MSHR MERGED:          0
L1I PREFETCH MSHR MERGED:          0
L1I WRITEBACK MSHR MERGED:          0
L1I TOTAL ACCESSES:   96352701 HITS:   96063176 MISSES:     289525
L1I LOAD ACCESSES:   96352701 HITS:   96063176 MISSES:     289525
L1I RFO ACCESSES:          0 HITS:          0 MISSES:          0
L1I PREFETCH ACCESSES:          0 HITS:          0 MISSES:          0
L1I WRITEBACK ACCESSES:          0 HITS:          0 MISSES:          0
L1I RQ ACCESS:  500000245
L1I RQ TO_CACHE:   96352701
L1I RQ MERGED:  403647544
L1I RQ FORWARD:          0
L1I WQ ACCESS:          0
L1I WQ TO_CACHE:          0
L1I WQ MERGED:          0
L1I WQ FORWARD:          0
L2C TOTAL     ACCESS:    5911375  HIT:    3062697  MISS:    2848678
L2C LOAD      ACCESS:    3164897  HIT:    1583141  MISS:    1581756
L2C RFO       ACCESS:      77944  HIT:      45090  MISS:      32854
L2C PREFETCH  ACCESS:    2525004  HIT:    1296519  MISS:    1228485
L2C WRITEBACK ACCESS:     143530  HIT:     137947  MISS:       5583
L2C PREFETCH  REQUESTED:      52724  ISSUED:      52724  USEFUL:      18798  USELESS:    1209727
L2C TOTAL MSHR MERGED:       2189
L2C LOAD MSHR MERGED:        812
L2C RFO MSHR MERGED:          0
L2C PREFETCH MSHR MERGED:       1377
L2C WRITEBACK MSHR MERGED:          0
L2C TOTAL ACCESSES:    5913652 HITS:    3062780 MISSES:    2850872
L2C LOAD ACCESSES:    3164907 HITS:    1583151 MISSES:    1581756
L2C RFO ACCESSES:      78017 HITS:      45163 MISSES:      32854
L2C PREFETCH ACCESSES:    2527198 HITS:    1296519 MISSES:    1230679
L2C WRITEBACK ACCESSES:     143530 HITS:     137947 MISSES:       5583
L2C RQ ACCESS:    3242924
L2C RQ TO_CACHE:    3242841
L2C RQ MERGED:          0
L2C RQ FORWARD:          0
L2C WQ ACCESS:     143530
L2C WQ TO_CACHE:     143530
L2C WQ MERGED:          0
L2C WQ FORWARD:         83
LLC TOTAL     ACCESS:    2892635  HIT:    1888569  MISS:    1004066
LLC LOAD      ACCESS:    1580944  HIT:    1150107  MISS:     430837
LLC RFO       ACCESS:      32844  HIT:      32664  MISS:        180
LLC PREFETCH  ACCESS:    1229302  HIT:     656432  MISS:     572870
LLC WRITEBACK ACCESS:      49545  HIT:      49366  MISS:        179
LLC PREFETCH  REQUESTED:          0  ISSUED:          0  USEFUL:       3105  USELESS:     569700
LLC TOTAL MSHR MERGED:          0
LLC LOAD MSHR MERGED:          0
LLC RFO MSHR MERGED:          0
LLC PREFETCH MSHR MERGED:          0
LLC WRITEBACK MSHR MERGED:          0
LLC TOTAL ACCESSES:    2892645 HITS:    1888579 MISSES:    1004066
LLC LOAD ACCESSES:    1580944 HITS:    1150107 MISSES:     430837
LLC RFO ACCESSES:      32854 HITS:      32674 MISSES:        180
LLC PREFETCH ACCESSES:    1229302 HITS:     656432 MISSES:     572870
LLC WRITEBACK ACCESSES:      49545 HITS:      49366 MISSES:        179
LLC 0 RQ ACCESS:    1613798
LLC 0 RQ TO_CACHE:    1613788
LLC 0 RQ MERGED:          0
LLC 0 RQ FORWARD:          0
LLC WQ ACCESS:      49545
LLC WQ TO_CACHE:      49545
LLC WQ MERGED:          0
LLC WQ FORWARD:         10
Major fault: 0 Minor fault: 8460
CPU 0 L1D next line prefetcher final stats
CPU 0 L2C PC-based stride prefetcher final stats
All Misses: 1226980
All Hits: 2202250
SD Algo Stats - Switches: 0 SRR-Repls: 500846 BRR-Repls: 0

DRAM Statistics
 CHANNEL 0
 RQ ROW_BUFFER_HIT:     337422  ROW_BUFFER_MISS:     666454
 DBUS_CONGESTED:     316271
 WQ ROW_BUFFER_HIT:         65  ROW_BUFFER_MISS:        432  FULL:          0

 AVG_CONGESTED_CYCLE: 12
LOADS RETIRED: 153532848
INSTR RETIRED: 500000000
