
*** ChampSim Multicore Out-of-Order Simulator ***

Warmup Instructions: 100000000
Simulation Instructions: 500000000
Number of CPUs: 1
LLC sets: 2048
LLC ways: 16
Clean RRIP Policies: 2213230222132302 Dirty RRIP Policies: 1203130212031302 PSEL Width: 10 Track Set: 4294967295 PSEL Mask: 1 Demote Mask: 1140103011401030DS Algo: 0Window size: 0
Off-chip DRAM Size: 4096 MB Channels: 1 Width: 64-bit Data Rate: 1600 MT/s

CPU 0 runs /mnt/beegfs/iconst01/spec2017/Parest.trace.gz
NOT SORTED
TRACE STRING: /mnt/beegfs/iconst01/spec2017/Parest.trace.gz
SORTED
TRACE STRING: /mnt/beegfs/iconst01/spec2017/Parest.trace.gz
INITIAL
TRACE STRING: /mnt/beegfs/iconst01/spec2017/Parest.trace.gz

champsim_seed used: 623

CPU 0 L1D next line prefetcher
CPU 0 L2C IP-based stride prefetcher
Initialize DRRIP state
Assign rand_sets[0]: 454  LLC: 2048
rand_sets[0]: 454
Assign rand_sets[1]: 1662  LLC: 2048
rand_sets[1]: 1662
Assign rand_sets[2]: 1921  LLC: 2048
rand_sets[2]: 1921
Assign rand_sets[3]: 1131  LLC: 2048
rand_sets[3]: 1131
Assign rand_sets[4]: 331  LLC: 2048
rand_sets[4]: 331
Assign rand_sets[5]: 1531  LLC: 2048
rand_sets[5]: 1531
Assign rand_sets[6]: 482  LLC: 2048
rand_sets[6]: 482
Assign rand_sets[7]: 1275  LLC: 2048
rand_sets[7]: 1275
Assign rand_sets[8]: 1876  LLC: 2048
rand_sets[8]: 1876
Assign rand_sets[9]: 2038  LLC: 2048
rand_sets[9]: 2038
Assign rand_sets[10]: 701  LLC: 2048
rand_sets[10]: 701
Assign rand_sets[11]: 479  LLC: 2048
rand_sets[11]: 479
Assign rand_sets[12]: 892  LLC: 2048
rand_sets[12]: 892
Assign rand_sets[13]: 1820  LLC: 2048
rand_sets[13]: 1820
Assign rand_sets[14]: 1505  LLC: 2048
rand_sets[14]: 1505
Assign rand_sets[15]: 1159  LLC: 2048
rand_sets[15]: 1159
Assign rand_sets[16]: 513  LLC: 2048
rand_sets[16]: 513
Assign rand_sets[17]: 703  LLC: 2048
rand_sets[17]: 703
Assign rand_sets[18]: 561  LLC: 2048
rand_sets[18]: 561
Assign rand_sets[19]: 990  LLC: 2048
rand_sets[19]: 990
Assign rand_sets[20]: 342  LLC: 2048
rand_sets[20]: 342
Assign rand_sets[21]: 882  LLC: 2048
rand_sets[21]: 882
Assign rand_sets[22]: 15  LLC: 2048
rand_sets[22]: 15
Assign rand_sets[23]: 71  LLC: 2048
rand_sets[23]: 71
Assign rand_sets[24]: 1127  LLC: 2048
rand_sets[24]: 1127
Assign rand_sets[25]: 1382  LLC: 2048
rand_sets[25]: 1382
Assign rand_sets[26]: 647  LLC: 2048
rand_sets[26]: 647
Assign rand_sets[27]: 857  LLC: 2048
rand_sets[27]: 857
Assign rand_sets[28]: 1450  LLC: 2048
rand_sets[28]: 1450
Assign rand_sets[29]: 1160  LLC: 2048
rand_sets[29]: 1160
Assign rand_sets[30]: 1852  LLC: 2048
rand_sets[30]: 1852
Assign rand_sets[31]: 1881  LLC: 2048
rand_sets[31]: 1881
Assign rand_sets[32]: 1770  LLC: 2048
rand_sets[32]: 1770
Assign rand_sets[33]: 1622  LLC: 2048
rand_sets[33]: 1622
Assign rand_sets[34]: 275  LLC: 2048
rand_sets[34]: 275
Assign rand_sets[35]: 635  LLC: 2048
rand_sets[35]: 635
Assign rand_sets[36]: 466  LLC: 2048
rand_sets[36]: 466
Assign rand_sets[37]: 1413  LLC: 2048
rand_sets[37]: 1413
Assign rand_sets[38]: 417  LLC: 2048
rand_sets[38]: 417
Assign rand_sets[39]: 472  LLC: 2048
rand_sets[39]: 472
Assign rand_sets[40]: 1340  LLC: 2048
rand_sets[40]: 1340
Assign rand_sets[41]: 852  LLC: 2048
rand_sets[41]: 852
Assign rand_sets[42]: 1365  LLC: 2048
rand_sets[42]: 1365
Assign rand_sets[43]: 47  LLC: 2048
rand_sets[43]: 47
Assign rand_sets[44]: 823  LLC: 2048
rand_sets[44]: 823
Assign rand_sets[45]: 686  LLC: 2048
rand_sets[45]: 686
Assign rand_sets[46]: 1637  LLC: 2048
rand_sets[46]: 1637
Assign rand_sets[47]: 1115  LLC: 2048
rand_sets[47]: 1115
Assign rand_sets[48]: 986  LLC: 2048
rand_sets[48]: 986
Assign rand_sets[49]: 258  LLC: 2048
rand_sets[49]: 258
Assign rand_sets[50]: 633  LLC: 2048
rand_sets[50]: 633
Assign rand_sets[51]: 920  LLC: 2048
rand_sets[51]: 920
Assign rand_sets[52]: 204  LLC: 2048
rand_sets[52]: 204
Assign rand_sets[53]: 227  LLC: 2048
rand_sets[53]: 227
Assign rand_sets[54]: 1818  LLC: 2048
rand_sets[54]: 1818
Assign rand_sets[55]: 886  LLC: 2048
rand_sets[55]: 886
Assign rand_sets[56]: 1422  LLC: 2048
rand_sets[56]: 1422
Assign rand_sets[57]: 607  LLC: 2048
rand_sets[57]: 607
Assign rand_sets[58]: 217  LLC: 2048
rand_sets[58]: 217
Assign rand_sets[59]: 1945  LLC: 2048
rand_sets[59]: 1945
Assign rand_sets[60]: 143  LLC: 2048
rand_sets[60]: 143
Assign rand_sets[61]: 1311  LLC: 2048
rand_sets[61]: 1311
Assign rand_sets[62]: 319  LLC: 2048
rand_sets[62]: 319
Assign rand_sets[63]: 1846  LLC: 2048
rand_sets[63]: 1846
 CLEAN-RRIP-POLICY-1: 2-2-1-3-2-3-0-2- CLEAN-RRIP-POLICY-2: 2-2-1-3-2-3-0-2-
 DIRTY-RRIP-POLICY-1: 1-2-0-3-1-3-0-2- DIRTY-RRIP-POLICY-2: 1-2-0-3-1-3-0-2-
 PSEL width: 10
Heartbeat CPU 0 instructions: 10000001 cycles: 4387144 heartbeat IPC: 2.27939 cumulative IPC: 2.27939 (Simulation time: 0 hr 0 min 14 sec) 
Heartbeat CPU 0 instructions: 20000000 cycles: 8781333 heartbeat IPC: 2.27573 cumulative IPC: 2.27756 (Simulation time: 0 hr 0 min 28 sec) 
Heartbeat CPU 0 instructions: 30000003 cycles: 13213268 heartbeat IPC: 2.25635 cumulative IPC: 2.27045 (Simulation time: 0 hr 0 min 43 sec) 
Heartbeat CPU 0 instructions: 40000000 cycles: 17643877 heartbeat IPC: 2.25703 cumulative IPC: 2.26708 (Simulation time: 0 hr 0 min 56 sec) 
Heartbeat CPU 0 instructions: 50000000 cycles: 22052156 heartbeat IPC: 2.26846 cumulative IPC: 2.26735 (Simulation time: 0 hr 1 min 10 sec) 
Heartbeat CPU 0 instructions: 60000000 cycles: 26457904 heartbeat IPC: 2.26976 cumulative IPC: 2.26775 (Simulation time: 0 hr 1 min 23 sec) 
Heartbeat CPU 0 instructions: 70000000 cycles: 30858828 heartbeat IPC: 2.27225 cumulative IPC: 2.26839 (Simulation time: 0 hr 1 min 37 sec) 
Heartbeat CPU 0 instructions: 80000000 cycles: 35254427 heartbeat IPC: 2.275 cumulative IPC: 2.26922 (Simulation time: 0 hr 1 min 51 sec) 
Heartbeat CPU 0 instructions: 90000000 cycles: 39648717 heartbeat IPC: 2.27568 cumulative IPC: 2.26993 (Simulation time: 0 hr 2 min 5 sec) 
Heartbeat CPU 0 instructions: 100000000 cycles: 44046064 heartbeat IPC: 2.2741 cumulative IPC: 2.27035 (Simulation time: 0 hr 2 min 19 sec) 

Warmup complete CPU 0 instructions: 100000002 cycles: 44046074 (Simulation time: 0 hr 2 min 19 sec) 

Heartbeat CPU 0 instructions: 110000000 cycles: 53983562 heartbeat IPC: 1.00629 cumulative IPC: 1.00629 (Simulation time: 0 hr 2 min 37 sec) 
Heartbeat CPU 0 instructions: 120000000 cycles: 62987045 heartbeat IPC: 1.11068 cumulative IPC: 1.05591 (Simulation time: 0 hr 2 min 54 sec) 
Heartbeat CPU 0 instructions: 130000000 cycles: 72024026 heartbeat IPC: 1.10656 cumulative IPC: 1.07227 (Simulation time: 0 hr 3 min 12 sec) 
Heartbeat CPU 0 instructions: 140000000 cycles: 81116964 heartbeat IPC: 1.09975 cumulative IPC: 1.07901 (Simulation time: 0 hr 3 min 29 sec) 
Heartbeat CPU 0 instructions: 150000000 cycles: 92315234 heartbeat IPC: 0.892995 cumulative IPC: 1.03586 (Simulation time: 0 hr 3 min 47 sec) 
Heartbeat CPU 0 instructions: 160000000 cycles: 102781377 heartbeat IPC: 0.955462 cumulative IPC: 1.02153 (Simulation time: 0 hr 4 min 5 sec) 
Heartbeat CPU 0 instructions: 170000000 cycles: 112984740 heartbeat IPC: 0.980069 cumulative IPC: 1.0154 (Simulation time: 0 hr 4 min 23 sec) 
Heartbeat CPU 0 instructions: 180000000 cycles: 122987525 heartbeat IPC: 0.999722 cumulative IPC: 1.01341 (Simulation time: 0 hr 4 min 40 sec) 
Heartbeat CPU 0 instructions: 190000002 cycles: 133008892 heartbeat IPC: 0.997868 cumulative IPC: 1.01166 (Simulation time: 0 hr 4 min 58 sec) 
Heartbeat CPU 0 instructions: 200000000 cycles: 142369155 heartbeat IPC: 1.06835 cumulative IPC: 1.01706 (Simulation time: 0 hr 5 min 15 sec) 
Heartbeat CPU 0 instructions: 210000000 cycles: 152087680 heartbeat IPC: 1.02896 cumulative IPC: 1.01813 (Simulation time: 0 hr 5 min 33 sec) 
Heartbeat CPU 0 instructions: 220000000 cycles: 160964808 heartbeat IPC: 1.12649 cumulative IPC: 1.02635 (Simulation time: 0 hr 5 min 50 sec) 
Heartbeat CPU 0 instructions: 230000001 cycles: 172965206 heartbeat IPC: 0.833306 cumulative IPC: 1.00838 (Simulation time: 0 hr 6 min 9 sec) 
Heartbeat CPU 0 instructions: 240000000 cycles: 183719433 heartbeat IPC: 0.929867 cumulative IPC: 1.00234 (Simulation time: 0 hr 6 min 27 sec) 
Heartbeat CPU 0 instructions: 250000002 cycles: 193890546 heartbeat IPC: 0.983177 cumulative IPC: 1.00104 (Simulation time: 0 hr 6 min 45 sec) 
Heartbeat CPU 0 instructions: 260000000 cycles: 203725335 heartbeat IPC: 1.0168 cumulative IPC: 1.00201 (Simulation time: 0 hr 7 min 2 sec) 
Heartbeat CPU 0 instructions: 270000001 cycles: 213276502 heartbeat IPC: 1.04699 cumulative IPC: 1.00455 (Simulation time: 0 hr 7 min 20 sec) 
Heartbeat CPU 0 instructions: 280000000 cycles: 223109819 heartbeat IPC: 1.01695 cumulative IPC: 1.00523 (Simulation time: 0 hr 7 min 37 sec) 
Heartbeat CPU 0 instructions: 290000002 cycles: 232176160 heartbeat IPC: 1.10298 cumulative IPC: 1.00994 (Simulation time: 0 hr 7 min 55 sec) 
Heartbeat CPU 0 instructions: 300000000 cycles: 241697727 heartbeat IPC: 1.05025 cumulative IPC: 1.01188 (Simulation time: 0 hr 8 min 12 sec) 
Heartbeat CPU 0 instructions: 310000000 cycles: 250559328 heartbeat IPC: 1.12846 cumulative IPC: 1.01688 (Simulation time: 0 hr 8 min 29 sec) 
Heartbeat CPU 0 instructions: 320000000 cycles: 259526504 heartbeat IPC: 1.11518 cumulative IPC: 1.02097 (Simulation time: 0 hr 8 min 47 sec) 
Heartbeat CPU 0 instructions: 330000003 cycles: 268653053 heartbeat IPC: 1.0957 cumulative IPC: 1.02401 (Simulation time: 0 hr 9 min 4 sec) 
Heartbeat CPU 0 instructions: 340000000 cycles: 278474746 heartbeat IPC: 1.01815 cumulative IPC: 1.02377 (Simulation time: 0 hr 9 min 22 sec) 
Heartbeat CPU 0 instructions: 350000000 cycles: 289065206 heartbeat IPC: 0.944246 cumulative IPC: 1.02033 (Simulation time: 0 hr 9 min 40 sec) 
Heartbeat CPU 0 instructions: 360000000 cycles: 299290719 heartbeat IPC: 0.977946 cumulative IPC: 1.01863 (Simulation time: 0 hr 9 min 57 sec) 
Heartbeat CPU 0 instructions: 370000000 cycles: 309155992 heartbeat IPC: 1.01366 cumulative IPC: 1.01845 (Simulation time: 0 hr 10 min 15 sec) 
Heartbeat CPU 0 instructions: 380000000 cycles: 318727413 heartbeat IPC: 1.04478 cumulative IPC: 1.01936 (Simulation time: 0 hr 10 min 32 sec) 
Heartbeat CPU 0 instructions: 390000002 cycles: 327987479 heartbeat IPC: 1.07991 cumulative IPC: 1.02134 (Simulation time: 0 hr 10 min 50 sec) 
Heartbeat CPU 0 instructions: 400000000 cycles: 337629011 heartbeat IPC: 1.03718 cumulative IPC: 1.02186 (Simulation time: 0 hr 11 min 7 sec) 
Heartbeat CPU 0 instructions: 410000000 cycles: 346498066 heartbeat IPC: 1.12752 cumulative IPC: 1.02496 (Simulation time: 0 hr 11 min 24 sec) 
Heartbeat CPU 0 instructions: 420000000 cycles: 357220629 heartbeat IPC: 0.932613 cumulative IPC: 1.02179 (Simulation time: 0 hr 11 min 42 sec) 
Heartbeat CPU 0 instructions: 430000000 cycles: 368261379 heartbeat IPC: 0.905736 cumulative IPC: 1.01784 (Simulation time: 0 hr 12 min 0 sec) 
Heartbeat CPU 0 instructions: 440000000 cycles: 378401572 heartbeat IPC: 0.986175 cumulative IPC: 1.01688 (Simulation time: 0 hr 12 min 18 sec) 
Heartbeat CPU 0 instructions: 450000000 cycles: 388370164 heartbeat IPC: 1.00315 cumulative IPC: 1.01648 (Simulation time: 0 hr 12 min 35 sec) 
Heartbeat CPU 0 instructions: 460000000 cycles: 398185418 heartbeat IPC: 1.01882 cumulative IPC: 1.01655 (Simulation time: 0 hr 12 min 53 sec) 
Heartbeat CPU 0 instructions: 470000001 cycles: 408009118 heartbeat IPC: 1.01795 cumulative IPC: 1.01659 (Simulation time: 0 hr 13 min 10 sec) 
Heartbeat CPU 0 instructions: 480000000 cycles: 417140681 heartbeat IPC: 1.0951 cumulative IPC: 1.01851 (Simulation time: 0 hr 13 min 27 sec) 
Heartbeat CPU 0 instructions: 490000000 cycles: 426766374 heartbeat IPC: 1.03889 cumulative IPC: 1.01902 (Simulation time: 0 hr 13 min 45 sec) 
Heartbeat CPU 0 instructions: 500000000 cycles: 435896709 heartbeat IPC: 1.09525 cumulative IPC: 1.0208 (Simulation time: 0 hr 14 min 2 sec) 
Heartbeat CPU 0 instructions: 510000000 cycles: 444796349 heartbeat IPC: 1.12364 cumulative IPC: 1.02308 (Simulation time: 0 hr 14 min 19 sec) 
Heartbeat CPU 0 instructions: 520000000 cycles: 453989852 heartbeat IPC: 1.08772 cumulative IPC: 1.02453 (Simulation time: 0 hr 14 min 36 sec) 
Heartbeat CPU 0 instructions: 530000001 cycles: 464017234 heartbeat IPC: 0.997269 cumulative IPC: 1.02388 (Simulation time: 0 hr 14 min 54 sec) 
Heartbeat CPU 0 instructions: 540000000 cycles: 474716580 heartbeat IPC: 0.934636 cumulative IPC: 1.02166 (Simulation time: 0 hr 15 min 12 sec) 
Heartbeat CPU 0 instructions: 550000003 cycles: 485081234 heartbeat IPC: 0.964818 cumulative IPC: 1.02033 (Simulation time: 0 hr 15 min 29 sec) 
Heartbeat CPU 0 instructions: 560000000 cycles: 495104605 heartbeat IPC: 0.997668 cumulative IPC: 1.01982 (Simulation time: 0 hr 15 min 47 sec) 
Heartbeat CPU 0 instructions: 570000002 cycles: 504817820 heartbeat IPC: 1.02953 cumulative IPC: 1.02003 (Simulation time: 0 hr 16 min 4 sec) 
Heartbeat CPU 0 instructions: 580000000 cycles: 514235112 heartbeat IPC: 1.06188 cumulative IPC: 1.02087 (Simulation time: 0 hr 16 min 21 sec) 
Heartbeat CPU 0 instructions: 590000002 cycles: 523964656 heartbeat IPC: 1.0278 cumulative IPC: 1.02101 (Simulation time: 0 hr 16 min 39 sec) 
Heartbeat CPU 0 instructions: 600000000 cycles: 533115717 heartbeat IPC: 1.09277 cumulative IPC: 1.02235 (Simulation time: 0 hr 16 min 56 sec) 
Finished CPU 0 instructions: 500000000 cycles: 489069657 cumulative IPC: 1.02235 (Simulation time: 0 hr 16 min 56 sec) 

CPU 0 Branch Prediction Accuracy: 97.8526% MPKI: 2.66709
Number of Branches: 62099103 Number of Mispredictions: 1333545
Number of LOAD Instructions: 210576465
Number of LOAD Instructions (ROI): 210576465
Number of STORE Instructions: 16915507
Number of STORE Instructions (ROI): 16915507
Total Destination Memory Operands: 16918869
Total Destination Memory Operands (ROI): 16918869
Total Source Memory Operands: 210576465
Total Source Memory Operands (ROI): 210576465
Number of DEPENDED LOADS: 345624
Number of DEPENDED LOADS (ROI): 345624
Number of SQ_ADDED: 16918826
Number of SQ_ADDED (ROI): 16918826
Number of LQ_ADDED: 210608879
Number of LQ_ADDED (ROI): 210608879
Number of Instructions read from trace: 600000257

ChampSim completed all CPUs

Region of Interest Statistics

CPU 0 cumulative IPC: 1.02235 instructions: 500000000 cycles: 489069657
ITLB TOTAL     ACCESS:   76473268  HIT:   76473230  MISS:         38
ITLB LOAD      ACCESS:   76473268  HIT:   76473230  MISS:         38
ITLB RFO       ACCESS:          0  HIT:          0  MISS:          0
ITLB PREFETCH  ACCESS:          0  HIT:          0  MISS:          0
ITLB WRITEBACK ACCESS:          0  HIT:          0  MISS:          0
ITLB PREFETCH  REQUESTED:          0  ISSUED:          0  USEFUL:          0  USELESS:          0
ITLB TOTAL MSHR MERGED:         37
ITLB LOAD MSHR MERGED:         37
ITLB RFO MSHR MERGED:          0
ITLB PREFETCH MSHR MERGED:          0
ITLB WRITEBACK MSHR MERGED:          0
ITLB TOTAL ACCESSES:   76473305 HITS:   76473230 MISSES:         75
ITLB LOAD ACCESSES:   76473305 HITS:   76473230 MISSES:         75
ITLB RFO ACCESSES:          0 HITS:          0 MISSES:          0
ITLB PREFETCH ACCESSES:          0 HITS:          0 MISSES:          0
ITLB WRITEBACK ACCESSES:          0 HITS:          0 MISSES:          0
ITLB RQ ACCESS:  500000188
ITLB RQ TO_CACHE:   76473306
ITLB RQ MERGED:  423526882
ITLB RQ FORWARD:          0
ITLB WQ ACCESS:          0
ITLB WQ TO_CACHE:          0
ITLB WQ MERGED:          0
ITLB WQ FORWARD:          0
DTLB TOTAL     ACCESS:  136612335  HIT:  136409541  MISS:     202794
DTLB LOAD      ACCESS:  128549877  HIT:  128349804  MISS:     200073
DTLB RFO       ACCESS:    8062458  HIT:    8059737  MISS:       2721
DTLB PREFETCH  ACCESS:          0  HIT:          0  MISS:          0
DTLB WRITEBACK ACCESS:          0  HIT:          0  MISS:          0
DTLB PREFETCH  REQUESTED:          0  ISSUED:          0  USEFUL:          0  USELESS:          0
DTLB TOTAL MSHR MERGED:     446576
DTLB LOAD MSHR MERGED:     442583
DTLB RFO MSHR MERGED:       3993
DTLB PREFETCH MSHR MERGED:          0
DTLB WRITEBACK MSHR MERGED:          0
DTLB TOTAL ACCESSES:  137058911 HITS:  136409541 MISSES:     649370
DTLB LOAD ACCESSES:  128992460 HITS:  128349804 MISSES:     642656
DTLB RFO ACCESSES:    8066451 HITS:    8059737 MISSES:       6714
DTLB PREFETCH ACCESSES:          0 HITS:          0 MISSES:          0
DTLB WRITEBACK ACCESSES:          0 HITS:          0 MISSES:          0
DTLB RQ ACCESS:  189418932
DTLB RQ TO_CACHE:  137058911
DTLB RQ MERGED:   52360021
DTLB RQ FORWARD:          0
DTLB WQ ACCESS:          0
DTLB WQ TO_CACHE:          0
DTLB WQ MERGED:          0
DTLB WQ FORWARD:          0
L1D TOTAL     ACCESS:  124776563  HIT:  107219563  MISS:   17557000
L1D LOAD      ACCESS:   72077275  HIT:   61700972  MISS:   10376303
L1D RFO       ACCESS:   14015233  HIT:   13862410  MISS:     152823
L1D PREFETCH  ACCESS:   38684055  HIT:   31656181  MISS:    7027874
L1D WRITEBACK ACCESS:          0  HIT:          0  MISS:          0
L1D PREFETCH  REQUESTED:   85515344  ISSUED:   84194064  USEFUL:    5768446  USELESS:    1259439
L1D TOTAL MSHR MERGED:   32396200
L1D LOAD MSHR MERGED:   18729186
L1D RFO MSHR MERGED:     263768
L1D PREFETCH MSHR MERGED:   13403246
L1D WRITEBACK MSHR MERGED:          0
L1D TOTAL ACCESSES:  157173244 HITS:  107220045 MISSES:   49953199
L1D LOAD ACCESSES:   85515348 HITS:   61700976 MISSES:   23814372
L1D RFO ACCESSES:   14278983 HITS:   13862410 MISSES:     416573
L1D PREFETCH ACCESSES:   57378913 HITS:   31656659 MISSES:   25722254
L1D WRITEBACK ACCESSES:          0 HITS:          0 MISSES:          0
L1D RQ ACCESS:  175129910
L1D RQ TO_CACHE:   85515344
L1D RQ MERGED:   89614562
L1D RQ FORWARD:          0
L1D WQ ACCESS:   14289037
L1D WQ TO_CACHE:   14278983
L1D WQ MERGED:      10054
L1D WQ FORWARD:        482
L1I TOTAL     ACCESS:   93512650  HIT:   93510854  MISS:       1796
L1I LOAD      ACCESS:   93512650  HIT:   93510854  MISS:       1796
L1I RFO       ACCESS:          0  HIT:          0  MISS:          0
L1I PREFETCH  ACCESS:          0  HIT:          0  MISS:          0
L1I WRITEBACK ACCESS:          0  HIT:          0  MISS:          0
L1I PREFETCH  REQUESTED:          0  ISSUED:          0  USEFUL:          0  USELESS:          0
L1I TOTAL MSHR MERGED:       2361
L1I LOAD MSHR MERGED:       2361
L1I RFO MSHR MERGED:          0
L1I PREFETCH MSHR MERGED:          0
L1I WRITEBACK MSHR MERGED:          0
L1I TOTAL ACCESSES:   93515011 HITS:   93510854 MISSES:       4157
L1I LOAD ACCESSES:   93515011 HITS:   93510854 MISSES:       4157
L1I RFO ACCESSES:          0 HITS:          0 MISSES:          0
L1I PREFETCH ACCESSES:          0 HITS:          0 MISSES:          0
L1I WRITEBACK ACCESSES:          0 HITS:          0 MISSES:          0
L1I RQ ACCESS:  500000187
L1I RQ TO_CACHE:   93515011
L1I RQ MERGED:  406485176
L1I RQ FORWARD:          0
L1I WQ ACCESS:          0
L1I WQ TO_CACHE:          0
L1I WQ MERGED:          0
L1I WQ FORWARD:          0
L2C TOTAL     ACCESS:   20886488  HIT:    8658177  MISS:   12228311
L2C LOAD      ACCESS:    5086960  HIT:    2134558  MISS:    2952402
L2C RFO       ACCESS:     152805  HIT:       6512  MISS:     146293
L2C PREFETCH  ACCESS:   13873970  HIT:    4744465  MISS:    9129505
L2C WRITEBACK ACCESS:    1772753  HIT:    1772642  MISS:        111
L2C PREFETCH  REQUESTED:    1795943  ISSUED:    1795943  USEFUL:    1057399  USELESS:    8073773
L2C TOTAL MSHR MERGED:     100595
L2C LOAD MSHR MERGED:      24402
L2C RFO MSHR MERGED:          0
L2C PREFETCH MSHR MERGED:      76193
L2C WRITEBACK MSHR MERGED:          0
L2C TOTAL ACCESSES:   21009324 HITS:    8658220 MISSES:   12351104
L2C LOAD ACCESSES:    5086982 HITS:    2134580 MISSES:    2952402
L2C RFO ACCESSES:     152805 HITS:       6512 MISSES:     146293
L2C PREFETCH ACCESSES:   13996784 HITS:    4744486 MISSES:    9252298
L2C WRITEBACK ACCESSES:    1772753 HITS:    1772642 MISSES:        111
L2C RQ ACCESS:    5239787
L2C RQ TO_CACHE:    5239765
L2C RQ MERGED:          0
L2C RQ FORWARD:          0
L2C WQ ACCESS:    1772753
L2C WQ TO_CACHE:    1772753
L2C WQ MERGED:          0
L2C WQ FORWARD:         43
LLC TOTAL     ACCESS:   12530851  HIT:    6256639  MISS:    6274212
LLC LOAD      ACCESS:    2927981  HIT:    2345472  MISS:     582509
LLC RFO       ACCESS:     146293  HIT:     118893  MISS:      27400
LLC PREFETCH  ACCESS:    9170588  HIT:    3528544  MISS:    5642044
LLC WRITEBACK ACCESS:     285989  HIT:     263730  MISS:      22259
LLC PREFETCH  REQUESTED:          0  ISSUED:          0  USEFUL:       2239  USELESS:    5639952
LLC TOTAL MSHR MERGED:       1007
LLC LOAD MSHR MERGED:        162
LLC RFO MSHR MERGED:          0
LLC PREFETCH MSHR MERGED:        845
LLC WRITEBACK MSHR MERGED:          0
LLC TOTAL ACCESSES:   12531892 HITS:    6256673 MISSES:    6275219
LLC LOAD ACCESSES:    2928000 HITS:    2345491 MISSES:     582509
LLC RFO ACCESSES:     146293 HITS:     118893 MISSES:      27400
LLC PREFETCH ACCESSES:    9171610 HITS:    3528559 MISSES:    5643051
LLC WRITEBACK ACCESSES:     285989 HITS:     263730 MISSES:      22259
LLC 0 RQ ACCESS:    3074293
LLC 0 RQ TO_CACHE:    3074274
LLC 0 RQ MERGED:          0
LLC 0 RQ FORWARD:          0
LLC WQ ACCESS:     285989
LLC WQ TO_CACHE:     285989
LLC WQ MERGED:          0
LLC WQ FORWARD:         34
Major fault: 0 Minor fault: 6524
CPU 0 L1D next line prefetcher final stats
CPU 0 L2C PC-based stride prefetcher final stats
All Misses: 8073393
All Hits: 6982472
SD Algo Stats - Switches: 0 SRR-Repls: 609589 BRR-Repls: 0

DRAM Statistics
 CHANNEL 0
 RQ ROW_BUFFER_HIT:    5483134  ROW_BUFFER_MISS:     765538
 DBUS_CONGESTED:    2358285
 WQ ROW_BUFFER_HIT:       4328  ROW_BUFFER_MISS:      28801  FULL:          0

 AVG_CONGESTED_CYCLE: 12
LOADS RETIRED: 175418235
INSTR RETIRED: 500000000
