
*** ChampSim Multicore Out-of-Order Simulator ***

Warmup Instructions: 100000000
Simulation Instructions: 500000000
Number of CPUs: 1
LLC sets: 2048
LLC ways: 16
Clean RRIP Policies: 2213230022132300 Dirty RRIP Policies: 1203130012031300 PSEL Width: 10 Track Set: 4294967295 PSEL Mask: 1 Demote Mask: 1040101010401010DS Algo: 0Window size: 0
Off-chip DRAM Size: 4096 MB Channels: 1 Width: 64-bit Data Rate: 1600 MT/s

CPU 0 runs /mnt/beegfs/iconst01/spec2017/Gcc.trace.gz
NOT SORTED
TRACE STRING: /mnt/beegfs/iconst01/spec2017/Gcc.trace.gz
SORTED
TRACE STRING: /mnt/beegfs/iconst01/spec2017/Gcc.trace.gz
INITIAL
TRACE STRING: /mnt/beegfs/iconst01/spec2017/Gcc.trace.gz

champsim_seed used: 269

CPU 0 L1D next line prefetcher
CPU 0 L2C IP-based stride prefetcher
Initialize DRRIP state
Assign rand_sets[0]: 454  LLC: 2048
rand_sets[0]: 454
Assign rand_sets[1]: 1662  LLC: 2048
rand_sets[1]: 1662
Assign rand_sets[2]: 1921  LLC: 2048
rand_sets[2]: 1921
Assign rand_sets[3]: 1131  LLC: 2048
rand_sets[3]: 1131
Assign rand_sets[4]: 331  LLC: 2048
rand_sets[4]: 331
Assign rand_sets[5]: 1531  LLC: 2048
rand_sets[5]: 1531
Assign rand_sets[6]: 482  LLC: 2048
rand_sets[6]: 482
Assign rand_sets[7]: 1275  LLC: 2048
rand_sets[7]: 1275
Assign rand_sets[8]: 1876  LLC: 2048
rand_sets[8]: 1876
Assign rand_sets[9]: 2038  LLC: 2048
rand_sets[9]: 2038
Assign rand_sets[10]: 701  LLC: 2048
rand_sets[10]: 701
Assign rand_sets[11]: 479  LLC: 2048
rand_sets[11]: 479
Assign rand_sets[12]: 892  LLC: 2048
rand_sets[12]: 892
Assign rand_sets[13]: 1820  LLC: 2048
rand_sets[13]: 1820
Assign rand_sets[14]: 1505  LLC: 2048
rand_sets[14]: 1505
Assign rand_sets[15]: 1159  LLC: 2048
rand_sets[15]: 1159
Assign rand_sets[16]: 513  LLC: 2048
rand_sets[16]: 513
Assign rand_sets[17]: 703  LLC: 2048
rand_sets[17]: 703
Assign rand_sets[18]: 561  LLC: 2048
rand_sets[18]: 561
Assign rand_sets[19]: 990  LLC: 2048
rand_sets[19]: 990
Assign rand_sets[20]: 342  LLC: 2048
rand_sets[20]: 342
Assign rand_sets[21]: 882  LLC: 2048
rand_sets[21]: 882
Assign rand_sets[22]: 15  LLC: 2048
rand_sets[22]: 15
Assign rand_sets[23]: 71  LLC: 2048
rand_sets[23]: 71
Assign rand_sets[24]: 1127  LLC: 2048
rand_sets[24]: 1127
Assign rand_sets[25]: 1382  LLC: 2048
rand_sets[25]: 1382
Assign rand_sets[26]: 647  LLC: 2048
rand_sets[26]: 647
Assign rand_sets[27]: 857  LLC: 2048
rand_sets[27]: 857
Assign rand_sets[28]: 1450  LLC: 2048
rand_sets[28]: 1450
Assign rand_sets[29]: 1160  LLC: 2048
rand_sets[29]: 1160
Assign rand_sets[30]: 1852  LLC: 2048
rand_sets[30]: 1852
Assign rand_sets[31]: 1881  LLC: 2048
rand_sets[31]: 1881
Assign rand_sets[32]: 1770  LLC: 2048
rand_sets[32]: 1770
Assign rand_sets[33]: 1622  LLC: 2048
rand_sets[33]: 1622
Assign rand_sets[34]: 275  LLC: 2048
rand_sets[34]: 275
Assign rand_sets[35]: 635  LLC: 2048
rand_sets[35]: 635
Assign rand_sets[36]: 466  LLC: 2048
rand_sets[36]: 466
Assign rand_sets[37]: 1413  LLC: 2048
rand_sets[37]: 1413
Assign rand_sets[38]: 417  LLC: 2048
rand_sets[38]: 417
Assign rand_sets[39]: 472  LLC: 2048
rand_sets[39]: 472
Assign rand_sets[40]: 1340  LLC: 2048
rand_sets[40]: 1340
Assign rand_sets[41]: 852  LLC: 2048
rand_sets[41]: 852
Assign rand_sets[42]: 1365  LLC: 2048
rand_sets[42]: 1365
Assign rand_sets[43]: 47  LLC: 2048
rand_sets[43]: 47
Assign rand_sets[44]: 823  LLC: 2048
rand_sets[44]: 823
Assign rand_sets[45]: 686  LLC: 2048
rand_sets[45]: 686
Assign rand_sets[46]: 1637  LLC: 2048
rand_sets[46]: 1637
Assign rand_sets[47]: 1115  LLC: 2048
rand_sets[47]: 1115
Assign rand_sets[48]: 986  LLC: 2048
rand_sets[48]: 986
Assign rand_sets[49]: 258  LLC: 2048
rand_sets[49]: 258
Assign rand_sets[50]: 633  LLC: 2048
rand_sets[50]: 633
Assign rand_sets[51]: 920  LLC: 2048
rand_sets[51]: 920
Assign rand_sets[52]: 204  LLC: 2048
rand_sets[52]: 204
Assign rand_sets[53]: 227  LLC: 2048
rand_sets[53]: 227
Assign rand_sets[54]: 1818  LLC: 2048
rand_sets[54]: 1818
Assign rand_sets[55]: 886  LLC: 2048
rand_sets[55]: 886
Assign rand_sets[56]: 1422  LLC: 2048
rand_sets[56]: 1422
Assign rand_sets[57]: 607  LLC: 2048
rand_sets[57]: 607
Assign rand_sets[58]: 217  LLC: 2048
rand_sets[58]: 217
Assign rand_sets[59]: 1945  LLC: 2048
rand_sets[59]: 1945
Assign rand_sets[60]: 143  LLC: 2048
rand_sets[60]: 143
Assign rand_sets[61]: 1311  LLC: 2048
rand_sets[61]: 1311
Assign rand_sets[62]: 319  LLC: 2048
rand_sets[62]: 319
Assign rand_sets[63]: 1846  LLC: 2048
rand_sets[63]: 1846
 CLEAN-RRIP-POLICY-1: 2-2-1-3-2-3-0-0- CLEAN-RRIP-POLICY-2: 2-2-1-3-2-3-0-0-
 DIRTY-RRIP-POLICY-1: 1-2-0-3-1-3-0-0- DIRTY-RRIP-POLICY-2: 1-2-0-3-1-3-0-0-
 PSEL width: 10
Heartbeat CPU 0 instructions: 10000001 cycles: 7315981 heartbeat IPC: 1.36687 cumulative IPC: 1.36687 (Simulation time: 0 hr 0 min 13 sec) 
Heartbeat CPU 0 instructions: 20000000 cycles: 14307471 heartbeat IPC: 1.43031 cumulative IPC: 1.39787 (Simulation time: 0 hr 0 min 27 sec) 
Heartbeat CPU 0 instructions: 30000001 cycles: 21020376 heartbeat IPC: 1.48967 cumulative IPC: 1.42719 (Simulation time: 0 hr 0 min 42 sec) 
Heartbeat CPU 0 instructions: 40000000 cycles: 27481223 heartbeat IPC: 1.54778 cumulative IPC: 1.45554 (Simulation time: 0 hr 0 min 57 sec) 
Heartbeat CPU 0 instructions: 50000001 cycles: 33583073 heartbeat IPC: 1.63885 cumulative IPC: 1.48885 (Simulation time: 0 hr 1 min 11 sec) 
Heartbeat CPU 0 instructions: 60000000 cycles: 40064318 heartbeat IPC: 1.54291 cumulative IPC: 1.49759 (Simulation time: 0 hr 1 min 26 sec) 
Heartbeat CPU 0 instructions: 70000000 cycles: 47103400 heartbeat IPC: 1.42064 cumulative IPC: 1.48609 (Simulation time: 0 hr 1 min 39 sec) 
Heartbeat CPU 0 instructions: 80000000 cycles: 54193052 heartbeat IPC: 1.41051 cumulative IPC: 1.4762 (Simulation time: 0 hr 1 min 53 sec) 
Heartbeat CPU 0 instructions: 90000003 cycles: 61197408 heartbeat IPC: 1.42768 cumulative IPC: 1.47065 (Simulation time: 0 hr 2 min 7 sec) 
Heartbeat CPU 0 instructions: 100000000 cycles: 68364722 heartbeat IPC: 1.39522 cumulative IPC: 1.46274 (Simulation time: 0 hr 2 min 20 sec) 

Warmup complete CPU 0 instructions: 100000004 cycles: 68364723 (Simulation time: 0 hr 2 min 20 sec) 

Heartbeat CPU 0 instructions: 110000003 cycles: 96040674 heartbeat IPC: 0.361325 cumulative IPC: 0.361324 (Simulation time: 0 hr 2 min 46 sec) 
Heartbeat CPU 0 instructions: 120000000 cycles: 123516284 heartbeat IPC: 0.363959 cumulative IPC: 0.362637 (Simulation time: 0 hr 3 min 12 sec) 
Heartbeat CPU 0 instructions: 130000000 cycles: 148519326 heartbeat IPC: 0.399951 cumulative IPC: 0.374277 (Simulation time: 0 hr 3 min 38 sec) 
Heartbeat CPU 0 instructions: 140000000 cycles: 178019860 heartbeat IPC: 0.338977 cumulative IPC: 0.36478 (Simulation time: 0 hr 4 min 4 sec) 
Heartbeat CPU 0 instructions: 150000000 cycles: 207869965 heartbeat IPC: 0.335007 cumulative IPC: 0.358409 (Simulation time: 0 hr 4 min 30 sec) 
Heartbeat CPU 0 instructions: 160000000 cycles: 235287909 heartbeat IPC: 0.364725 cumulative IPC: 0.359447 (Simulation time: 0 hr 4 min 54 sec) 
Heartbeat CPU 0 instructions: 170000001 cycles: 263358163 heartbeat IPC: 0.356249 cumulative IPC: 0.358986 (Simulation time: 0 hr 5 min 21 sec) 
Heartbeat CPU 0 instructions: 180000000 cycles: 291847716 heartbeat IPC: 0.351006 cumulative IPC: 0.357969 (Simulation time: 0 hr 5 min 48 sec) 
Heartbeat CPU 0 instructions: 190000002 cycles: 319909566 heartbeat IPC: 0.356356 cumulative IPC: 0.357789 (Simulation time: 0 hr 6 min 13 sec) 
Heartbeat CPU 0 instructions: 200000000 cycles: 348253987 heartbeat IPC: 0.352803 cumulative IPC: 0.357284 (Simulation time: 0 hr 6 min 40 sec) 
Heartbeat CPU 0 instructions: 210000002 cycles: 376113526 heartbeat IPC: 0.358944 cumulative IPC: 0.357434 (Simulation time: 0 hr 7 min 6 sec) 
Heartbeat CPU 0 instructions: 220000000 cycles: 405225051 heartbeat IPC: 0.343506 cumulative IPC: 0.356231 (Simulation time: 0 hr 7 min 31 sec) 
Heartbeat CPU 0 instructions: 230000000 cycles: 432780188 heartbeat IPC: 0.362909 cumulative IPC: 0.356736 (Simulation time: 0 hr 7 min 56 sec) 
Heartbeat CPU 0 instructions: 240000000 cycles: 458670854 heartbeat IPC: 0.38624 cumulative IPC: 0.358693 (Simulation time: 0 hr 8 min 20 sec) 
Heartbeat CPU 0 instructions: 250000000 cycles: 488831879 heartbeat IPC: 0.331554 cumulative IPC: 0.356746 (Simulation time: 0 hr 8 min 47 sec) 
Heartbeat CPU 0 instructions: 260000000 cycles: 515941527 heartbeat IPC: 0.368872 cumulative IPC: 0.357481 (Simulation time: 0 hr 9 min 13 sec) 
Heartbeat CPU 0 instructions: 270000003 cycles: 544449883 heartbeat IPC: 0.350774 cumulative IPC: 0.357079 (Simulation time: 0 hr 9 min 40 sec) 
Heartbeat CPU 0 instructions: 280000000 cycles: 572708950 heartbeat IPC: 0.353869 cumulative IPC: 0.356899 (Simulation time: 0 hr 10 min 6 sec) 
Heartbeat CPU 0 instructions: 290000000 cycles: 601620469 heartbeat IPC: 0.345883 cumulative IPC: 0.356302 (Simulation time: 0 hr 10 min 33 sec) 
Heartbeat CPU 0 instructions: 300000000 cycles: 631548795 heartbeat IPC: 0.334132 cumulative IPC: 0.355124 (Simulation time: 0 hr 10 min 59 sec) 
Heartbeat CPU 0 instructions: 310000001 cycles: 660914324 heartbeat IPC: 0.340535 cumulative IPC: 0.354401 (Simulation time: 0 hr 11 min 24 sec) 
Heartbeat CPU 0 instructions: 320000000 cycles: 689141534 heartbeat IPC: 0.354268 cumulative IPC: 0.354395 (Simulation time: 0 hr 11 min 50 sec) 
Heartbeat CPU 0 instructions: 330000000 cycles: 717798087 heartbeat IPC: 0.34896 cumulative IPC: 0.354155 (Simulation time: 0 hr 12 min 15 sec) 
Heartbeat CPU 0 instructions: 340000000 cycles: 747103351 heartbeat IPC: 0.341236 cumulative IPC: 0.353597 (Simulation time: 0 hr 12 min 40 sec) 
Heartbeat CPU 0 instructions: 350000003 cycles: 774137713 heartbeat IPC: 0.3699 cumulative IPC: 0.354222 (Simulation time: 0 hr 13 min 5 sec) 
Heartbeat CPU 0 instructions: 360000000 cycles: 802233344 heartbeat IPC: 0.355927 cumulative IPC: 0.354287 (Simulation time: 0 hr 13 min 29 sec) 
Heartbeat CPU 0 instructions: 370000000 cycles: 830401311 heartbeat IPC: 0.355013 cumulative IPC: 0.354314 (Simulation time: 0 hr 13 min 53 sec) 
Heartbeat CPU 0 instructions: 380000000 cycles: 858901793 heartbeat IPC: 0.350871 cumulative IPC: 0.35419 (Simulation time: 0 hr 14 min 17 sec) 
Heartbeat CPU 0 instructions: 390000001 cycles: 886503321 heartbeat IPC: 0.362299 cumulative IPC: 0.354463 (Simulation time: 0 hr 14 min 41 sec) 
Heartbeat CPU 0 instructions: 400000000 cycles: 915126931 heartbeat IPC: 0.349362 cumulative IPC: 0.354291 (Simulation time: 0 hr 15 min 5 sec) 
Heartbeat CPU 0 instructions: 410000001 cycles: 942407677 heartbeat IPC: 0.366559 cumulative IPC: 0.354674 (Simulation time: 0 hr 15 min 29 sec) 
Heartbeat CPU 0 instructions: 420000000 cycles: 969709652 heartbeat IPC: 0.366274 cumulative IPC: 0.355025 (Simulation time: 0 hr 15 min 53 sec) 
Heartbeat CPU 0 instructions: 430000002 cycles: 997396174 heartbeat IPC: 0.361187 cumulative IPC: 0.355209 (Simulation time: 0 hr 16 min 17 sec) 
Heartbeat CPU 0 instructions: 440000000 cycles: 1026927658 heartbeat IPC: 0.338622 cumulative IPC: 0.354698 (Simulation time: 0 hr 16 min 41 sec) 
Heartbeat CPU 0 instructions: 450000002 cycles: 1056146271 heartbeat IPC: 0.342248 cumulative IPC: 0.354329 (Simulation time: 0 hr 17 min 5 sec) 
Heartbeat CPU 0 instructions: 460000000 cycles: 1083829645 heartbeat IPC: 0.361228 cumulative IPC: 0.354517 (Simulation time: 0 hr 17 min 29 sec) 
Heartbeat CPU 0 instructions: 470000000 cycles: 1111454974 heartbeat IPC: 0.361987 cumulative IPC: 0.354715 (Simulation time: 0 hr 17 min 53 sec) 
Heartbeat CPU 0 instructions: 480000000 cycles: 1139328220 heartbeat IPC: 0.358767 cumulative IPC: 0.354821 (Simulation time: 0 hr 18 min 17 sec) 
Heartbeat CPU 0 instructions: 490000000 cycles: 1166907319 heartbeat IPC: 0.362593 cumulative IPC: 0.355016 (Simulation time: 0 hr 18 min 40 sec) 
Heartbeat CPU 0 instructions: 500000000 cycles: 1195216436 heartbeat IPC: 0.353243 cumulative IPC: 0.354971 (Simulation time: 0 hr 19 min 4 sec) 
Heartbeat CPU 0 instructions: 510000000 cycles: 1229811523 heartbeat IPC: 0.289058 cumulative IPC: 0.353008 (Simulation time: 0 hr 19 min 32 sec) 
Heartbeat CPU 0 instructions: 520000000 cycles: 1257817149 heartbeat IPC: 0.357071 cumulative IPC: 0.353104 (Simulation time: 0 hr 19 min 57 sec) 
Heartbeat CPU 0 instructions: 530000001 cycles: 1287044626 heartbeat IPC: 0.342144 cumulative IPC: 0.352841 (Simulation time: 0 hr 20 min 22 sec) 
Heartbeat CPU 0 instructions: 540000000 cycles: 1315037075 heartbeat IPC: 0.357239 cumulative IPC: 0.35294 (Simulation time: 0 hr 20 min 46 sec) 
Heartbeat CPU 0 instructions: 550000001 cycles: 1344232606 heartbeat IPC: 0.342518 cumulative IPC: 0.352701 (Simulation time: 0 hr 21 min 13 sec) 
Heartbeat CPU 0 instructions: 560000000 cycles: 1369617347 heartbeat IPC: 0.393937 cumulative IPC: 0.353506 (Simulation time: 0 hr 21 min 37 sec) 
Heartbeat CPU 0 instructions: 570000000 cycles: 1399192923 heartbeat IPC: 0.338117 cumulative IPC: 0.353164 (Simulation time: 0 hr 22 min 3 sec) 
Heartbeat CPU 0 instructions: 580000000 cycles: 1427182310 heartbeat IPC: 0.357278 cumulative IPC: 0.353248 (Simulation time: 0 hr 22 min 28 sec) 
Heartbeat CPU 0 instructions: 590000001 cycles: 1451914070 heartbeat IPC: 0.404338 cumulative IPC: 0.354162 (Simulation time: 0 hr 22 min 51 sec) 
Heartbeat CPU 0 instructions: 600000000 cycles: 1477936256 heartbeat IPC: 0.384287 cumulative IPC: 0.354718 (Simulation time: 0 hr 23 min 16 sec) 
Finished CPU 0 instructions: 500000000 cycles: 1409571555 cumulative IPC: 0.354718 (Simulation time: 0 hr 23 min 16 sec) 

CPU 0 Branch Prediction Accuracy: 86.4311% MPKI: 26.2662
Number of Branches: 96788573 Number of Mispredictions: 13133102
Number of LOAD Instructions: 164682285
Number of LOAD Instructions (ROI): 164682285
Number of STORE Instructions: 78194750
Number of STORE Instructions (ROI): 78194750
Total Destination Memory Operands: 83268534
Total Destination Memory Operands (ROI): 83268534
Total Source Memory Operands: 164712438
Total Source Memory Operands (ROI): 164712438
Number of DEPENDED LOADS: 7057854
Number of DEPENDED LOADS (ROI): 7057854
Number of SQ_ADDED: 83268522
Number of SQ_ADDED (ROI): 83268522
Number of LQ_ADDED: 236743660
Number of LQ_ADDED (ROI): 236743660
Number of Instructions read from trace: 600000066

ChampSim completed all CPUs

Region of Interest Statistics

CPU 0 cumulative IPC: 0.354718 instructions: 500000000 cycles: 1409571555
ITLB TOTAL     ACCESS:  100517466  HIT:  100313020  MISS:     204446
ITLB LOAD      ACCESS:  100517466  HIT:  100313020  MISS:     204446
ITLB RFO       ACCESS:          0  HIT:          0  MISS:          0
ITLB PREFETCH  ACCESS:          0  HIT:          0  MISS:          0
ITLB WRITEBACK ACCESS:          0  HIT:          0  MISS:          0
ITLB PREFETCH  REQUESTED:          0  ISSUED:          0  USEFUL:          0  USELESS:          0
ITLB TOTAL MSHR MERGED:     172424
ITLB LOAD MSHR MERGED:     172424
ITLB RFO MSHR MERGED:          0
ITLB PREFETCH MSHR MERGED:          0
ITLB WRITEBACK MSHR MERGED:          0
ITLB TOTAL ACCESSES:  100689890 HITS:  100313020 MISSES:     376870
ITLB LOAD ACCESSES:  100689890 HITS:  100313020 MISSES:     376870
ITLB RFO ACCESSES:          0 HITS:          0 MISSES:          0
ITLB PREFETCH ACCESSES:          0 HITS:          0 MISSES:          0
ITLB WRITEBACK ACCESSES:          0 HITS:          0 MISSES:          0
ITLB RQ ACCESS:  500000057
ITLB RQ TO_CACHE:  100689890
ITLB RQ MERGED:  399310167
ITLB RQ FORWARD:          0
ITLB WQ ACCESS:          0
ITLB WQ TO_CACHE:          0
ITLB WQ MERGED:          0
ITLB WQ FORWARD:          0
DTLB TOTAL     ACCESS:  165338567  HIT:  164704214  MISS:     634353
DTLB LOAD      ACCESS:  106293744  HIT:  105723790  MISS:     569954
DTLB RFO       ACCESS:   59044823  HIT:   58980424  MISS:      64399
DTLB PREFETCH  ACCESS:          0  HIT:          0  MISS:          0
DTLB WRITEBACK ACCESS:          0  HIT:          0  MISS:          0
DTLB PREFETCH  REQUESTED:          0  ISSUED:          0  USEFUL:          0  USELESS:          0
DTLB TOTAL MSHR MERGED:      99999
DTLB LOAD MSHR MERGED:      59458
DTLB RFO MSHR MERGED:      40541
DTLB PREFETCH MSHR MERGED:          0
DTLB WRITEBACK MSHR MERGED:          0
DTLB TOTAL ACCESSES:  165438566 HITS:  164704214 MISSES:     734352
DTLB LOAD ACCESSES:  106353202 HITS:  105723790 MISSES:     629412
DTLB RFO ACCESSES:   59085364 HITS:   58980424 MISSES:     104940
DTLB PREFETCH ACCESSES:          0 HITS:          0 MISSES:          0
DTLB WRITEBACK ACCESSES:          0 HITS:          0 MISSES:          0
DTLB RQ ACCESS:  200313011
DTLB RQ TO_CACHE:  165438566
DTLB RQ MERGED:   34874445
DTLB RQ FORWARD:          0
DTLB WQ ACCESS:          0
DTLB WQ TO_CACHE:          0
DTLB WQ MERGED:          0
DTLB WQ FORWARD:          0
L1D TOTAL     ACCESS:  281840593  HIT:  273931263  MISS:    7909330
L1D LOAD      ACCESS:  110418950  HIT:  107140829  MISS:    3278121
L1D RFO       ACCESS:   67122141  HIT:   66231711  MISS:     890430
L1D PREFETCH  ACCESS:  104299502  HIT:  100558723  MISS:    3740779
L1D WRITEBACK ACCESS:          0  HIT:          0  MISS:          0
L1D PREFETCH  REQUESTED:  110818856  ISSUED:  109119544  USEFUL:    1661468  USELESS:    2079275
L1D TOTAL MSHR MERGED:    2867190
L1D LOAD MSHR MERGED:     497497
L1D RFO MSHR MERGED:    1863669
L1D PREFETCH MSHR MERGED:     506024
L1D WRITEBACK MSHR MERGED:          0
L1D TOTAL ACCESSES:  284735288 HITS:  273958768 MISSES:   10776520
L1D LOAD ACCESSES:  110820342 HITS:  107142315 MISSES:    3678027
L1D RFO ACCESSES:   68974176 HITS:   66231711 MISSES:    2742465
L1D PREFETCH ACCESSES:  104940770 HITS:  100584742 MISSES:    4356028
L1D WRITEBACK ACCESSES:          0 HITS:          0 MISSES:          0
L1D RQ ACCESS:  130760408
L1D RQ TO_CACHE:  110818859
L1D RQ MERGED:   19940063
L1D RQ FORWARD:          0
L1D WQ ACCESS:   69552603
L1D WQ TO_CACHE:   68974177
L1D WQ MERGED:     578426
L1D WQ FORWARD:      27505
L1I TOTAL     ACCESS:  126564819  HIT:  122326266  MISS:    4238553
L1I LOAD      ACCESS:  126564819  HIT:  122326266  MISS:    4238553
L1I RFO       ACCESS:          0  HIT:          0  MISS:          0
L1I PREFETCH  ACCESS:          0  HIT:          0  MISS:          0
L1I WRITEBACK ACCESS:          0  HIT:          0  MISS:          0
L1I PREFETCH  REQUESTED:          0  ISSUED:          0  USEFUL:          0  USELESS:          0
L1I TOTAL MSHR MERGED:    1834645
L1I LOAD MSHR MERGED:    1834645
L1I RFO MSHR MERGED:          0
L1I PREFETCH MSHR MERGED:          0
L1I WRITEBACK MSHR MERGED:          0
L1I TOTAL ACCESSES:  128399467 HITS:  122326266 MISSES:    6073201
L1I LOAD ACCESSES:  128399467 HITS:  122326266 MISSES:    6073201
L1I RFO ACCESSES:          0 HITS:          0 MISSES:          0
L1I PREFETCH ACCESSES:          0 HITS:          0 MISSES:          0
L1I WRITEBACK ACCESSES:          0 HITS:          0 MISSES:          0
L1I RQ ACCESS:  500000057
L1I RQ TO_CACHE:  128399467
L1I RQ MERGED:  371600590
L1I RQ FORWARD:          0
L1I WQ ACCESS:          0
L1I WQ TO_CACHE:          0
L1I WQ MERGED:          0
L1I WQ FORWARD:          0
L2C TOTAL     ACCESS:   14904995  HIT:   11158636  MISS:    3746359
L2C LOAD      ACCESS:    7418874  HIT:    5098875  MISS:    2319999
L2C RFO       ACCESS:     878698  HIT:     409915  MISS:     468783
L2C PREFETCH  ACCESS:    4568194  HIT:    3627870  MISS:     940324
L2C WRITEBACK ACCESS:    2039229  HIT:    2021976  MISS:      17253
L2C PREFETCH  REQUESTED:     842703  ISSUED:     842703  USEFUL:     203335  USELESS:     736695
L2C TOTAL MSHR MERGED:       7187
L2C LOAD MSHR MERGED:        825
L2C RFO MSHR MERGED:          0
L2C PREFETCH MSHR MERGED:       6362
L2C WRITEBACK MSHR MERGED:          0
L2C TOTAL ACCESSES:   14913100 HITS:   11159089 MISSES:    3754011
L2C LOAD ACCESSES:    7419083 HITS:    5099084 MISSES:    2319999
L2C RFO ACCESSES:     878796 HITS:     410013 MISSES:     468783
L2C PREFETCH ACCESSES:    4575992 HITS:    3628016 MISSES:     947976
L2C WRITEBACK ACCESSES:    2039229 HITS:    2021976 MISSES:      17253
L2C RQ ACCESS:    8297882
L2C RQ TO_CACHE:    8297575
L2C RQ MERGED:          0
L2C RQ FORWARD:          0
L2C WQ ACCESS:    2039229
L2C WQ TO_CACHE:    2039229
L2C WQ MERGED:          0
L2C WQ FORWARD:        453
LLC TOTAL     ACCESS:    4609659  HIT:    3969006  MISS:     640653
LLC LOAD      ACCESS:    2319158  HIT:    2071703  MISS:     247455
LLC RFO       ACCESS:     468771  HIT:     410337  MISS:      58434
LLC PREFETCH  ACCESS:     941478  HIT:     657795  MISS:     283683
LLC WRITEBACK ACCESS:     880252  HIT:     829171  MISS:      51081
LLC PREFETCH  REQUESTED:          0  ISSUED:          0  USEFUL:      14116  USELESS:     269890
LLC TOTAL MSHR MERGED:        119
LLC LOAD MSHR MERGED:         42
LLC RFO MSHR MERGED:          0
LLC PREFETCH MSHR MERGED:         77
LLC WRITEBACK MSHR MERGED:          0
LLC TOTAL ACCESSES:    4609817 HITS:    3969045 MISSES:     640772
LLC LOAD ACCESSES:    2319174 HITS:    2071719 MISSES:     247455
LLC RFO ACCESSES:     468783 HITS:     410349 MISSES:      58434
LLC PREFETCH ACCESSES:     941608 HITS:     657806 MISSES:     283802
LLC WRITEBACK ACCESSES:     880252 HITS:     829171 MISSES:      51081
LLC 0 RQ ACCESS:    2787957
LLC 0 RQ TO_CACHE:    2787929
LLC 0 RQ MERGED:          0
LLC 0 RQ FORWARD:          0
LLC WQ ACCESS:     880252
LLC WQ TO_CACHE:     880252
LLC WQ MERGED:          0
LLC WQ FORWARD:         39
Major fault: 0 Minor fault: 12862
CPU 0 L1D next line prefetcher final stats
CPU 0 L2C PC-based stride prefetcher final stats
All Misses: 765182
All Hits: 4661483
SD Algo Stats - Switches: 0 SRR-Repls: 291057 BRR-Repls: 0

DRAM Statistics
 CHANNEL 0
 RQ ROW_BUFFER_HIT:     121397  ROW_BUFFER_MISS:     467325
 DBUS_CONGESTED:     330631
 WQ ROW_BUFFER_HIT:      11791  ROW_BUFFER_MISS:     158716  FULL:          0

 AVG_CONGESTED_CYCLE: 13
LOADS RETIRED: 136549171
INSTR RETIRED: 500000000
