
*** ChampSim Multicore Out-of-Order Simulator ***

Warmup Instructions: 100000000
Simulation Instructions: 500000000
Number of CPUs: 1
LLC sets: 2048
LLC ways: 16
Clean RRIP Policies: 2213230022132300 Dirty RRIP Policies: 1203130012031300 PSEL Width: 10 Track Set: 4294967295 PSEL Mask: 1 Demote Mask: 1040101010401010DS Algo: 0Window size: 0
Off-chip DRAM Size: 4096 MB Channels: 1 Width: 64-bit Data Rate: 1600 MT/s

CPU 0 runs /mnt/beegfs/iconst01/spec2017/Parest.trace.gz
NOT SORTED
TRACE STRING: /mnt/beegfs/iconst01/spec2017/Parest.trace.gz
SORTED
TRACE STRING: /mnt/beegfs/iconst01/spec2017/Parest.trace.gz
INITIAL
TRACE STRING: /mnt/beegfs/iconst01/spec2017/Parest.trace.gz

champsim_seed used: 623

CPU 0 L1D next line prefetcher
CPU 0 L2C IP-based stride prefetcher
Initialize DRRIP state
Assign rand_sets[0]: 454  LLC: 2048
rand_sets[0]: 454
Assign rand_sets[1]: 1662  LLC: 2048
rand_sets[1]: 1662
Assign rand_sets[2]: 1921  LLC: 2048
rand_sets[2]: 1921
Assign rand_sets[3]: 1131  LLC: 2048
rand_sets[3]: 1131
Assign rand_sets[4]: 331  LLC: 2048
rand_sets[4]: 331
Assign rand_sets[5]: 1531  LLC: 2048
rand_sets[5]: 1531
Assign rand_sets[6]: 482  LLC: 2048
rand_sets[6]: 482
Assign rand_sets[7]: 1275  LLC: 2048
rand_sets[7]: 1275
Assign rand_sets[8]: 1876  LLC: 2048
rand_sets[8]: 1876
Assign rand_sets[9]: 2038  LLC: 2048
rand_sets[9]: 2038
Assign rand_sets[10]: 701  LLC: 2048
rand_sets[10]: 701
Assign rand_sets[11]: 479  LLC: 2048
rand_sets[11]: 479
Assign rand_sets[12]: 892  LLC: 2048
rand_sets[12]: 892
Assign rand_sets[13]: 1820  LLC: 2048
rand_sets[13]: 1820
Assign rand_sets[14]: 1505  LLC: 2048
rand_sets[14]: 1505
Assign rand_sets[15]: 1159  LLC: 2048
rand_sets[15]: 1159
Assign rand_sets[16]: 513  LLC: 2048
rand_sets[16]: 513
Assign rand_sets[17]: 703  LLC: 2048
rand_sets[17]: 703
Assign rand_sets[18]: 561  LLC: 2048
rand_sets[18]: 561
Assign rand_sets[19]: 990  LLC: 2048
rand_sets[19]: 990
Assign rand_sets[20]: 342  LLC: 2048
rand_sets[20]: 342
Assign rand_sets[21]: 882  LLC: 2048
rand_sets[21]: 882
Assign rand_sets[22]: 15  LLC: 2048
rand_sets[22]: 15
Assign rand_sets[23]: 71  LLC: 2048
rand_sets[23]: 71
Assign rand_sets[24]: 1127  LLC: 2048
rand_sets[24]: 1127
Assign rand_sets[25]: 1382  LLC: 2048
rand_sets[25]: 1382
Assign rand_sets[26]: 647  LLC: 2048
rand_sets[26]: 647
Assign rand_sets[27]: 857  LLC: 2048
rand_sets[27]: 857
Assign rand_sets[28]: 1450  LLC: 2048
rand_sets[28]: 1450
Assign rand_sets[29]: 1160  LLC: 2048
rand_sets[29]: 1160
Assign rand_sets[30]: 1852  LLC: 2048
rand_sets[30]: 1852
Assign rand_sets[31]: 1881  LLC: 2048
rand_sets[31]: 1881
Assign rand_sets[32]: 1770  LLC: 2048
rand_sets[32]: 1770
Assign rand_sets[33]: 1622  LLC: 2048
rand_sets[33]: 1622
Assign rand_sets[34]: 275  LLC: 2048
rand_sets[34]: 275
Assign rand_sets[35]: 635  LLC: 2048
rand_sets[35]: 635
Assign rand_sets[36]: 466  LLC: 2048
rand_sets[36]: 466
Assign rand_sets[37]: 1413  LLC: 2048
rand_sets[37]: 1413
Assign rand_sets[38]: 417  LLC: 2048
rand_sets[38]: 417
Assign rand_sets[39]: 472  LLC: 2048
rand_sets[39]: 472
Assign rand_sets[40]: 1340  LLC: 2048
rand_sets[40]: 1340
Assign rand_sets[41]: 852  LLC: 2048
rand_sets[41]: 852
Assign rand_sets[42]: 1365  LLC: 2048
rand_sets[42]: 1365
Assign rand_sets[43]: 47  LLC: 2048
rand_sets[43]: 47
Assign rand_sets[44]: 823  LLC: 2048
rand_sets[44]: 823
Assign rand_sets[45]: 686  LLC: 2048
rand_sets[45]: 686
Assign rand_sets[46]: 1637  LLC: 2048
rand_sets[46]: 1637
Assign rand_sets[47]: 1115  LLC: 2048
rand_sets[47]: 1115
Assign rand_sets[48]: 986  LLC: 2048
rand_sets[48]: 986
Assign rand_sets[49]: 258  LLC: 2048
rand_sets[49]: 258
Assign rand_sets[50]: 633  LLC: 2048
rand_sets[50]: 633
Assign rand_sets[51]: 920  LLC: 2048
rand_sets[51]: 920
Assign rand_sets[52]: 204  LLC: 2048
rand_sets[52]: 204
Assign rand_sets[53]: 227  LLC: 2048
rand_sets[53]: 227
Assign rand_sets[54]: 1818  LLC: 2048
rand_sets[54]: 1818
Assign rand_sets[55]: 886  LLC: 2048
rand_sets[55]: 886
Assign rand_sets[56]: 1422  LLC: 2048
rand_sets[56]: 1422
Assign rand_sets[57]: 607  LLC: 2048
rand_sets[57]: 607
Assign rand_sets[58]: 217  LLC: 2048
rand_sets[58]: 217
Assign rand_sets[59]: 1945  LLC: 2048
rand_sets[59]: 1945
Assign rand_sets[60]: 143  LLC: 2048
rand_sets[60]: 143
Assign rand_sets[61]: 1311  LLC: 2048
rand_sets[61]: 1311
Assign rand_sets[62]: 319  LLC: 2048
rand_sets[62]: 319
Assign rand_sets[63]: 1846  LLC: 2048
rand_sets[63]: 1846
 CLEAN-RRIP-POLICY-1: 2-2-1-3-2-3-0-0- CLEAN-RRIP-POLICY-2: 2-2-1-3-2-3-0-0-
 DIRTY-RRIP-POLICY-1: 1-2-0-3-1-3-0-0- DIRTY-RRIP-POLICY-2: 1-2-0-3-1-3-0-0-
 PSEL width: 10
Heartbeat CPU 0 instructions: 10000001 cycles: 4387121 heartbeat IPC: 2.2794 cumulative IPC: 2.2794 (Simulation time: 0 hr 0 min 14 sec) 
Heartbeat CPU 0 instructions: 20000000 cycles: 8781235 heartbeat IPC: 2.27577 cumulative IPC: 2.27758 (Simulation time: 0 hr 0 min 28 sec) 
Heartbeat CPU 0 instructions: 30000003 cycles: 13213166 heartbeat IPC: 2.25635 cumulative IPC: 2.27046 (Simulation time: 0 hr 0 min 42 sec) 
Heartbeat CPU 0 instructions: 40000000 cycles: 17643765 heartbeat IPC: 2.25703 cumulative IPC: 2.26709 (Simulation time: 0 hr 0 min 56 sec) 
Heartbeat CPU 0 instructions: 50000000 cycles: 22051948 heartbeat IPC: 2.26851 cumulative IPC: 2.26737 (Simulation time: 0 hr 1 min 10 sec) 
Heartbeat CPU 0 instructions: 60000000 cycles: 26457625 heartbeat IPC: 2.2698 cumulative IPC: 2.26778 (Simulation time: 0 hr 1 min 24 sec) 
Heartbeat CPU 0 instructions: 70000000 cycles: 30858439 heartbeat IPC: 2.27231 cumulative IPC: 2.26842 (Simulation time: 0 hr 1 min 38 sec) 
Heartbeat CPU 0 instructions: 80000000 cycles: 35254007 heartbeat IPC: 2.27502 cumulative IPC: 2.26925 (Simulation time: 0 hr 1 min 52 sec) 
Heartbeat CPU 0 instructions: 90000000 cycles: 39648266 heartbeat IPC: 2.2757 cumulative IPC: 2.26996 (Simulation time: 0 hr 2 min 6 sec) 
Heartbeat CPU 0 instructions: 100000000 cycles: 44045574 heartbeat IPC: 2.27412 cumulative IPC: 2.27038 (Simulation time: 0 hr 2 min 20 sec) 

Warmup complete CPU 0 instructions: 100000002 cycles: 44045584 (Simulation time: 0 hr 2 min 20 sec) 

Heartbeat CPU 0 instructions: 110000000 cycles: 54132511 heartbeat IPC: 0.991381 cumulative IPC: 0.991382 (Simulation time: 0 hr 2 min 39 sec) 
Heartbeat CPU 0 instructions: 120000000 cycles: 63473193 heartbeat IPC: 1.07059 cumulative IPC: 1.02946 (Simulation time: 0 hr 2 min 56 sec) 
Heartbeat CPU 0 instructions: 130000001 cycles: 72816216 heartbeat IPC: 1.07032 cumulative IPC: 1.04273 (Simulation time: 0 hr 3 min 14 sec) 
Heartbeat CPU 0 instructions: 140000000 cycles: 82407642 heartbeat IPC: 1.0426 cumulative IPC: 1.0427 (Simulation time: 0 hr 3 min 33 sec) 
Heartbeat CPU 0 instructions: 150000000 cycles: 93502150 heartbeat IPC: 0.901347 cumulative IPC: 1.01099 (Simulation time: 0 hr 3 min 51 sec) 
Heartbeat CPU 0 instructions: 160000000 cycles: 103555483 heartbeat IPC: 0.994695 cumulative IPC: 1.00824 (Simulation time: 0 hr 4 min 9 sec) 
Heartbeat CPU 0 instructions: 170000003 cycles: 113500433 heartbeat IPC: 1.00554 cumulative IPC: 1.00785 (Simulation time: 0 hr 4 min 26 sec) 
Heartbeat CPU 0 instructions: 180000000 cycles: 123364966 heartbeat IPC: 1.01373 cumulative IPC: 1.00858 (Simulation time: 0 hr 4 min 44 sec) 
Heartbeat CPU 0 instructions: 190000002 cycles: 133369122 heartbeat IPC: 0.999585 cumulative IPC: 1.00757 (Simulation time: 0 hr 5 min 2 sec) 
Heartbeat CPU 0 instructions: 200000000 cycles: 142831264 heartbeat IPC: 1.05684 cumulative IPC: 1.01229 (Simulation time: 0 hr 5 min 20 sec) 
Heartbeat CPU 0 instructions: 210000000 cycles: 152761422 heartbeat IPC: 1.00703 cumulative IPC: 1.01181 (Simulation time: 0 hr 5 min 38 sec) 
Heartbeat CPU 0 instructions: 220000000 cycles: 162050208 heartbeat IPC: 1.07657 cumulative IPC: 1.01691 (Simulation time: 0 hr 5 min 56 sec) 
Heartbeat CPU 0 instructions: 230000001 cycles: 174281678 heartbeat IPC: 0.817563 cumulative IPC: 0.998187 (Simulation time: 0 hr 6 min 15 sec) 
Heartbeat CPU 0 instructions: 240000000 cycles: 184739128 heartbeat IPC: 0.956256 cumulative IPC: 0.995071 (Simulation time: 0 hr 6 min 33 sec) 
Heartbeat CPU 0 instructions: 250000002 cycles: 194663615 heartbeat IPC: 1.00761 cumulative IPC: 0.995897 (Simulation time: 0 hr 6 min 51 sec) 
Heartbeat CPU 0 instructions: 260000000 cycles: 204392683 heartbeat IPC: 1.02785 cumulative IPC: 0.997835 (Simulation time: 0 hr 7 min 9 sec) 
Heartbeat CPU 0 instructions: 270000001 cycles: 213939956 heartbeat IPC: 1.04742 cumulative IPC: 1.00062 (Simulation time: 0 hr 7 min 26 sec) 
Heartbeat CPU 0 instructions: 280000000 cycles: 223871477 heartbeat IPC: 1.0069 cumulative IPC: 1.00097 (Simulation time: 0 hr 7 min 44 sec) 
Heartbeat CPU 0 instructions: 290000002 cycles: 233203001 heartbeat IPC: 1.07164 cumulative IPC: 1.00445 (Simulation time: 0 hr 8 min 2 sec) 
Heartbeat CPU 0 instructions: 300000000 cycles: 242986229 heartbeat IPC: 1.02216 cumulative IPC: 1.00532 (Simulation time: 0 hr 8 min 20 sec) 
Heartbeat CPU 0 instructions: 310000000 cycles: 252302102 heartbeat IPC: 1.07344 cumulative IPC: 1.00837 (Simulation time: 0 hr 8 min 38 sec) 
Heartbeat CPU 0 instructions: 320000000 cycles: 261664763 heartbeat IPC: 1.06807 cumulative IPC: 1.01094 (Simulation time: 0 hr 8 min 56 sec) 
Heartbeat CPU 0 instructions: 330000003 cycles: 271175218 heartbeat IPC: 1.05147 cumulative IPC: 1.01264 (Simulation time: 0 hr 9 min 13 sec) 
Heartbeat CPU 0 instructions: 340000000 cycles: 281288178 heartbeat IPC: 0.98883 cumulative IPC: 1.01162 (Simulation time: 0 hr 9 min 32 sec) 
Heartbeat CPU 0 instructions: 350000000 cycles: 291596887 heartbeat IPC: 0.970054 cumulative IPC: 1.00989 (Simulation time: 0 hr 9 min 49 sec) 
Heartbeat CPU 0 instructions: 360000000 cycles: 301432119 heartbeat IPC: 1.01675 cumulative IPC: 1.01015 (Simulation time: 0 hr 10 min 7 sec) 
Heartbeat CPU 0 instructions: 370000000 cycles: 311075783 heartbeat IPC: 1.03695 cumulative IPC: 1.01112 (Simulation time: 0 hr 10 min 25 sec) 
Heartbeat CPU 0 instructions: 380000000 cycles: 320608765 heartbeat IPC: 1.04899 cumulative IPC: 1.01243 (Simulation time: 0 hr 10 min 42 sec) 
Heartbeat CPU 0 instructions: 390000002 cycles: 329933253 heartbeat IPC: 1.07245 cumulative IPC: 1.01438 (Simulation time: 0 hr 11 min 0 sec) 
Heartbeat CPU 0 instructions: 400000000 cycles: 339684593 heartbeat IPC: 1.0255 cumulative IPC: 1.01475 (Simulation time: 0 hr 11 min 18 sec) 
Heartbeat CPU 0 instructions: 410000000 cycles: 348896328 heartbeat IPC: 1.08557 cumulative IPC: 1.01689 (Simulation time: 0 hr 11 min 36 sec) 
Heartbeat CPU 0 instructions: 420000000 cycles: 359873391 heartbeat IPC: 0.91099 cumulative IPC: 1.01321 (Simulation time: 0 hr 11 min 54 sec) 
Heartbeat CPU 0 instructions: 430000000 cycles: 370701536 heartbeat IPC: 0.923519 cumulative IPC: 1.01024 (Simulation time: 0 hr 12 min 12 sec) 
Heartbeat CPU 0 instructions: 440000000 cycles: 380702330 heartbeat IPC: 0.999921 cumulative IPC: 1.00993 (Simulation time: 0 hr 12 min 30 sec) 
Heartbeat CPU 0 instructions: 450000000 cycles: 390638848 heartbeat IPC: 1.00639 cumulative IPC: 1.00983 (Simulation time: 0 hr 12 min 47 sec) 
Heartbeat CPU 0 instructions: 460000000 cycles: 400475866 heartbeat IPC: 1.01657 cumulative IPC: 1.01002 (Simulation time: 0 hr 13 min 5 sec) 
Heartbeat CPU 0 instructions: 470000001 cycles: 410458478 heartbeat IPC: 1.00174 cumulative IPC: 1.00979 (Simulation time: 0 hr 13 min 22 sec) 
Heartbeat CPU 0 instructions: 480000000 cycles: 419914616 heartbeat IPC: 1.05751 cumulative IPC: 1.01099 (Simulation time: 0 hr 13 min 40 sec) 
Heartbeat CPU 0 instructions: 490000002 cycles: 429829704 heartbeat IPC: 1.00856 cumulative IPC: 1.01093 (Simulation time: 0 hr 13 min 58 sec) 
Heartbeat CPU 0 instructions: 500000000 cycles: 439420261 heartbeat IPC: 1.04269 cumulative IPC: 1.0117 (Simulation time: 0 hr 14 min 15 sec) 
Heartbeat CPU 0 instructions: 510000000 cycles: 448791688 heartbeat IPC: 1.06707 cumulative IPC: 1.01298 (Simulation time: 0 hr 14 min 33 sec) 
Heartbeat CPU 0 instructions: 520000000 cycles: 458375892 heartbeat IPC: 1.04338 cumulative IPC: 1.01368 (Simulation time: 0 hr 14 min 51 sec) 
Heartbeat CPU 0 instructions: 530000001 cycles: 468724957 heartbeat IPC: 0.966271 cumulative IPC: 1.01253 (Simulation time: 0 hr 15 min 9 sec) 
Heartbeat CPU 0 instructions: 540000000 cycles: 479188474 heartbeat IPC: 0.955702 cumulative IPC: 1.01116 (Simulation time: 0 hr 15 min 26 sec) 
Heartbeat CPU 0 instructions: 550000003 cycles: 489225264 heartbeat IPC: 0.996335 cumulative IPC: 1.01083 (Simulation time: 0 hr 15 min 44 sec) 
Heartbeat CPU 0 instructions: 560000000 cycles: 499062684 heartbeat IPC: 1.01653 cumulative IPC: 1.01095 (Simulation time: 0 hr 16 min 1 sec) 
Heartbeat CPU 0 instructions: 570000002 cycles: 508750389 heartbeat IPC: 1.03224 cumulative IPC: 1.01139 (Simulation time: 0 hr 16 min 19 sec) 
Heartbeat CPU 0 instructions: 580000000 cycles: 518260324 heartbeat IPC: 1.05153 cumulative IPC: 1.0122 (Simulation time: 0 hr 16 min 36 sec) 
Heartbeat CPU 0 instructions: 590000002 cycles: 528124805 heartbeat IPC: 1.01374 cumulative IPC: 1.01223 (Simulation time: 0 hr 16 min 53 sec) 
Heartbeat CPU 0 instructions: 600000000 cycles: 537611668 heartbeat IPC: 1.05409 cumulative IPC: 1.01304 (Simulation time: 0 hr 17 min 11 sec) 
Finished CPU 0 instructions: 500000000 cycles: 493566098 cumulative IPC: 1.01304 (Simulation time: 0 hr 17 min 11 sec) 

CPU 0 Branch Prediction Accuracy: 97.8526% MPKI: 2.66709
Number of Branches: 62099103 Number of Mispredictions: 1333545
Number of LOAD Instructions: 210576465
Number of LOAD Instructions (ROI): 210576465
Number of STORE Instructions: 16915507
Number of STORE Instructions (ROI): 16915507
Total Destination Memory Operands: 16918869
Total Destination Memory Operands (ROI): 16918869
Total Source Memory Operands: 210576465
Total Source Memory Operands (ROI): 210576465
Number of DEPENDED LOADS: 344494
Number of DEPENDED LOADS (ROI): 344494
Number of SQ_ADDED: 16918826
Number of SQ_ADDED (ROI): 16918826
Number of LQ_ADDED: 210610004
Number of LQ_ADDED (ROI): 210610004
Number of Instructions read from trace: 600000257

ChampSim completed all CPUs

Region of Interest Statistics

CPU 0 cumulative IPC: 1.01304 instructions: 500000000 cycles: 493566098
ITLB TOTAL     ACCESS:   76319701  HIT:   76319663  MISS:         38
ITLB LOAD      ACCESS:   76319701  HIT:   76319663  MISS:         38
ITLB RFO       ACCESS:          0  HIT:          0  MISS:          0
ITLB PREFETCH  ACCESS:          0  HIT:          0  MISS:          0
ITLB WRITEBACK ACCESS:          0  HIT:          0  MISS:          0
ITLB PREFETCH  REQUESTED:          0  ISSUED:          0  USEFUL:          0  USELESS:          0
ITLB TOTAL MSHR MERGED:         37
ITLB LOAD MSHR MERGED:         37
ITLB RFO MSHR MERGED:          0
ITLB PREFETCH MSHR MERGED:          0
ITLB WRITEBACK MSHR MERGED:          0
ITLB TOTAL ACCESSES:   76319738 HITS:   76319663 MISSES:         75
ITLB LOAD ACCESSES:   76319738 HITS:   76319663 MISSES:         75
ITLB RFO ACCESSES:          0 HITS:          0 MISSES:          0
ITLB PREFETCH ACCESSES:          0 HITS:          0 MISSES:          0
ITLB WRITEBACK ACCESSES:          0 HITS:          0 MISSES:          0
ITLB RQ ACCESS:  500000188
ITLB RQ TO_CACHE:   76319739
ITLB RQ MERGED:  423680449
ITLB RQ FORWARD:          0
ITLB WQ ACCESS:          0
ITLB WQ TO_CACHE:          0
ITLB WQ MERGED:          0
ITLB WQ FORWARD:          0
DTLB TOTAL     ACCESS:  136777530  HIT:  136574736  MISS:     202794
DTLB LOAD      ACCESS:  128715709  HIT:  128515636  MISS:     200073
DTLB RFO       ACCESS:    8061821  HIT:    8059100  MISS:       2721
DTLB PREFETCH  ACCESS:          0  HIT:          0  MISS:          0
DTLB WRITEBACK ACCESS:          0  HIT:          0  MISS:          0
DTLB PREFETCH  REQUESTED:          0  ISSUED:          0  USEFUL:          0  USELESS:          0
DTLB TOTAL MSHR MERGED:     447666
DTLB LOAD MSHR MERGED:     443976
DTLB RFO MSHR MERGED:       3690
DTLB PREFETCH MSHR MERGED:          0
DTLB WRITEBACK MSHR MERGED:          0
DTLB TOTAL ACCESSES:  137225196 HITS:  136574736 MISSES:     650460
DTLB LOAD ACCESSES:  129159685 HITS:  128515636 MISSES:     644049
DTLB RFO ACCESSES:    8065511 HITS:    8059100 MISSES:       6411
DTLB PREFETCH ACCESSES:          0 HITS:          0 MISSES:          0
DTLB WRITEBACK ACCESSES:          0 HITS:          0 MISSES:          0
DTLB RQ ACCESS:  189420074
DTLB RQ TO_CACHE:  137225196
DTLB RQ MERGED:   52194878
DTLB RQ FORWARD:          0
DTLB WQ ACCESS:          0
DTLB WQ TO_CACHE:          0
DTLB WQ MERGED:          0
DTLB WQ FORWARD:          0
L1D TOTAL     ACCESS:  125374058  HIT:  107817122  MISS:   17556936
L1D LOAD      ACCESS:   72323631  HIT:   62059589  MISS:   10264042
L1D RFO       ACCESS:   14013514  HIT:   13860677  MISS:     152837
L1D PREFETCH  ACCESS:   39036913  HIT:   31896856  MISS:    7140057
L1D WRITEBACK ACCESS:          0  HIT:          0  MISS:          0
L1D PREFETCH  REQUESTED:   85523198  ISSUED:   84201989  USEFUL:    5880698  USELESS:    1259370
L1D TOTAL MSHR MERGED:   31536283
L1D LOAD MSHR MERGED:   18352293
L1D RFO MSHR MERGED:     267072
L1D PREFETCH MSHR MERGED:   12916918
L1D WRITEBACK MSHR MERGED:          0
L1D TOTAL ACCESSES:  156910864 HITS:  107817646 MISSES:   49093218
L1D LOAD ACCESSES:   85523217 HITS:   62059608 MISSES:   23463609
L1D RFO ACCESSES:   14280556 HITS:   13860677 MISSES:     419879
L1D PREFETCH ACCESSES:   57107091 HITS:   31897361 MISSES:   25209730
L1D WRITEBACK ACCESSES:          0 HITS:          0 MISSES:          0
L1D RQ ACCESS:  175131052
L1D RQ TO_CACHE:   85523198
L1D RQ MERGED:   89607835
L1D RQ FORWARD:          0
L1D WQ ACCESS:   14289037
L1D WQ TO_CACHE:   14280556
L1D WQ MERGED:       8481
L1D WQ FORWARD:        524
L1I TOTAL     ACCESS:   93343562  HIT:   93341766  MISS:       1796
L1I LOAD      ACCESS:   93343562  HIT:   93341766  MISS:       1796
L1I RFO       ACCESS:          0  HIT:          0  MISS:          0
L1I PREFETCH  ACCESS:          0  HIT:          0  MISS:          0
L1I WRITEBACK ACCESS:          0  HIT:          0  MISS:          0
L1I PREFETCH  REQUESTED:          0  ISSUED:          0  USEFUL:          0  USELESS:          0
L1I TOTAL MSHR MERGED:       2313
L1I LOAD MSHR MERGED:       2313
L1I RFO MSHR MERGED:          0
L1I PREFETCH MSHR MERGED:          0
L1I WRITEBACK MSHR MERGED:          0
L1I TOTAL ACCESSES:   93345875 HITS:   93341766 MISSES:       4109
L1I LOAD ACCESSES:   93345875 HITS:   93341766 MISSES:       4109
L1I RFO ACCESSES:          0 HITS:          0 MISSES:          0
L1I PREFETCH ACCESSES:          0 HITS:          0 MISSES:          0
L1I WRITEBACK ACCESSES:          0 HITS:          0 MISSES:          0
L1I RQ ACCESS:  500000187
L1I RQ TO_CACHE:   93345875
L1I RQ MERGED:  406654312
L1I RQ FORWARD:          0
L1I WQ ACCESS:          0
L1I WQ TO_CACHE:          0
L1I WQ MERGED:          0
L1I WQ FORWARD:          0
L2C TOTAL     ACCESS:   20902225  HIT:    8672964  MISS:   12229261
L2C LOAD      ACCESS:    5113085  HIT:    2145880  MISS:    2967205
L2C RFO       ACCESS:     152807  HIT:       6518  MISS:     146289
L2C PREFETCH  ACCESS:   13863581  HIT:    4747925  MISS:    9115656
L2C WRITEBACK ACCESS:    1772752  HIT:    1772641  MISS:        111
L2C PREFETCH  REQUESTED:    1812031  ISSUED:    1812031  USEFUL:    1067334  USELESS:    8049961
L2C TOTAL MSHR MERGED:      96845
L2C LOAD MSHR MERGED:      22503
L2C RFO MSHR MERGED:          0
L2C PREFETCH MSHR MERGED:      74342
L2C WRITEBACK MSHR MERGED:          0
L2C TOTAL ACCESSES:   21023529 HITS:    8673005 MISSES:   12350524
L2C LOAD ACCESSES:    5113112 HITS:    2145907 MISSES:    2967205
L2C RFO ACCESSES:     152807 HITS:       6518 MISSES:     146289
L2C PREFETCH ACCESSES:   13984858 HITS:    4747939 MISSES:    9236919
L2C WRITEBACK ACCESSES:    1772752 HITS:    1772641 MISSES:        111
L2C RQ ACCESS:    5265919
L2C RQ TO_CACHE:    5265892
L2C RQ MERGED:          0
L2C RQ FORWARD:          0
L2C WQ ACCESS:    1772752
L2C WQ TO_CACHE:    1772752
L2C WQ MERGED:          0
L2C WQ FORWARD:         41
LLC TOTAL     ACCESS:   12533980  HIT:    6655875  MISS:    5878105
LLC LOAD      ACCESS:    2944680  HIT:    2425140  MISS:     519540
LLC RFO       ACCESS:     146289  HIT:      72174  MISS:      74115
LLC PREFETCH  ACCESS:    9157028  HIT:    3928794  MISS:    5228234
LLC WRITEBACK ACCESS:     285983  HIT:     229767  MISS:      56216
LLC PREFETCH  REQUESTED:          0  ISSUED:          0  USEFUL:      10424  USELESS:    5217753
LLC TOTAL MSHR MERGED:       1138
LLC LOAD MSHR MERGED:        224
LLC RFO MSHR MERGED:          0
LLC PREFETCH MSHR MERGED:        914
LLC WRITEBACK MSHR MERGED:          0
LLC TOTAL ACCESSES:   12535150 HITS:    6655907 MISSES:    5879243
LLC LOAD ACCESSES:    2944702 HITS:    2425162 MISSES:     519540
LLC RFO ACCESSES:     146289 HITS:      72174 MISSES:      74115
LLC PREFETCH ACCESSES:    9158176 HITS:    3928804 MISSES:    5229372
LLC WRITEBACK ACCESSES:     285983 HITS:     229767 MISSES:      56216
LLC 0 RQ ACCESS:    3090991
LLC 0 RQ TO_CACHE:    3090969
LLC 0 RQ MERGED:          0
LLC 0 RQ FORWARD:          0
LLC WQ ACCESS:     285983
LLC WQ TO_CACHE:     285983
LLC WQ MERGED:          0
LLC WQ FORWARD:         32
Major fault: 0 Minor fault: 6524
CPU 0 L1D next line prefetcher final stats
CPU 0 L2C PC-based stride prefetcher final stats
All Misses: 7680415
All Hits: 7378577
SD Algo Stats - Switches: 0 SRR-Repls: 552198 BRR-Repls: 0

DRAM Statistics
 CHANNEL 0
 RQ ROW_BUFFER_HIT:    4990391  ROW_BUFFER_MISS:     822586
 DBUS_CONGESTED:    2076778
 WQ ROW_BUFFER_HIT:      15634  ROW_BUFFER_MISS:      79612  FULL:          0

 AVG_CONGESTED_CYCLE: 12
LOADS RETIRED: 175418235
INSTR RETIRED: 500000000
