
*** ChampSim Multicore Out-of-Order Simulator ***

Warmup Instructions: 100000000
Simulation Instructions: 500000000
Number of CPUs: 1
LLC sets: 2048
LLC ways: 16
Clean RRIP Policies: 123021001230210 Dirty RRIP Policies: 2123220021232200 PSEL Width: 10 Track Set: 4294967295 PSEL Mask: 1 Demote Mask: 230414202304142DS Algo: 0Window size: 0
Off-chip DRAM Size: 4096 MB Channels: 1 Width: 64-bit Data Rate: 1600 MT/s

CPU 0 runs /mnt/beegfs/iconst01/spec2017/Gcc.trace.gz
NOT SORTED
TRACE STRING: /mnt/beegfs/iconst01/spec2017/Gcc.trace.gz
SORTED
TRACE STRING: /mnt/beegfs/iconst01/spec2017/Gcc.trace.gz
INITIAL
TRACE STRING: /mnt/beegfs/iconst01/spec2017/Gcc.trace.gz

champsim_seed used: 269

CPU 0 L1D next line prefetcher
CPU 0 L2C IP-based stride prefetcher
Initialize DRRIP state
Assign rand_sets[0]: 454  LLC: 2048
rand_sets[0]: 454
Assign rand_sets[1]: 1662  LLC: 2048
rand_sets[1]: 1662
Assign rand_sets[2]: 1921  LLC: 2048
rand_sets[2]: 1921
Assign rand_sets[3]: 1131  LLC: 2048
rand_sets[3]: 1131
Assign rand_sets[4]: 331  LLC: 2048
rand_sets[4]: 331
Assign rand_sets[5]: 1531  LLC: 2048
rand_sets[5]: 1531
Assign rand_sets[6]: 482  LLC: 2048
rand_sets[6]: 482
Assign rand_sets[7]: 1275  LLC: 2048
rand_sets[7]: 1275
Assign rand_sets[8]: 1876  LLC: 2048
rand_sets[8]: 1876
Assign rand_sets[9]: 2038  LLC: 2048
rand_sets[9]: 2038
Assign rand_sets[10]: 701  LLC: 2048
rand_sets[10]: 701
Assign rand_sets[11]: 479  LLC: 2048
rand_sets[11]: 479
Assign rand_sets[12]: 892  LLC: 2048
rand_sets[12]: 892
Assign rand_sets[13]: 1820  LLC: 2048
rand_sets[13]: 1820
Assign rand_sets[14]: 1505  LLC: 2048
rand_sets[14]: 1505
Assign rand_sets[15]: 1159  LLC: 2048
rand_sets[15]: 1159
Assign rand_sets[16]: 513  LLC: 2048
rand_sets[16]: 513
Assign rand_sets[17]: 703  LLC: 2048
rand_sets[17]: 703
Assign rand_sets[18]: 561  LLC: 2048
rand_sets[18]: 561
Assign rand_sets[19]: 990  LLC: 2048
rand_sets[19]: 990
Assign rand_sets[20]: 342  LLC: 2048
rand_sets[20]: 342
Assign rand_sets[21]: 882  LLC: 2048
rand_sets[21]: 882
Assign rand_sets[22]: 15  LLC: 2048
rand_sets[22]: 15
Assign rand_sets[23]: 71  LLC: 2048
rand_sets[23]: 71
Assign rand_sets[24]: 1127  LLC: 2048
rand_sets[24]: 1127
Assign rand_sets[25]: 1382  LLC: 2048
rand_sets[25]: 1382
Assign rand_sets[26]: 647  LLC: 2048
rand_sets[26]: 647
Assign rand_sets[27]: 857  LLC: 2048
rand_sets[27]: 857
Assign rand_sets[28]: 1450  LLC: 2048
rand_sets[28]: 1450
Assign rand_sets[29]: 1160  LLC: 2048
rand_sets[29]: 1160
Assign rand_sets[30]: 1852  LLC: 2048
rand_sets[30]: 1852
Assign rand_sets[31]: 1881  LLC: 2048
rand_sets[31]: 1881
Assign rand_sets[32]: 1770  LLC: 2048
rand_sets[32]: 1770
Assign rand_sets[33]: 1622  LLC: 2048
rand_sets[33]: 1622
Assign rand_sets[34]: 275  LLC: 2048
rand_sets[34]: 275
Assign rand_sets[35]: 635  LLC: 2048
rand_sets[35]: 635
Assign rand_sets[36]: 466  LLC: 2048
rand_sets[36]: 466
Assign rand_sets[37]: 1413  LLC: 2048
rand_sets[37]: 1413
Assign rand_sets[38]: 417  LLC: 2048
rand_sets[38]: 417
Assign rand_sets[39]: 472  LLC: 2048
rand_sets[39]: 472
Assign rand_sets[40]: 1340  LLC: 2048
rand_sets[40]: 1340
Assign rand_sets[41]: 852  LLC: 2048
rand_sets[41]: 852
Assign rand_sets[42]: 1365  LLC: 2048
rand_sets[42]: 1365
Assign rand_sets[43]: 47  LLC: 2048
rand_sets[43]: 47
Assign rand_sets[44]: 823  LLC: 2048
rand_sets[44]: 823
Assign rand_sets[45]: 686  LLC: 2048
rand_sets[45]: 686
Assign rand_sets[46]: 1637  LLC: 2048
rand_sets[46]: 1637
Assign rand_sets[47]: 1115  LLC: 2048
rand_sets[47]: 1115
Assign rand_sets[48]: 986  LLC: 2048
rand_sets[48]: 986
Assign rand_sets[49]: 258  LLC: 2048
rand_sets[49]: 258
Assign rand_sets[50]: 633  LLC: 2048
rand_sets[50]: 633
Assign rand_sets[51]: 920  LLC: 2048
rand_sets[51]: 920
Assign rand_sets[52]: 204  LLC: 2048
rand_sets[52]: 204
Assign rand_sets[53]: 227  LLC: 2048
rand_sets[53]: 227
Assign rand_sets[54]: 1818  LLC: 2048
rand_sets[54]: 1818
Assign rand_sets[55]: 886  LLC: 2048
rand_sets[55]: 886
Assign rand_sets[56]: 1422  LLC: 2048
rand_sets[56]: 1422
Assign rand_sets[57]: 607  LLC: 2048
rand_sets[57]: 607
Assign rand_sets[58]: 217  LLC: 2048
rand_sets[58]: 217
Assign rand_sets[59]: 1945  LLC: 2048
rand_sets[59]: 1945
Assign rand_sets[60]: 143  LLC: 2048
rand_sets[60]: 143
Assign rand_sets[61]: 1311  LLC: 2048
rand_sets[61]: 1311
Assign rand_sets[62]: 319  LLC: 2048
rand_sets[62]: 319
Assign rand_sets[63]: 1846  LLC: 2048
rand_sets[63]: 1846
 CLEAN-RRIP-POLICY-1: 0-1-2-3-0-2-1-0- CLEAN-RRIP-POLICY-2: 0-1-2-3-0-2-1-0-
 DIRTY-RRIP-POLICY-1: 2-1-2-3-2-2-0-0- DIRTY-RRIP-POLICY-2: 2-1-2-3-2-2-0-0-
 PSEL width: 10
Heartbeat CPU 0 instructions: 10000001 cycles: 7315987 heartbeat IPC: 1.36687 cumulative IPC: 1.36687 (Simulation time: 0 hr 0 min 14 sec) 
Heartbeat CPU 0 instructions: 20000000 cycles: 14307552 heartbeat IPC: 1.43029 cumulative IPC: 1.39786 (Simulation time: 0 hr 0 min 29 sec) 
Heartbeat CPU 0 instructions: 30000001 cycles: 21020507 heartbeat IPC: 1.48966 cumulative IPC: 1.42718 (Simulation time: 0 hr 0 min 45 sec) 
Heartbeat CPU 0 instructions: 40000000 cycles: 27481391 heartbeat IPC: 1.54778 cumulative IPC: 1.45553 (Simulation time: 0 hr 1 min 1 sec) 
Heartbeat CPU 0 instructions: 50000001 cycles: 33582822 heartbeat IPC: 1.63896 cumulative IPC: 1.48886 (Simulation time: 0 hr 1 min 17 sec) 
Heartbeat CPU 0 instructions: 60000000 cycles: 40063748 heartbeat IPC: 1.54299 cumulative IPC: 1.49761 (Simulation time: 0 hr 1 min 33 sec) 
Heartbeat CPU 0 instructions: 70000000 cycles: 47100917 heartbeat IPC: 1.42103 cumulative IPC: 1.48617 (Simulation time: 0 hr 1 min 47 sec) 
Heartbeat CPU 0 instructions: 80000000 cycles: 54190474 heartbeat IPC: 1.41053 cumulative IPC: 1.47627 (Simulation time: 0 hr 2 min 2 sec) 
Heartbeat CPU 0 instructions: 90000003 cycles: 61194800 heartbeat IPC: 1.42769 cumulative IPC: 1.47071 (Simulation time: 0 hr 2 min 17 sec) 
Heartbeat CPU 0 instructions: 100000000 cycles: 68362077 heartbeat IPC: 1.39523 cumulative IPC: 1.4628 (Simulation time: 0 hr 2 min 31 sec) 

Warmup complete CPU 0 instructions: 100000004 cycles: 68362078 (Simulation time: 0 hr 2 min 31 sec) 

Heartbeat CPU 0 instructions: 110000003 cycles: 96109020 heartbeat IPC: 0.3604 cumulative IPC: 0.3604 (Simulation time: 0 hr 3 min 0 sec) 
Heartbeat CPU 0 instructions: 120000000 cycles: 123637710 heartbeat IPC: 0.363257 cumulative IPC: 0.361823 (Simulation time: 0 hr 3 min 29 sec) 
Heartbeat CPU 0 instructions: 130000000 cycles: 148636569 heartbeat IPC: 0.400018 cumulative IPC: 0.373718 (Simulation time: 0 hr 3 min 57 sec) 
Heartbeat CPU 0 instructions: 140000000 cycles: 178156157 heartbeat IPC: 0.338758 cumulative IPC: 0.364318 (Simulation time: 0 hr 4 min 25 sec) 
Heartbeat CPU 0 instructions: 150000000 cycles: 208121125 heartbeat IPC: 0.333723 cumulative IPC: 0.357759 (Simulation time: 0 hr 4 min 54 sec) 
Heartbeat CPU 0 instructions: 160000000 cycles: 235525434 heartbeat IPC: 0.364906 cumulative IPC: 0.35893 (Simulation time: 0 hr 5 min 21 sec) 
Heartbeat CPU 0 instructions: 170000001 cycles: 263607730 heartbeat IPC: 0.356096 cumulative IPC: 0.358523 (Simulation time: 0 hr 5 min 51 sec) 
Heartbeat CPU 0 instructions: 180000000 cycles: 292110892 heartbeat IPC: 0.350838 cumulative IPC: 0.357544 (Simulation time: 0 hr 6 min 20 sec) 
Heartbeat CPU 0 instructions: 190000002 cycles: 320169155 heartbeat IPC: 0.356401 cumulative IPC: 0.357416 (Simulation time: 0 hr 6 min 49 sec) 
Heartbeat CPU 0 instructions: 200000000 cycles: 348592826 heartbeat IPC: 0.351819 cumulative IPC: 0.356849 (Simulation time: 0 hr 7 min 18 sec) 
Heartbeat CPU 0 instructions: 210000002 cycles: 376445798 heartbeat IPC: 0.359028 cumulative IPC: 0.357046 (Simulation time: 0 hr 7 min 46 sec) 
Heartbeat CPU 0 instructions: 220000000 cycles: 405622220 heartbeat IPC: 0.342742 cumulative IPC: 0.355808 (Simulation time: 0 hr 8 min 14 sec) 
Heartbeat CPU 0 instructions: 230000000 cycles: 433259270 heartbeat IPC: 0.361833 cumulative IPC: 0.356265 (Simulation time: 0 hr 8 min 42 sec) 
Heartbeat CPU 0 instructions: 240000000 cycles: 459424733 heartbeat IPC: 0.382183 cumulative IPC: 0.357999 (Simulation time: 0 hr 9 min 9 sec) 
Heartbeat CPU 0 instructions: 250000000 cycles: 489641330 heartbeat IPC: 0.330944 cumulative IPC: 0.356058 (Simulation time: 0 hr 9 min 39 sec) 
Heartbeat CPU 0 instructions: 260000000 cycles: 516782098 heartbeat IPC: 0.368449 cumulative IPC: 0.356808 (Simulation time: 0 hr 10 min 7 sec) 
Heartbeat CPU 0 instructions: 270000003 cycles: 545180632 heartbeat IPC: 0.352131 cumulative IPC: 0.35653 (Simulation time: 0 hr 10 min 36 sec) 
Heartbeat CPU 0 instructions: 280000000 cycles: 573453370 heartbeat IPC: 0.353698 cumulative IPC: 0.356371 (Simulation time: 0 hr 11 min 6 sec) 
Heartbeat CPU 0 instructions: 290000000 cycles: 602298868 heartbeat IPC: 0.346675 cumulative IPC: 0.355847 (Simulation time: 0 hr 11 min 36 sec) 
Heartbeat CPU 0 instructions: 300000000 cycles: 632252752 heartbeat IPC: 0.333847 cumulative IPC: 0.354679 (Simulation time: 0 hr 12 min 4 sec) 
Heartbeat CPU 0 instructions: 310000001 cycles: 661745020 heartbeat IPC: 0.339072 cumulative IPC: 0.353903 (Simulation time: 0 hr 12 min 32 sec) 
Heartbeat CPU 0 instructions: 320000000 cycles: 690033824 heartbeat IPC: 0.353497 cumulative IPC: 0.353884 (Simulation time: 0 hr 13 min 0 sec) 
Heartbeat CPU 0 instructions: 330000000 cycles: 718692799 heartbeat IPC: 0.348931 cumulative IPC: 0.353666 (Simulation time: 0 hr 13 min 28 sec) 
Heartbeat CPU 0 instructions: 340000000 cycles: 748137117 heartbeat IPC: 0.339624 cumulative IPC: 0.353058 (Simulation time: 0 hr 13 min 57 sec) 
Heartbeat CPU 0 instructions: 350000003 cycles: 775137316 heartbeat IPC: 0.370368 cumulative IPC: 0.353719 (Simulation time: 0 hr 14 min 25 sec) 
Heartbeat CPU 0 instructions: 360000000 cycles: 803441170 heartbeat IPC: 0.353309 cumulative IPC: 0.353703 (Simulation time: 0 hr 14 min 52 sec) 
Heartbeat CPU 0 instructions: 370000000 cycles: 831812530 heartbeat IPC: 0.352468 cumulative IPC: 0.353658 (Simulation time: 0 hr 15 min 19 sec) 
Heartbeat CPU 0 instructions: 380000000 cycles: 860529580 heartbeat IPC: 0.348225 cumulative IPC: 0.353461 (Simulation time: 0 hr 15 min 47 sec) 
Heartbeat CPU 0 instructions: 390000001 cycles: 888301740 heartbeat IPC: 0.360073 cumulative IPC: 0.353685 (Simulation time: 0 hr 16 min 14 sec) 
Heartbeat CPU 0 instructions: 400000000 cycles: 917112679 heartbeat IPC: 0.34709 cumulative IPC: 0.353461 (Simulation time: 0 hr 16 min 41 sec) 
Heartbeat CPU 0 instructions: 410000001 cycles: 944563959 heartbeat IPC: 0.364282 cumulative IPC: 0.3538 (Simulation time: 0 hr 17 min 8 sec) 
Heartbeat CPU 0 instructions: 420000000 cycles: 972019043 heartbeat IPC: 0.364231 cumulative IPC: 0.354117 (Simulation time: 0 hr 17 min 35 sec) 
Heartbeat CPU 0 instructions: 430000002 cycles: 999852713 heartbeat IPC: 0.359277 cumulative IPC: 0.354271 (Simulation time: 0 hr 18 min 2 sec) 
Heartbeat CPU 0 instructions: 440000000 cycles: 1029501546 heartbeat IPC: 0.337281 cumulative IPC: 0.353747 (Simulation time: 0 hr 18 min 30 sec) 
Heartbeat CPU 0 instructions: 450000002 cycles: 1058890006 heartbeat IPC: 0.34027 cumulative IPC: 0.353347 (Simulation time: 0 hr 18 min 57 sec) 
Heartbeat CPU 0 instructions: 460000000 cycles: 1086728163 heartbeat IPC: 0.359219 cumulative IPC: 0.353507 (Simulation time: 0 hr 19 min 25 sec) 
Heartbeat CPU 0 instructions: 470000000 cycles: 1114487753 heartbeat IPC: 0.360236 cumulative IPC: 0.353686 (Simulation time: 0 hr 19 min 52 sec) 
Heartbeat CPU 0 instructions: 480000000 cycles: 1142476288 heartbeat IPC: 0.357289 cumulative IPC: 0.35378 (Simulation time: 0 hr 20 min 19 sec) 
Heartbeat CPU 0 instructions: 490000000 cycles: 1170185993 heartbeat IPC: 0.360884 cumulative IPC: 0.353959 (Simulation time: 0 hr 20 min 46 sec) 
Heartbeat CPU 0 instructions: 500000000 cycles: 1198547433 heartbeat IPC: 0.352591 cumulative IPC: 0.353924 (Simulation time: 0 hr 21 min 14 sec) 
Heartbeat CPU 0 instructions: 510000000 cycles: 1233679217 heartbeat IPC: 0.284643 cumulative IPC: 0.351836 (Simulation time: 0 hr 21 min 45 sec) 
Heartbeat CPU 0 instructions: 520000000 cycles: 1261518583 heartbeat IPC: 0.359204 cumulative IPC: 0.352007 (Simulation time: 0 hr 22 min 13 sec) 
Heartbeat CPU 0 instructions: 530000001 cycles: 1291169317 heartbeat IPC: 0.33726 cumulative IPC: 0.35165 (Simulation time: 0 hr 22 min 41 sec) 
Heartbeat CPU 0 instructions: 540000000 cycles: 1319501668 heartbeat IPC: 0.352953 cumulative IPC: 0.351679 (Simulation time: 0 hr 23 min 9 sec) 
Heartbeat CPU 0 instructions: 550000001 cycles: 1348936770 heartbeat IPC: 0.33973 cumulative IPC: 0.351405 (Simulation time: 0 hr 23 min 39 sec) 
Heartbeat CPU 0 instructions: 560000000 cycles: 1374495493 heartbeat IPC: 0.391256 cumulative IPC: 0.352185 (Simulation time: 0 hr 24 min 7 sec) 
Heartbeat CPU 0 instructions: 570000000 cycles: 1404233471 heartbeat IPC: 0.33627 cumulative IPC: 0.35183 (Simulation time: 0 hr 24 min 36 sec) 
Heartbeat CPU 0 instructions: 580000000 cycles: 1432481071 heartbeat IPC: 0.354012 cumulative IPC: 0.351875 (Simulation time: 0 hr 25 min 4 sec) 
Heartbeat CPU 0 instructions: 590000001 cycles: 1457556421 heartbeat IPC: 0.398798 cumulative IPC: 0.352722 (Simulation time: 0 hr 25 min 31 sec) 
Heartbeat CPU 0 instructions: 600000000 cycles: 1484211494 heartbeat IPC: 0.375163 cumulative IPC: 0.353145 (Simulation time: 0 hr 25 min 59 sec) 
Finished CPU 0 instructions: 500000000 cycles: 1415849438 cumulative IPC: 0.353145 (Simulation time: 0 hr 25 min 59 sec) 

CPU 0 Branch Prediction Accuracy: 86.4311% MPKI: 26.2662
Number of Branches: 96788573 Number of Mispredictions: 13133102
Number of LOAD Instructions: 164682285
Number of LOAD Instructions (ROI): 164682285
Number of STORE Instructions: 78194750
Number of STORE Instructions (ROI): 78194750
Total Destination Memory Operands: 83268534
Total Destination Memory Operands (ROI): 83268534
Total Source Memory Operands: 164712438
Total Source Memory Operands (ROI): 164712438
Number of DEPENDED LOADS: 7071592
Number of DEPENDED LOADS (ROI): 7071592
Number of SQ_ADDED: 83268522
Number of SQ_ADDED (ROI): 83268522
Number of LQ_ADDED: 236858039
Number of LQ_ADDED (ROI): 236858039
Number of Instructions read from trace: 600000066

ChampSim completed all CPUs

Region of Interest Statistics

CPU 0 cumulative IPC: 0.353145 instructions: 500000000 cycles: 1415849438
ITLB TOTAL     ACCESS:  100498461  HIT:  100294015  MISS:     204446
ITLB LOAD      ACCESS:  100498461  HIT:  100294015  MISS:     204446
ITLB RFO       ACCESS:          0  HIT:          0  MISS:          0
ITLB PREFETCH  ACCESS:          0  HIT:          0  MISS:          0
ITLB WRITEBACK ACCESS:          0  HIT:          0  MISS:          0
ITLB PREFETCH  REQUESTED:          0  ISSUED:          0  USEFUL:          0  USELESS:          0
ITLB TOTAL MSHR MERGED:     172423
ITLB LOAD MSHR MERGED:     172423
ITLB RFO MSHR MERGED:          0
ITLB PREFETCH MSHR MERGED:          0
ITLB WRITEBACK MSHR MERGED:          0
ITLB TOTAL ACCESSES:  100670884 HITS:  100294015 MISSES:     376869
ITLB LOAD ACCESSES:  100670884 HITS:  100294015 MISSES:     376869
ITLB RFO ACCESSES:          0 HITS:          0 MISSES:          0
ITLB PREFETCH ACCESSES:          0 HITS:          0 MISSES:          0
ITLB WRITEBACK ACCESSES:          0 HITS:          0 MISSES:          0
ITLB RQ ACCESS:  500000057
ITLB RQ TO_CACHE:  100670884
ITLB RQ MERGED:  399329173
ITLB RQ FORWARD:          0
ITLB WQ ACCESS:          0
ITLB WQ TO_CACHE:          0
ITLB WQ MERGED:          0
ITLB WQ FORWARD:          0
DTLB TOTAL     ACCESS:  165325015  HIT:  164690667  MISS:     634348
DTLB LOAD      ACCESS:  106282603  HIT:  105712623  MISS:     569980
DTLB RFO       ACCESS:   59042412  HIT:   58978044  MISS:      64368
DTLB PREFETCH  ACCESS:          0  HIT:          0  MISS:          0
DTLB WRITEBACK ACCESS:          0  HIT:          0  MISS:          0
DTLB PREFETCH  REQUESTED:          0  ISSUED:          0  USEFUL:          0  USELESS:          0
DTLB TOTAL MSHR MERGED:      99835
DTLB LOAD MSHR MERGED:      59434
DTLB RFO MSHR MERGED:      40401
DTLB PREFETCH MSHR MERGED:          0
DTLB WRITEBACK MSHR MERGED:          0
DTLB TOTAL ACCESSES:  165424850 HITS:  164690667 MISSES:     734183
DTLB LOAD ACCESSES:  106342037 HITS:  105712623 MISSES:     629414
DTLB RFO ACCESSES:   59082813 HITS:   58978044 MISSES:     104769
DTLB PREFETCH ACCESSES:          0 HITS:          0 MISSES:          0
DTLB WRITEBACK ACCESSES:          0 HITS:          0 MISSES:          0
DTLB RQ ACCESS:  200299339
DTLB RQ TO_CACHE:  165424850
DTLB RQ MERGED:   34874489
DTLB RQ FORWARD:          0
DTLB WQ ACCESS:          0
DTLB WQ TO_CACHE:          0
DTLB WQ MERGED:          0
DTLB WQ FORWARD:          0
L1D TOTAL     ACCESS:  281715241  HIT:  273806114  MISS:    7909127
L1D LOAD      ACCESS:  110397616  HIT:  107113653  MISS:    3283963
L1D RFO       ACCESS:   67076530  HIT:   66184015  MISS:     892515
L1D PREFETCH  ACCESS:  104241095  HIT:  100508446  MISS:    3732649
L1D WRITEBACK ACCESS:          0  HIT:          0  MISS:          0
L1D PREFETCH  REQUESTED:  110808498  ISSUED:  109109266  USEFUL:    1653668  USELESS:    2078945
L1D TOTAL MSHR MERGED:    2972798
L1D LOAD MSHR MERGED:     514451
L1D RFO MSHR MERGED:    1910839
L1D PREFETCH MSHR MERGED:     547508
L1D WRITEBACK MSHR MERGED:          0
L1D TOTAL ACCESSES:  284715869 HITS:  273833944 MISSES:   10881925
L1D LOAD ACCESSES:  110810305 HITS:  107115460 MISSES:    3694845
L1D RFO ACCESSES:   68973608 HITS:   66184015 MISSES:    2789593
L1D PREFETCH ACCESSES:  104931956 HITS:  100534469 MISSES:    4397487
L1D WRITEBACK ACCESSES:          0 HITS:          0 MISSES:          0
L1D RQ ACCESS:  130746736
L1D RQ TO_CACHE:  110808501
L1D RQ MERGED:   19936428
L1D RQ FORWARD:          0
L1D WQ ACCESS:   69552603
L1D WQ TO_CACHE:   68973609
L1D WQ MERGED:     578994
L1D WQ FORWARD:      27830
L1I TOTAL     ACCESS:  126545098  HIT:  122306547  MISS:    4238551
L1I LOAD      ACCESS:  126545098  HIT:  122306547  MISS:    4238551
L1I RFO       ACCESS:          0  HIT:          0  MISS:          0
L1I PREFETCH  ACCESS:          0  HIT:          0  MISS:          0
L1I WRITEBACK ACCESS:          0  HIT:          0  MISS:          0
L1I PREFETCH  REQUESTED:          0  ISSUED:          0  USEFUL:          0  USELESS:          0
L1I TOTAL MSHR MERGED:    1834722
L1I LOAD MSHR MERGED:    1834722
L1I RFO MSHR MERGED:          0
L1I PREFETCH MSHR MERGED:          0
L1I WRITEBACK MSHR MERGED:          0
L1I TOTAL ACCESSES:  128379823 HITS:  122306547 MISSES:    6073276
L1I LOAD ACCESSES:  128379823 HITS:  122306547 MISSES:    6073276
L1I RFO ACCESSES:          0 HITS:          0 MISSES:          0
L1I PREFETCH ACCESSES:          0 HITS:          0 MISSES:          0
L1I WRITEBACK ACCESSES:          0 HITS:          0 MISSES:          0
L1I RQ ACCESS:  500000057
L1I RQ TO_CACHE:  128379823
L1I RQ MERGED:  371620234
L1I RQ FORWARD:          0
L1I WQ ACCESS:          0
L1I WQ TO_CACHE:          0
L1I WQ MERGED:          0
L1I WQ FORWARD:          0
L2C TOTAL     ACCESS:   14902649  HIT:   11156324  MISS:    3746325
L2C LOAD      ACCESS:    7418741  HIT:    5098174  MISS:    2320567
L2C RFO       ACCESS:     878658  HIT:     409902  MISS:     468756
L2C PREFETCH  ACCESS:    4566063  HIT:    3626313  MISS:     939750
L2C WRITEBACK ACCESS:    2039187  HIT:    2021935  MISS:      17252
L2C PREFETCH  REQUESTED:     842240  ISSUED:     842240  USEFUL:     202718  USELESS:     736737
L2C TOTAL MSHR MERGED:       9058
L2C LOAD MSHR MERGED:       1326
L2C RFO MSHR MERGED:          0
L2C PREFETCH MSHR MERGED:       7732
L2C WRITEBACK MSHR MERGED:          0
L2C TOTAL ACCESSES:   14912708 HITS:   11156767 MISSES:    3755941
L2C LOAD ACCESSES:    7418945 HITS:    5098378 MISSES:    2320567
L2C RFO ACCESSES:     878754 HITS:     409998 MISSES:     468756
L2C PREFETCH ACCESSES:    4575822 HITS:    3626456 MISSES:     949366
L2C WRITEBACK ACCESSES:    2039187 HITS:    2021935 MISSES:      17252
L2C RQ ACCESS:    8297702
L2C RQ TO_CACHE:    8297402
L2C RQ MERGED:          0
L2C RQ FORWARD:          0
L2C WQ ACCESS:    2039187
L2C WQ TO_CACHE:    2039187
L2C WQ MERGED:          0
L2C WQ FORWARD:        443
LLC TOTAL     ACCESS:    4609663  HIT:    3638606  MISS:     971057
LLC LOAD      ACCESS:    2319229  HIT:    2056235  MISS:     262994
LLC RFO       ACCESS:     468746  HIT:     327910  MISS:     140836
LLC PREFETCH  ACCESS:     941460  HIT:     531319  MISS:     410141
LLC WRITEBACK ACCESS:     880228  HIT:     723142  MISS:     157086
LLC PREFETCH  REQUESTED:          0  ISSUED:          0  USEFUL:      16231  USELESS:     394190
LLC TOTAL MSHR MERGED:        155
LLC LOAD MSHR MERGED:         55
LLC RFO MSHR MERGED:          0
LLC PREFETCH MSHR MERGED:        100
LLC WRITEBACK MSHR MERGED:          0
LLC TOTAL ACCESSES:    4609849 HITS:    3638637 MISSES:     971212
LLC LOAD ACCESSES:    2319241 HITS:    2056247 MISSES:     262994
LLC RFO ACCESSES:     468756 HITS:     327920 MISSES:     140836
LLC PREFETCH ACCESSES:     941624 HITS:     531328 MISSES:     410296
LLC WRITEBACK ACCESSES:     880228 HITS:     723142 MISSES:     157086
LLC 0 RQ ACCESS:    2787997
LLC 0 RQ TO_CACHE:    2787975
LLC 0 RQ MERGED:          0
LLC 0 RQ FORWARD:          0
LLC WQ ACCESS:     880228
LLC WQ TO_CACHE:     880228
LLC WQ MERGED:          0
LLC WQ FORWARD:         31
Major fault: 0 Minor fault: 12862
CPU 0 L1D next line prefetcher final stats
CPU 0 L2C PC-based stride prefetcher final stats
All Misses: 1126095
All Hits: 4300574
SD Algo Stats - Switches: 0 SRR-Repls: 300335 BRR-Repls: 0

DRAM Statistics
 CHANNEL 0
 RQ ROW_BUFFER_HIT:     163660  ROW_BUFFER_MISS:     647156
 DBUS_CONGESTED:     562369
 WQ ROW_BUFFER_HIT:      41362  ROW_BUFFER_MISS:     329622  FULL:          0

 AVG_CONGESTED_CYCLE: 13
LOADS RETIRED: 136549171
INSTR RETIRED: 500000000
