
*** ChampSim Multicore Out-of-Order Simulator ***

Warmup Instructions: 100000000
Simulation Instructions: 500000000
Number of CPUs: 1
LLC sets: 2048
LLC ways: 16
Clean RRIP Policies: 2202230122022301 Dirty RRIP Policies: 2202231122022311 PSEL Width: 10 Track Set: 4294967295 PSEL Mask: 1 Demote Mask: 441142204411422DS Algo: 0Window size: 0
Off-chip DRAM Size: 4096 MB Channels: 1 Width: 64-bit Data Rate: 1600 MT/s

CPU 0 runs /mnt/beegfs/iconst01/spec2017/Leela.trace.gz
NOT SORTED
TRACE STRING: /mnt/beegfs/iconst01/spec2017/Leela.trace.gz
SORTED
TRACE STRING: /mnt/beegfs/iconst01/spec2017/Leela.trace.gz
INITIAL
TRACE STRING: /mnt/beegfs/iconst01/spec2017/Leela.trace.gz

champsim_seed used: 483

CPU 0 L1D next line prefetcher
CPU 0 L2C IP-based stride prefetcher
Initialize DRRIP state
Assign rand_sets[0]: 454  LLC: 2048
rand_sets[0]: 454
Assign rand_sets[1]: 1662  LLC: 2048
rand_sets[1]: 1662
Assign rand_sets[2]: 1921  LLC: 2048
rand_sets[2]: 1921
Assign rand_sets[3]: 1131  LLC: 2048
rand_sets[3]: 1131
Assign rand_sets[4]: 331  LLC: 2048
rand_sets[4]: 331
Assign rand_sets[5]: 1531  LLC: 2048
rand_sets[5]: 1531
Assign rand_sets[6]: 482  LLC: 2048
rand_sets[6]: 482
Assign rand_sets[7]: 1275  LLC: 2048
rand_sets[7]: 1275
Assign rand_sets[8]: 1876  LLC: 2048
rand_sets[8]: 1876
Assign rand_sets[9]: 2038  LLC: 2048
rand_sets[9]: 2038
Assign rand_sets[10]: 701  LLC: 2048
rand_sets[10]: 701
Assign rand_sets[11]: 479  LLC: 2048
rand_sets[11]: 479
Assign rand_sets[12]: 892  LLC: 2048
rand_sets[12]: 892
Assign rand_sets[13]: 1820  LLC: 2048
rand_sets[13]: 1820
Assign rand_sets[14]: 1505  LLC: 2048
rand_sets[14]: 1505
Assign rand_sets[15]: 1159  LLC: 2048
rand_sets[15]: 1159
Assign rand_sets[16]: 513  LLC: 2048
rand_sets[16]: 513
Assign rand_sets[17]: 703  LLC: 2048
rand_sets[17]: 703
Assign rand_sets[18]: 561  LLC: 2048
rand_sets[18]: 561
Assign rand_sets[19]: 990  LLC: 2048
rand_sets[19]: 990
Assign rand_sets[20]: 342  LLC: 2048
rand_sets[20]: 342
Assign rand_sets[21]: 882  LLC: 2048
rand_sets[21]: 882
Assign rand_sets[22]: 15  LLC: 2048
rand_sets[22]: 15
Assign rand_sets[23]: 71  LLC: 2048
rand_sets[23]: 71
Assign rand_sets[24]: 1127  LLC: 2048
rand_sets[24]: 1127
Assign rand_sets[25]: 1382  LLC: 2048
rand_sets[25]: 1382
Assign rand_sets[26]: 647  LLC: 2048
rand_sets[26]: 647
Assign rand_sets[27]: 857  LLC: 2048
rand_sets[27]: 857
Assign rand_sets[28]: 1450  LLC: 2048
rand_sets[28]: 1450
Assign rand_sets[29]: 1160  LLC: 2048
rand_sets[29]: 1160
Assign rand_sets[30]: 1852  LLC: 2048
rand_sets[30]: 1852
Assign rand_sets[31]: 1881  LLC: 2048
rand_sets[31]: 1881
Assign rand_sets[32]: 1770  LLC: 2048
rand_sets[32]: 1770
Assign rand_sets[33]: 1622  LLC: 2048
rand_sets[33]: 1622
Assign rand_sets[34]: 275  LLC: 2048
rand_sets[34]: 275
Assign rand_sets[35]: 635  LLC: 2048
rand_sets[35]: 635
Assign rand_sets[36]: 466  LLC: 2048
rand_sets[36]: 466
Assign rand_sets[37]: 1413  LLC: 2048
rand_sets[37]: 1413
Assign rand_sets[38]: 417  LLC: 2048
rand_sets[38]: 417
Assign rand_sets[39]: 472  LLC: 2048
rand_sets[39]: 472
Assign rand_sets[40]: 1340  LLC: 2048
rand_sets[40]: 1340
Assign rand_sets[41]: 852  LLC: 2048
rand_sets[41]: 852
Assign rand_sets[42]: 1365  LLC: 2048
rand_sets[42]: 1365
Assign rand_sets[43]: 47  LLC: 2048
rand_sets[43]: 47
Assign rand_sets[44]: 823  LLC: 2048
rand_sets[44]: 823
Assign rand_sets[45]: 686  LLC: 2048
rand_sets[45]: 686
Assign rand_sets[46]: 1637  LLC: 2048
rand_sets[46]: 1637
Assign rand_sets[47]: 1115  LLC: 2048
rand_sets[47]: 1115
Assign rand_sets[48]: 986  LLC: 2048
rand_sets[48]: 986
Assign rand_sets[49]: 258  LLC: 2048
rand_sets[49]: 258
Assign rand_sets[50]: 633  LLC: 2048
rand_sets[50]: 633
Assign rand_sets[51]: 920  LLC: 2048
rand_sets[51]: 920
Assign rand_sets[52]: 204  LLC: 2048
rand_sets[52]: 204
Assign rand_sets[53]: 227  LLC: 2048
rand_sets[53]: 227
Assign rand_sets[54]: 1818  LLC: 2048
rand_sets[54]: 1818
Assign rand_sets[55]: 886  LLC: 2048
rand_sets[55]: 886
Assign rand_sets[56]: 1422  LLC: 2048
rand_sets[56]: 1422
Assign rand_sets[57]: 607  LLC: 2048
rand_sets[57]: 607
Assign rand_sets[58]: 217  LLC: 2048
rand_sets[58]: 217
Assign rand_sets[59]: 1945  LLC: 2048
rand_sets[59]: 1945
Assign rand_sets[60]: 143  LLC: 2048
rand_sets[60]: 143
Assign rand_sets[61]: 1311  LLC: 2048
rand_sets[61]: 1311
Assign rand_sets[62]: 319  LLC: 2048
rand_sets[62]: 319
Assign rand_sets[63]: 1846  LLC: 2048
rand_sets[63]: 1846
 CLEAN-RRIP-POLICY-1: 2-2-0-2-2-3-0-1- CLEAN-RRIP-POLICY-2: 2-2-0-2-2-3-0-1-
 DIRTY-RRIP-POLICY-1: 2-2-0-2-2-3-1-1- DIRTY-RRIP-POLICY-2: 2-2-0-2-2-3-1-1-
 PSEL width: 10
Heartbeat CPU 0 instructions: 10000000 cycles: 5810760 heartbeat IPC: 1.72095 cumulative IPC: 1.72095 (Simulation time: 0 hr 0 min 12 sec) 
Heartbeat CPU 0 instructions: 20000000 cycles: 11606059 heartbeat IPC: 1.72554 cumulative IPC: 1.72324 (Simulation time: 0 hr 0 min 24 sec) 
Heartbeat CPU 0 instructions: 30000000 cycles: 17388024 heartbeat IPC: 1.72952 cumulative IPC: 1.72533 (Simulation time: 0 hr 0 min 36 sec) 
Heartbeat CPU 0 instructions: 40000000 cycles: 23169613 heartbeat IPC: 1.72963 cumulative IPC: 1.7264 (Simulation time: 0 hr 0 min 48 sec) 
Heartbeat CPU 0 instructions: 50000003 cycles: 28984169 heartbeat IPC: 1.71982 cumulative IPC: 1.72508 (Simulation time: 0 hr 1 min 1 sec) 
Heartbeat CPU 0 instructions: 60000000 cycles: 34769434 heartbeat IPC: 1.72853 cumulative IPC: 1.72565 (Simulation time: 0 hr 1 min 13 sec) 
Heartbeat CPU 0 instructions: 70000001 cycles: 40536488 heartbeat IPC: 1.73399 cumulative IPC: 1.72684 (Simulation time: 0 hr 1 min 25 sec) 
Heartbeat CPU 0 instructions: 80000000 cycles: 46308609 heartbeat IPC: 1.73247 cumulative IPC: 1.72754 (Simulation time: 0 hr 1 min 37 sec) 
Heartbeat CPU 0 instructions: 90000002 cycles: 52118090 heartbeat IPC: 1.72132 cumulative IPC: 1.72685 (Simulation time: 0 hr 1 min 50 sec) 
Heartbeat CPU 0 instructions: 100000000 cycles: 57935761 heartbeat IPC: 1.7189 cumulative IPC: 1.72605 (Simulation time: 0 hr 2 min 2 sec) 

Warmup complete CPU 0 instructions: 100000001 cycles: 57935762 (Simulation time: 0 hr 2 min 2 sec) 

Heartbeat CPU 0 instructions: 110000001 cycles: 76357533 heartbeat IPC: 0.542836 cumulative IPC: 0.542836 (Simulation time: 0 hr 2 min 23 sec) 
Heartbeat CPU 0 instructions: 120000000 cycles: 94734799 heartbeat IPC: 0.544151 cumulative IPC: 0.543492 (Simulation time: 0 hr 2 min 44 sec) 
Heartbeat CPU 0 instructions: 130000002 cycles: 113054462 heartbeat IPC: 0.545862 cumulative IPC: 0.54428 (Simulation time: 0 hr 3 min 6 sec) 
Heartbeat CPU 0 instructions: 140000000 cycles: 131289999 heartbeat IPC: 0.54838 cumulative IPC: 0.545299 (Simulation time: 0 hr 3 min 27 sec) 
Heartbeat CPU 0 instructions: 150000002 cycles: 149397556 heartbeat IPC: 0.552256 cumulative IPC: 0.546676 (Simulation time: 0 hr 3 min 48 sec) 
Heartbeat CPU 0 instructions: 160000000 cycles: 167549667 heartbeat IPC: 0.5509 cumulative IPC: 0.547376 (Simulation time: 0 hr 4 min 9 sec) 
Heartbeat CPU 0 instructions: 170000001 cycles: 185751302 heartbeat IPC: 0.549401 cumulative IPC: 0.547664 (Simulation time: 0 hr 4 min 30 sec) 
Heartbeat CPU 0 instructions: 180000000 cycles: 204052616 heartbeat IPC: 0.546409 cumulative IPC: 0.547507 (Simulation time: 0 hr 4 min 51 sec) 
Heartbeat CPU 0 instructions: 190000001 cycles: 222400299 heartbeat IPC: 0.545028 cumulative IPC: 0.54723 (Simulation time: 0 hr 5 min 12 sec) 
Heartbeat CPU 0 instructions: 200000000 cycles: 240604730 heartbeat IPC: 0.549317 cumulative IPC: 0.547438 (Simulation time: 0 hr 5 min 34 sec) 
Heartbeat CPU 0 instructions: 210000002 cycles: 258732025 heartbeat IPC: 0.551654 cumulative IPC: 0.547819 (Simulation time: 0 hr 5 min 55 sec) 
Heartbeat CPU 0 instructions: 220000000 cycles: 276884518 heartbeat IPC: 0.550888 cumulative IPC: 0.548073 (Simulation time: 0 hr 6 min 16 sec) 
Heartbeat CPU 0 instructions: 230000002 cycles: 295103992 heartbeat IPC: 0.548863 cumulative IPC: 0.548134 (Simulation time: 0 hr 6 min 37 sec) 
Heartbeat CPU 0 instructions: 240000000 cycles: 313381085 heartbeat IPC: 0.547133 cumulative IPC: 0.548063 (Simulation time: 0 hr 6 min 58 sec) 
Heartbeat CPU 0 instructions: 250000003 cycles: 331549779 heartbeat IPC: 0.550397 cumulative IPC: 0.548218 (Simulation time: 0 hr 7 min 19 sec) 
Heartbeat CPU 0 instructions: 260000000 cycles: 349694975 heartbeat IPC: 0.55111 cumulative IPC: 0.548397 (Simulation time: 0 hr 7 min 40 sec) 
Heartbeat CPU 0 instructions: 270000001 cycles: 367931766 heartbeat IPC: 0.548342 cumulative IPC: 0.548394 (Simulation time: 0 hr 8 min 2 sec) 
Heartbeat CPU 0 instructions: 280000000 cycles: 386937157 heartbeat IPC: 0.526166 cumulative IPC: 0.54711 (Simulation time: 0 hr 8 min 24 sec) 
Heartbeat CPU 0 instructions: 290000001 cycles: 404949129 heartbeat IPC: 0.555186 cumulative IPC: 0.547529 (Simulation time: 0 hr 8 min 45 sec) 
Heartbeat CPU 0 instructions: 300000000 cycles: 423020483 heartbeat IPC: 0.553362 cumulative IPC: 0.547818 (Simulation time: 0 hr 9 min 6 sec) 
Heartbeat CPU 0 instructions: 310000000 cycles: 441235340 heartbeat IPC: 0.549002 cumulative IPC: 0.547874 (Simulation time: 0 hr 9 min 27 sec) 
Heartbeat CPU 0 instructions: 320000000 cycles: 459611453 heartbeat IPC: 0.544185 cumulative IPC: 0.547706 (Simulation time: 0 hr 9 min 48 sec) 
Heartbeat CPU 0 instructions: 330000000 cycles: 477906341 heartbeat IPC: 0.546601 cumulative IPC: 0.547657 (Simulation time: 0 hr 10 min 10 sec) 
Heartbeat CPU 0 instructions: 340000000 cycles: 496232348 heartbeat IPC: 0.545673 cumulative IPC: 0.547574 (Simulation time: 0 hr 10 min 31 sec) 
Heartbeat CPU 0 instructions: 350000000 cycles: 514464448 heartbeat IPC: 0.548483 cumulative IPC: 0.547611 (Simulation time: 0 hr 10 min 52 sec) 
Heartbeat CPU 0 instructions: 360000000 cycles: 532590811 heartbeat IPC: 0.551683 cumulative IPC: 0.547766 (Simulation time: 0 hr 11 min 13 sec) 
Heartbeat CPU 0 instructions: 370000000 cycles: 550602196 heartbeat IPC: 0.555204 cumulative IPC: 0.548038 (Simulation time: 0 hr 11 min 34 sec) 
Heartbeat CPU 0 instructions: 380000000 cycles: 568756842 heartbeat IPC: 0.550823 cumulative IPC: 0.548137 (Simulation time: 0 hr 11 min 55 sec) 
Heartbeat CPU 0 instructions: 390000003 cycles: 587028257 heartbeat IPC: 0.547303 cumulative IPC: 0.548108 (Simulation time: 0 hr 12 min 17 sec) 
Heartbeat CPU 0 instructions: 400000000 cycles: 605199584 heartbeat IPC: 0.550317 cumulative IPC: 0.548182 (Simulation time: 0 hr 12 min 38 sec) 
Heartbeat CPU 0 instructions: 410000002 cycles: 623424178 heartbeat IPC: 0.548709 cumulative IPC: 0.548199 (Simulation time: 0 hr 12 min 59 sec) 
Heartbeat CPU 0 instructions: 420000000 cycles: 641677173 heartbeat IPC: 0.547855 cumulative IPC: 0.548188 (Simulation time: 0 hr 13 min 19 sec) 
Heartbeat CPU 0 instructions: 430000003 cycles: 660012136 heartbeat IPC: 0.545406 cumulative IPC: 0.548103 (Simulation time: 0 hr 13 min 40 sec) 
Heartbeat CPU 0 instructions: 440000000 cycles: 678347079 heartbeat IPC: 0.545407 cumulative IPC: 0.548024 (Simulation time: 0 hr 14 min 1 sec) 
Heartbeat CPU 0 instructions: 450000003 cycles: 696584007 heartbeat IPC: 0.548338 cumulative IPC: 0.548033 (Simulation time: 0 hr 14 min 22 sec) 
Heartbeat CPU 0 instructions: 460000000 cycles: 714778016 heartbeat IPC: 0.549631 cumulative IPC: 0.548077 (Simulation time: 0 hr 14 min 43 sec) 
Heartbeat CPU 0 instructions: 470000001 cycles: 732894178 heartbeat IPC: 0.551993 cumulative IPC: 0.548182 (Simulation time: 0 hr 15 min 4 sec) 
Heartbeat CPU 0 instructions: 480000000 cycles: 751157418 heartbeat IPC: 0.547548 cumulative IPC: 0.548165 (Simulation time: 0 hr 15 min 25 sec) 
Heartbeat CPU 0 instructions: 490000000 cycles: 769395327 heartbeat IPC: 0.548308 cumulative IPC: 0.548169 (Simulation time: 0 hr 15 min 45 sec) 
Heartbeat CPU 0 instructions: 500000000 cycles: 787637073 heartbeat IPC: 0.548193 cumulative IPC: 0.548169 (Simulation time: 0 hr 16 min 6 sec) 
Heartbeat CPU 0 instructions: 510000003 cycles: 805821249 heartbeat IPC: 0.549929 cumulative IPC: 0.548212 (Simulation time: 0 hr 16 min 27 sec) 
Heartbeat CPU 0 instructions: 520000000 cycles: 823970686 heartbeat IPC: 0.550981 cumulative IPC: 0.548278 (Simulation time: 0 hr 16 min 47 sec) 
Heartbeat CPU 0 instructions: 530000001 cycles: 842230352 heartbeat IPC: 0.547655 cumulative IPC: 0.548263 (Simulation time: 0 hr 17 min 8 sec) 
Heartbeat CPU 0 instructions: 540000000 cycles: 860504318 heartbeat IPC: 0.547227 cumulative IPC: 0.54824 (Simulation time: 0 hr 17 min 28 sec) 
Heartbeat CPU 0 instructions: 550000002 cycles: 878745807 heartbeat IPC: 0.548201 cumulative IPC: 0.548239 (Simulation time: 0 hr 17 min 49 sec) 
Heartbeat CPU 0 instructions: 560000000 cycles: 896897702 heartbeat IPC: 0.550907 cumulative IPC: 0.548297 (Simulation time: 0 hr 18 min 9 sec) 
Heartbeat CPU 0 instructions: 570000003 cycles: 915125386 heartbeat IPC: 0.548616 cumulative IPC: 0.548303 (Simulation time: 0 hr 18 min 30 sec) 
Heartbeat CPU 0 instructions: 580000000 cycles: 933278261 heartbeat IPC: 0.550877 cumulative IPC: 0.548357 (Simulation time: 0 hr 18 min 50 sec) 
Heartbeat CPU 0 instructions: 590000000 cycles: 951429430 heartbeat IPC: 0.550929 cumulative IPC: 0.548409 (Simulation time: 0 hr 19 min 11 sec) 
Heartbeat CPU 0 instructions: 600000000 cycles: 969604998 heartbeat IPC: 0.550189 cumulative IPC: 0.548445 (Simulation time: 0 hr 19 min 31 sec) 
Finished CPU 0 instructions: 500000002 cycles: 911669250 cumulative IPC: 0.548445 (Simulation time: 0 hr 19 min 31 sec) 

CPU 0 Branch Prediction Accuracy: 84.5197% MPKI: 17.7348
Number of Branches: 57281827 Number of Mispredictions: 8867420
Number of LOAD Instructions: 149599668
Number of LOAD Instructions (ROI): 149599668
Number of STORE Instructions: 48204126
Number of STORE Instructions (ROI): 48204126
Total Destination Memory Operands: 56787011
Total Destination Memory Operands (ROI): 56787011
Total Source Memory Operands: 149599668
Total Source Memory Operands (ROI): 149599668
Number of DEPENDED LOADS: 8173515
Number of DEPENDED LOADS (ROI): 8173515
Number of SQ_ADDED: 56787004
Number of SQ_ADDED (ROI): 56787004
Number of LQ_ADDED: 236109040
Number of LQ_ADDED (ROI): 236109040
Number of Instructions read from trace: 600000094

ChampSim completed all CPUs

Region of Interest Statistics

CPU 0 cumulative IPC: 0.548445 instructions: 500000002 cycles: 911669250
ITLB TOTAL     ACCESS:   88351958  HIT:   88351914  MISS:         44
ITLB LOAD      ACCESS:   88351958  HIT:   88351914  MISS:         44
ITLB RFO       ACCESS:          0  HIT:          0  MISS:          0
ITLB PREFETCH  ACCESS:          0  HIT:          0  MISS:          0
ITLB WRITEBACK ACCESS:          0  HIT:          0  MISS:          0
ITLB PREFETCH  REQUESTED:          0  ISSUED:          0  USEFUL:          0  USELESS:          0
ITLB TOTAL MSHR MERGED:         55
ITLB LOAD MSHR MERGED:         55
ITLB RFO MSHR MERGED:          0
ITLB PREFETCH MSHR MERGED:          0
ITLB WRITEBACK MSHR MERGED:          0
ITLB TOTAL ACCESSES:   88352013 HITS:   88351914 MISSES:         99
ITLB LOAD ACCESSES:   88352013 HITS:   88351914 MISSES:         99
ITLB RFO ACCESSES:          0 HITS:          0 MISSES:          0
ITLB PREFETCH ACCESSES:          0 HITS:          0 MISSES:          0
ITLB WRITEBACK ACCESSES:          0 HITS:          0 MISSES:          0
ITLB RQ ACCESS:  500000064
ITLB RQ TO_CACHE:   88352013
ITLB RQ MERGED:  411648051
ITLB RQ FORWARD:          0
ITLB WQ ACCESS:          0
ITLB WQ TO_CACHE:          0
ITLB WQ MERGED:          0
ITLB WQ FORWARD:          0
DTLB TOTAL     ACCESS:  121280908  HIT:  121188121  MISS:      92787
DTLB LOAD      ACCESS:   81232468  HIT:   81143633  MISS:      88835
DTLB RFO       ACCESS:   40048440  HIT:   40044488  MISS:       3952
DTLB PREFETCH  ACCESS:          0  HIT:          0  MISS:          0
DTLB WRITEBACK ACCESS:          0  HIT:          0  MISS:          0
DTLB PREFETCH  REQUESTED:          0  ISSUED:          0  USEFUL:          0  USELESS:          0
DTLB TOTAL MSHR MERGED:       2660
DTLB LOAD MSHR MERGED:       2332
DTLB RFO MSHR MERGED:        328
DTLB PREFETCH MSHR MERGED:          0
DTLB WRITEBACK MSHR MERGED:          0
DTLB TOTAL ACCESSES:  121283568 HITS:  121188121 MISSES:      95447
DTLB LOAD ACCESSES:   81234800 HITS:   81143633 MISSES:      91167
DTLB RFO ACCESSES:   40048768 HITS:   40044488 MISSES:       4280
DTLB PREFETCH ACCESSES:          0 HITS:          0 MISSES:          0
DTLB WRITEBACK ACCESSES:          0 HITS:          0 MISSES:          0
DTLB RQ ACCESS:  164789717
DTLB RQ TO_CACHE:  121283568
DTLB RQ MERGED:   43506149
DTLB RQ FORWARD:          0
DTLB WQ ACCESS:          0
DTLB WQ TO_CACHE:          0
DTLB WQ MERGED:          0
DTLB WQ FORWARD:          0
L1D TOTAL     ACCESS:  217707623  HIT:  214708737  MISS:    2998886
L1D LOAD      ACCESS:   90566695  HIT:   89162524  MISS:    1404171
L1D RFO       ACCESS:   46154951  HIT:   45772651  MISS:     382300
L1D PREFETCH  ACCESS:   80985977  HIT:   79773562  MISS:    1212415
L1D WRITEBACK ACCESS:          0  HIT:          0  MISS:          0
L1D PREFETCH  REQUESTED:   90616328  ISSUED:   88239261  USEFUL:     599012  USELESS:     613422
L1D TOTAL MSHR MERGED:     344597
L1D LOAD MSHR MERGED:      54135
L1D RFO MSHR MERGED:     174496
L1D PREFETCH MSHR MERGED:     115966
L1D WRITEBACK MSHR MERGED:          0
L1D TOTAL ACCESSES:  218056781 HITS:  214713298 MISSES:    3343483
L1D LOAD ACCESSES:   90616329 HITS:   89162525 MISSES:    1453804
L1D RFO ACCESSES:   46328308 HITS:   45772651 MISSES:     555657
L1D PREFETCH ACCESSES:   81112144 HITS:   79778122 MISSES:    1334022
L1D WRITEBACK ACCESSES:          0 HITS:          0 MISSES:          0
L1D RQ ACCESS:  117521797
L1D RQ TO_CACHE:   90616328
L1D RQ MERGED:   26905468
L1D RQ FORWARD:          0
L1D WQ ACCESS:   47267919
L1D WQ TO_CACHE:   46328308
L1D WQ MERGED:     939611
L1D WQ FORWARD:       4561
L1I TOTAL     ACCESS:  112806577  HIT:  112711174  MISS:      95403
L1I LOAD      ACCESS:  112806577  HIT:  112711174  MISS:      95403
L1I RFO       ACCESS:          0  HIT:          0  MISS:          0
L1I PREFETCH  ACCESS:          0  HIT:          0  MISS:          0
L1I WRITEBACK ACCESS:          0  HIT:          0  MISS:          0
L1I PREFETCH  REQUESTED:          0  ISSUED:          0  USEFUL:          0  USELESS:          0
L1I TOTAL MSHR MERGED:      59456
L1I LOAD MSHR MERGED:      59456
L1I RFO MSHR MERGED:          0
L1I PREFETCH MSHR MERGED:          0
L1I WRITEBACK MSHR MERGED:          0
L1I TOTAL ACCESSES:  112866033 HITS:  112711174 MISSES:     154859
L1I LOAD ACCESSES:  112866033 HITS:  112711174 MISSES:     154859
L1I RFO ACCESSES:          0 HITS:          0 MISSES:          0
L1I PREFETCH ACCESSES:          0 HITS:          0 MISSES:          0
L1I WRITEBACK ACCESSES:          0 HITS:          0 MISSES:          0
L1I RQ ACCESS:  500000064
L1I RQ TO_CACHE:  112866033
L1I RQ MERGED:  387134031
L1I RQ FORWARD:          0
L1I WQ ACCESS:          0
L1I WQ TO_CACHE:          0
L1I WQ MERGED:          0
L1I WQ FORWARD:          0
L2C TOTAL     ACCESS:    4791809  HIT:    4716733  MISS:      75076
L2C LOAD      ACCESS:    1495054  HIT:    1468408  MISS:      26646
L2C RFO       ACCESS:     381153  HIT:     372272  MISS:       8881
L2C PREFETCH  ACCESS:    2135897  HIT:    2096480  MISS:      39417
L2C WRITEBACK ACCESS:     779705  HIT:     779573  MISS:        132
L2C PREFETCH  REQUESTED:     923258  ISSUED:     923258  USEFUL:      13215  USELESS:      26319
L2C TOTAL MSHR MERGED:       5409
L2C LOAD MSHR MERGED:        213
L2C RFO MSHR MERGED:          0
L2C PREFETCH MSHR MERGED:       5196
L2C WRITEBACK MSHR MERGED:          0
L2C TOTAL ACCESSES:    4797251 HITS:    4716766 MISSES:      80485
L2C LOAD ACCESSES:    1495072 HITS:    1468426 MISSES:      26646
L2C RFO ACCESSES:     381161 HITS:     372280 MISSES:       8881
L2C PREFETCH ACCESSES:    2141313 HITS:    2096487 MISSES:      44826
L2C WRITEBACK ACCESSES:     779705 HITS:     779573 MISSES:        132
L2C RQ ACCESS:    1876233
L2C RQ TO_CACHE:    1876207
L2C RQ MERGED:          0
L2C RQ FORWARD:          0
L2C WQ ACCESS:     779705
L2C WQ TO_CACHE:     779705
L2C WQ MERGED:          0
L2C WQ FORWARD:         33
LLC TOTAL     ACCESS:      95472  HIT:      70691  MISS:      24781
LLC LOAD      ACCESS:      26433  HIT:      23795  MISS:       2638
LLC RFO       ACCESS:       8881  HIT:        417  MISS:       8464
LLC PREFETCH  ACCESS:      39630  HIT:      32256  MISS:       7374
LLC WRITEBACK ACCESS:      20528  HIT:      14223  MISS:       6305
LLC PREFETCH  REQUESTED:          0  ISSUED:          0  USEFUL:        865  USELESS:        249
LLC TOTAL MSHR MERGED:          0
LLC LOAD MSHR MERGED:          0
LLC RFO MSHR MERGED:          0
LLC PREFETCH MSHR MERGED:          0
LLC WRITEBACK MSHR MERGED:          0
LLC TOTAL ACCESSES:      95472 HITS:      70691 MISSES:      24781
LLC LOAD ACCESSES:      26433 HITS:      23795 MISSES:       2638
LLC RFO ACCESSES:       8881 HITS:        417 MISSES:       8464
LLC PREFETCH ACCESSES:      39630 HITS:      32256 MISSES:       7374
LLC WRITEBACK ACCESSES:      20528 HITS:      14223 MISSES:       6305
LLC 0 RQ ACCESS:      35314
LLC 0 RQ TO_CACHE:      35314
LLC 0 RQ MERGED:          0
LLC 0 RQ FORWARD:          0
LLC WQ ACCESS:      20528
LLC WQ TO_CACHE:      20528
LLC WQ MERGED:          0
LLC WQ FORWARD:          0
Major fault: 0 Minor fault: 1378
CPU 0 L1D next line prefetcher final stats
CPU 0 L2C PC-based stride prefetcher final stats
All Misses: 33109
All Hits: 79840
SD Algo Stats - Switches: 0 SRR-Repls: 5442 BRR-Repls: 0

DRAM Statistics
 CHANNEL 0
 RQ ROW_BUFFER_HIT:      14119  ROW_BUFFER_MISS:       4340
 DBUS_CONGESTED:       3018
 WQ ROW_BUFFER_HIT:         26  ROW_BUFFER_MISS:        316  FULL:          0

 AVG_CONGESTED_CYCLE: 12
LOADS RETIRED: 124527094
INSTR RETIRED: 500000000
