
*** ChampSim Multicore Out-of-Order Simulator ***

Warmup Instructions: 100000000
Simulation Instructions: 500000000
Number of CPUs: 1
LLC sets: 2048
LLC ways: 16
Clean RRIP Policies: 2213230222132302 Dirty RRIP Policies: 2203130222031302 PSEL Width: 10 Track Set: 4294967295 PSEL Mask: 1 Demote Mask: 3040100030401000DS Algo: 0Window size: 0
Off-chip DRAM Size: 4096 MB Channels: 1 Width: 64-bit Data Rate: 1600 MT/s

CPU 0 runs /mnt/beegfs/iconst01/spec2017/Parest.trace.gz
NOT SORTED
TRACE STRING: /mnt/beegfs/iconst01/spec2017/Parest.trace.gz
SORTED
TRACE STRING: /mnt/beegfs/iconst01/spec2017/Parest.trace.gz
INITIAL
TRACE STRING: /mnt/beegfs/iconst01/spec2017/Parest.trace.gz

champsim_seed used: 623

CPU 0 L1D next line prefetcher
CPU 0 L2C IP-based stride prefetcher
Initialize DRRIP state
Assign rand_sets[0]: 454  LLC: 2048
rand_sets[0]: 454
Assign rand_sets[1]: 1662  LLC: 2048
rand_sets[1]: 1662
Assign rand_sets[2]: 1921  LLC: 2048
rand_sets[2]: 1921
Assign rand_sets[3]: 1131  LLC: 2048
rand_sets[3]: 1131
Assign rand_sets[4]: 331  LLC: 2048
rand_sets[4]: 331
Assign rand_sets[5]: 1531  LLC: 2048
rand_sets[5]: 1531
Assign rand_sets[6]: 482  LLC: 2048
rand_sets[6]: 482
Assign rand_sets[7]: 1275  LLC: 2048
rand_sets[7]: 1275
Assign rand_sets[8]: 1876  LLC: 2048
rand_sets[8]: 1876
Assign rand_sets[9]: 2038  LLC: 2048
rand_sets[9]: 2038
Assign rand_sets[10]: 701  LLC: 2048
rand_sets[10]: 701
Assign rand_sets[11]: 479  LLC: 2048
rand_sets[11]: 479
Assign rand_sets[12]: 892  LLC: 2048
rand_sets[12]: 892
Assign rand_sets[13]: 1820  LLC: 2048
rand_sets[13]: 1820
Assign rand_sets[14]: 1505  LLC: 2048
rand_sets[14]: 1505
Assign rand_sets[15]: 1159  LLC: 2048
rand_sets[15]: 1159
Assign rand_sets[16]: 513  LLC: 2048
rand_sets[16]: 513
Assign rand_sets[17]: 703  LLC: 2048
rand_sets[17]: 703
Assign rand_sets[18]: 561  LLC: 2048
rand_sets[18]: 561
Assign rand_sets[19]: 990  LLC: 2048
rand_sets[19]: 990
Assign rand_sets[20]: 342  LLC: 2048
rand_sets[20]: 342
Assign rand_sets[21]: 882  LLC: 2048
rand_sets[21]: 882
Assign rand_sets[22]: 15  LLC: 2048
rand_sets[22]: 15
Assign rand_sets[23]: 71  LLC: 2048
rand_sets[23]: 71
Assign rand_sets[24]: 1127  LLC: 2048
rand_sets[24]: 1127
Assign rand_sets[25]: 1382  LLC: 2048
rand_sets[25]: 1382
Assign rand_sets[26]: 647  LLC: 2048
rand_sets[26]: 647
Assign rand_sets[27]: 857  LLC: 2048
rand_sets[27]: 857
Assign rand_sets[28]: 1450  LLC: 2048
rand_sets[28]: 1450
Assign rand_sets[29]: 1160  LLC: 2048
rand_sets[29]: 1160
Assign rand_sets[30]: 1852  LLC: 2048
rand_sets[30]: 1852
Assign rand_sets[31]: 1881  LLC: 2048
rand_sets[31]: 1881
Assign rand_sets[32]: 1770  LLC: 2048
rand_sets[32]: 1770
Assign rand_sets[33]: 1622  LLC: 2048
rand_sets[33]: 1622
Assign rand_sets[34]: 275  LLC: 2048
rand_sets[34]: 275
Assign rand_sets[35]: 635  LLC: 2048
rand_sets[35]: 635
Assign rand_sets[36]: 466  LLC: 2048
rand_sets[36]: 466
Assign rand_sets[37]: 1413  LLC: 2048
rand_sets[37]: 1413
Assign rand_sets[38]: 417  LLC: 2048
rand_sets[38]: 417
Assign rand_sets[39]: 472  LLC: 2048
rand_sets[39]: 472
Assign rand_sets[40]: 1340  LLC: 2048
rand_sets[40]: 1340
Assign rand_sets[41]: 852  LLC: 2048
rand_sets[41]: 852
Assign rand_sets[42]: 1365  LLC: 2048
rand_sets[42]: 1365
Assign rand_sets[43]: 47  LLC: 2048
rand_sets[43]: 47
Assign rand_sets[44]: 823  LLC: 2048
rand_sets[44]: 823
Assign rand_sets[45]: 686  LLC: 2048
rand_sets[45]: 686
Assign rand_sets[46]: 1637  LLC: 2048
rand_sets[46]: 1637
Assign rand_sets[47]: 1115  LLC: 2048
rand_sets[47]: 1115
Assign rand_sets[48]: 986  LLC: 2048
rand_sets[48]: 986
Assign rand_sets[49]: 258  LLC: 2048
rand_sets[49]: 258
Assign rand_sets[50]: 633  LLC: 2048
rand_sets[50]: 633
Assign rand_sets[51]: 920  LLC: 2048
rand_sets[51]: 920
Assign rand_sets[52]: 204  LLC: 2048
rand_sets[52]: 204
Assign rand_sets[53]: 227  LLC: 2048
rand_sets[53]: 227
Assign rand_sets[54]: 1818  LLC: 2048
rand_sets[54]: 1818
Assign rand_sets[55]: 886  LLC: 2048
rand_sets[55]: 886
Assign rand_sets[56]: 1422  LLC: 2048
rand_sets[56]: 1422
Assign rand_sets[57]: 607  LLC: 2048
rand_sets[57]: 607
Assign rand_sets[58]: 217  LLC: 2048
rand_sets[58]: 217
Assign rand_sets[59]: 1945  LLC: 2048
rand_sets[59]: 1945
Assign rand_sets[60]: 143  LLC: 2048
rand_sets[60]: 143
Assign rand_sets[61]: 1311  LLC: 2048
rand_sets[61]: 1311
Assign rand_sets[62]: 319  LLC: 2048
rand_sets[62]: 319
Assign rand_sets[63]: 1846  LLC: 2048
rand_sets[63]: 1846
 CLEAN-RRIP-POLICY-1: 2-2-1-3-2-3-0-2- CLEAN-RRIP-POLICY-2: 2-2-1-3-2-3-0-2-
 DIRTY-RRIP-POLICY-1: 2-2-0-3-1-3-0-2- DIRTY-RRIP-POLICY-2: 2-2-0-3-1-3-0-2-
 PSEL width: 10
Heartbeat CPU 0 instructions: 10000001 cycles: 4387143 heartbeat IPC: 2.27939 cumulative IPC: 2.27939 (Simulation time: 0 hr 0 min 14 sec) 
Heartbeat CPU 0 instructions: 20000000 cycles: 8781333 heartbeat IPC: 2.27573 cumulative IPC: 2.27756 (Simulation time: 0 hr 0 min 28 sec) 
Heartbeat CPU 0 instructions: 30000003 cycles: 13213266 heartbeat IPC: 2.25635 cumulative IPC: 2.27045 (Simulation time: 0 hr 0 min 42 sec) 
Heartbeat CPU 0 instructions: 40000000 cycles: 17643877 heartbeat IPC: 2.25702 cumulative IPC: 2.26708 (Simulation time: 0 hr 0 min 56 sec) 
Heartbeat CPU 0 instructions: 50000000 cycles: 22052158 heartbeat IPC: 2.26846 cumulative IPC: 2.26735 (Simulation time: 0 hr 1 min 10 sec) 
Heartbeat CPU 0 instructions: 60000000 cycles: 26457908 heartbeat IPC: 2.26976 cumulative IPC: 2.26775 (Simulation time: 0 hr 1 min 23 sec) 
Heartbeat CPU 0 instructions: 70000000 cycles: 30858831 heartbeat IPC: 2.27225 cumulative IPC: 2.26839 (Simulation time: 0 hr 1 min 37 sec) 
Heartbeat CPU 0 instructions: 80000000 cycles: 35254443 heartbeat IPC: 2.275 cumulative IPC: 2.26922 (Simulation time: 0 hr 1 min 51 sec) 
Heartbeat CPU 0 instructions: 90000000 cycles: 39648744 heartbeat IPC: 2.27567 cumulative IPC: 2.26993 (Simulation time: 0 hr 2 min 6 sec) 
Heartbeat CPU 0 instructions: 100000000 cycles: 44046085 heartbeat IPC: 2.2741 cumulative IPC: 2.27035 (Simulation time: 0 hr 2 min 20 sec) 

Warmup complete CPU 0 instructions: 100000002 cycles: 44046095 (Simulation time: 0 hr 2 min 20 sec) 

Heartbeat CPU 0 instructions: 110000000 cycles: 54014414 heartbeat IPC: 1.00318 cumulative IPC: 1.00318 (Simulation time: 0 hr 2 min 38 sec) 
Heartbeat CPU 0 instructions: 120000000 cycles: 63007398 heartbeat IPC: 1.11198 cumulative IPC: 1.05478 (Simulation time: 0 hr 2 min 55 sec) 
Heartbeat CPU 0 instructions: 130000001 cycles: 72030505 heartbeat IPC: 1.10827 cumulative IPC: 1.07203 (Simulation time: 0 hr 3 min 13 sec) 
Heartbeat CPU 0 instructions: 140000000 cycles: 81198266 heartbeat IPC: 1.09078 cumulative IPC: 1.07665 (Simulation time: 0 hr 3 min 31 sec) 
Heartbeat CPU 0 instructions: 150000000 cycles: 92286958 heartbeat IPC: 0.90182 cumulative IPC: 1.03647 (Simulation time: 0 hr 3 min 49 sec) 
Heartbeat CPU 0 instructions: 160000000 cycles: 102370080 heartbeat IPC: 0.991756 cumulative IPC: 1.02874 (Simulation time: 0 hr 4 min 6 sec) 
Heartbeat CPU 0 instructions: 170000003 cycles: 112216574 heartbeat IPC: 1.01559 cumulative IPC: 1.02684 (Simulation time: 0 hr 4 min 24 sec) 
Heartbeat CPU 0 instructions: 180000000 cycles: 121885589 heartbeat IPC: 1.03423 cumulative IPC: 1.02776 (Simulation time: 0 hr 4 min 42 sec) 
Heartbeat CPU 0 instructions: 190000002 cycles: 131688514 heartbeat IPC: 1.0201 cumulative IPC: 1.0269 (Simulation time: 0 hr 4 min 59 sec) 
Heartbeat CPU 0 instructions: 200000000 cycles: 140938825 heartbeat IPC: 1.08104 cumulative IPC: 1.03207 (Simulation time: 0 hr 5 min 17 sec) 
Heartbeat CPU 0 instructions: 210000000 cycles: 150588562 heartbeat IPC: 1.0363 cumulative IPC: 1.03245 (Simulation time: 0 hr 5 min 35 sec) 
Heartbeat CPU 0 instructions: 220000000 cycles: 159537691 heartbeat IPC: 1.11743 cumulative IPC: 1.03904 (Simulation time: 0 hr 5 min 53 sec) 
Heartbeat CPU 0 instructions: 230000001 cycles: 171698279 heartbeat IPC: 0.822329 cumulative IPC: 1.01839 (Simulation time: 0 hr 6 min 12 sec) 
Heartbeat CPU 0 instructions: 240000000 cycles: 182162119 heartbeat IPC: 0.955672 cumulative IPC: 1.01364 (Simulation time: 0 hr 6 min 30 sec) 
Heartbeat CPU 0 instructions: 250000002 cycles: 192024401 heartbeat IPC: 1.01396 cumulative IPC: 1.01366 (Simulation time: 0 hr 6 min 48 sec) 
Heartbeat CPU 0 instructions: 260000000 cycles: 201614552 heartbeat IPC: 1.04274 cumulative IPC: 1.01543 (Simulation time: 0 hr 7 min 5 sec) 
Heartbeat CPU 0 instructions: 270000001 cycles: 211022011 heartbeat IPC: 1.06299 cumulative IPC: 1.01811 (Simulation time: 0 hr 7 min 23 sec) 
Heartbeat CPU 0 instructions: 280000000 cycles: 220729537 heartbeat IPC: 1.03013 cumulative IPC: 1.01877 (Simulation time: 0 hr 7 min 40 sec) 
Heartbeat CPU 0 instructions: 290000002 cycles: 229810741 heartbeat IPC: 1.10118 cumulative IPC: 1.0228 (Simulation time: 0 hr 7 min 58 sec) 
Heartbeat CPU 0 instructions: 300000000 cycles: 239358129 heartbeat IPC: 1.04741 cumulative IPC: 1.024 (Simulation time: 0 hr 8 min 16 sec) 
Heartbeat CPU 0 instructions: 310000000 cycles: 248365026 heartbeat IPC: 1.11026 cumulative IPC: 1.0278 (Simulation time: 0 hr 8 min 33 sec) 
Heartbeat CPU 0 instructions: 320000000 cycles: 257485625 heartbeat IPC: 1.09642 cumulative IPC: 1.03074 (Simulation time: 0 hr 8 min 51 sec) 
Heartbeat CPU 0 instructions: 330000002 cycles: 266790822 heartbeat IPC: 1.07467 cumulative IPC: 1.03257 (Simulation time: 0 hr 9 min 9 sec) 
Heartbeat CPU 0 instructions: 340000000 cycles: 276719495 heartbeat IPC: 1.00718 cumulative IPC: 1.03149 (Simulation time: 0 hr 9 min 27 sec) 
Heartbeat CPU 0 instructions: 350000000 cycles: 287059293 heartbeat IPC: 0.967137 cumulative IPC: 1.02875 (Simulation time: 0 hr 9 min 45 sec) 
Heartbeat CPU 0 instructions: 360000000 cycles: 296845819 heartbeat IPC: 1.02181 cumulative IPC: 1.02848 (Simulation time: 0 hr 10 min 2 sec) 
Heartbeat CPU 0 instructions: 370000000 cycles: 306369470 heartbeat IPC: 1.05002 cumulative IPC: 1.02926 (Simulation time: 0 hr 10 min 20 sec) 
Heartbeat CPU 0 instructions: 380000000 cycles: 315701944 heartbeat IPC: 1.07153 cumulative IPC: 1.03072 (Simulation time: 0 hr 10 min 37 sec) 
Heartbeat CPU 0 instructions: 390000002 cycles: 324801942 heartbeat IPC: 1.0989 cumulative IPC: 1.03293 (Simulation time: 0 hr 10 min 55 sec) 
Heartbeat CPU 0 instructions: 400000000 cycles: 334333484 heartbeat IPC: 1.04915 cumulative IPC: 1.03346 (Simulation time: 0 hr 11 min 12 sec) 
Heartbeat CPU 0 instructions: 410000000 cycles: 343216879 heartbeat IPC: 1.1257 cumulative IPC: 1.0362 (Simulation time: 0 hr 11 min 30 sec) 
Heartbeat CPU 0 instructions: 420000000 cycles: 354044220 heartbeat IPC: 0.923588 cumulative IPC: 1.03226 (Simulation time: 0 hr 11 min 48 sec) 
Heartbeat CPU 0 instructions: 430000000 cycles: 364911656 heartbeat IPC: 0.92018 cumulative IPC: 1.02847 (Simulation time: 0 hr 12 min 6 sec) 
Heartbeat CPU 0 instructions: 440000000 cycles: 374808717 heartbeat IPC: 1.0104 cumulative IPC: 1.02793 (Simulation time: 0 hr 12 min 24 sec) 
Heartbeat CPU 0 instructions: 450000000 cycles: 384589826 heartbeat IPC: 1.02238 cumulative IPC: 1.02777 (Simulation time: 0 hr 12 min 41 sec) 
Heartbeat CPU 0 instructions: 460000000 cycles: 394306348 heartbeat IPC: 1.02917 cumulative IPC: 1.02781 (Simulation time: 0 hr 12 min 59 sec) 
Heartbeat CPU 0 instructions: 470000001 cycles: 404081591 heartbeat IPC: 1.02299 cumulative IPC: 1.02768 (Simulation time: 0 hr 13 min 16 sec) 
Heartbeat CPU 0 instructions: 480000000 cycles: 413285102 heartbeat IPC: 1.08654 cumulative IPC: 1.02914 (Simulation time: 0 hr 13 min 33 sec) 
Heartbeat CPU 0 instructions: 490000000 cycles: 422991283 heartbeat IPC: 1.03027 cumulative IPC: 1.02917 (Simulation time: 0 hr 13 min 51 sec) 
Heartbeat CPU 0 instructions: 500000000 cycles: 432295413 heartbeat IPC: 1.07479 cumulative IPC: 1.03027 (Simulation time: 0 hr 14 min 8 sec) 
Heartbeat CPU 0 instructions: 510000000 cycles: 441401657 heartbeat IPC: 1.09815 cumulative IPC: 1.03182 (Simulation time: 0 hr 14 min 26 sec) 
Heartbeat CPU 0 instructions: 520000000 cycles: 450797725 heartbeat IPC: 1.06428 cumulative IPC: 1.03257 (Simulation time: 0 hr 14 min 43 sec) 
Heartbeat CPU 0 instructions: 530000001 cycles: 460967846 heartbeat IPC: 0.983273 cumulative IPC: 1.03137 (Simulation time: 0 hr 15 min 1 sec) 
Heartbeat CPU 0 instructions: 540000000 cycles: 471468525 heartbeat IPC: 0.952319 cumulative IPC: 1.02943 (Simulation time: 0 hr 15 min 19 sec) 
Heartbeat CPU 0 instructions: 550000003 cycles: 481450541 heartbeat IPC: 1.0018 cumulative IPC: 1.0288 (Simulation time: 0 hr 15 min 36 sec) 
Heartbeat CPU 0 instructions: 560000000 cycles: 491154185 heartbeat IPC: 1.03054 cumulative IPC: 1.02883 (Simulation time: 0 hr 15 min 54 sec) 
Heartbeat CPU 0 instructions: 570000002 cycles: 500661395 heartbeat IPC: 1.05183 cumulative IPC: 1.02931 (Simulation time: 0 hr 16 min 11 sec) 
Heartbeat CPU 0 instructions: 580000000 cycles: 509954461 heartbeat IPC: 1.07607 cumulative IPC: 1.03025 (Simulation time: 0 hr 16 min 28 sec) 
Heartbeat CPU 0 instructions: 590000002 cycles: 519600572 heartbeat IPC: 1.03669 cumulative IPC: 1.03038 (Simulation time: 0 hr 16 min 46 sec) 
Heartbeat CPU 0 instructions: 600000000 cycles: 528803288 heartbeat IPC: 1.08664 cumulative IPC: 1.03144 (Simulation time: 0 hr 17 min 3 sec) 
Finished CPU 0 instructions: 500000000 cycles: 484757207 cumulative IPC: 1.03144 (Simulation time: 0 hr 17 min 3 sec) 

CPU 0 Branch Prediction Accuracy: 97.8526% MPKI: 2.66709
Number of Branches: 62099103 Number of Mispredictions: 1333545
Number of LOAD Instructions: 210576465
Number of LOAD Instructions (ROI): 210576465
Number of STORE Instructions: 16915507
Number of STORE Instructions (ROI): 16915507
Total Destination Memory Operands: 16918869
Total Destination Memory Operands (ROI): 16918869
Total Source Memory Operands: 210576465
Total Source Memory Operands (ROI): 210576465
Number of DEPENDED LOADS: 345334
Number of DEPENDED LOADS (ROI): 345334
Number of SQ_ADDED: 16918826
Number of SQ_ADDED (ROI): 16918826
Number of LQ_ADDED: 210605429
Number of LQ_ADDED (ROI): 210605429
Number of Instructions read from trace: 600000257

ChampSim completed all CPUs

Region of Interest Statistics

CPU 0 cumulative IPC: 1.03144 instructions: 500000000 cycles: 484757207
ITLB TOTAL     ACCESS:   76353011  HIT:   76352973  MISS:         38
ITLB LOAD      ACCESS:   76353011  HIT:   76352973  MISS:         38
ITLB RFO       ACCESS:          0  HIT:          0  MISS:          0
ITLB PREFETCH  ACCESS:          0  HIT:          0  MISS:          0
ITLB WRITEBACK ACCESS:          0  HIT:          0  MISS:          0
ITLB PREFETCH  REQUESTED:          0  ISSUED:          0  USEFUL:          0  USELESS:          0
ITLB TOTAL MSHR MERGED:         37
ITLB LOAD MSHR MERGED:         37
ITLB RFO MSHR MERGED:          0
ITLB PREFETCH MSHR MERGED:          0
ITLB WRITEBACK MSHR MERGED:          0
ITLB TOTAL ACCESSES:   76353048 HITS:   76352973 MISSES:         75
ITLB LOAD ACCESSES:   76353048 HITS:   76352973 MISSES:         75
ITLB RFO ACCESSES:          0 HITS:          0 MISSES:          0
ITLB PREFETCH ACCESSES:          0 HITS:          0 MISSES:          0
ITLB WRITEBACK ACCESSES:          0 HITS:          0 MISSES:          0
ITLB RQ ACCESS:  500000188
ITLB RQ TO_CACHE:   76353049
ITLB RQ MERGED:  423647139
ITLB RQ FORWARD:          0
ITLB WQ ACCESS:          0
ITLB WQ TO_CACHE:          0
ITLB WQ MERGED:          0
ITLB WQ FORWARD:          0
DTLB TOTAL     ACCESS:  136724409  HIT:  136521614  MISS:     202795
DTLB LOAD      ACCESS:  128662017  HIT:  128461943  MISS:     200074
DTLB RFO       ACCESS:    8062392  HIT:    8059671  MISS:       2721
DTLB PREFETCH  ACCESS:          0  HIT:          0  MISS:          0
DTLB WRITEBACK ACCESS:          0  HIT:          0  MISS:          0
DTLB PREFETCH  REQUESTED:          0  ISSUED:          0  USEFUL:          0  USELESS:          0
DTLB TOTAL MSHR MERGED:     448084
DTLB LOAD MSHR MERGED:     444359
DTLB RFO MSHR MERGED:       3725
DTLB PREFETCH MSHR MERGED:          0
DTLB WRITEBACK MSHR MERGED:          0
DTLB TOTAL ACCESSES:  137172493 HITS:  136521614 MISSES:     650879
DTLB LOAD ACCESSES:  129106376 HITS:  128461943 MISSES:     644433
DTLB RFO ACCESSES:    8066117 HITS:    8059671 MISSES:       6446
DTLB PREFETCH ACCESSES:          0 HITS:          0 MISSES:          0
DTLB WRITEBACK ACCESSES:          0 HITS:          0 MISSES:          0
DTLB RQ ACCESS:  189419229
DTLB RQ TO_CACHE:  137172493
DTLB RQ MERGED:   52246736
DTLB RQ FORWARD:          0
DTLB WQ ACCESS:          0
DTLB WQ TO_CACHE:          0
DTLB WQ MERGED:          0
DTLB WQ FORWARD:          0
L1D TOTAL     ACCESS:  125174649  HIT:  107617595  MISS:   17557054
L1D LOAD      ACCESS:   72271591  HIT:   61992556  MISS:   10279035
L1D RFO       ACCESS:   14014055  HIT:   13861218  MISS:     152837
L1D PREFETCH  ACCESS:   38889003  HIT:   31763821  MISS:    7125182
L1D WRITEBACK ACCESS:          0  HIT:          0  MISS:          0
L1D PREFETCH  REQUESTED:   85470839  ISSUED:   84149659  USEFUL:    5865761  USELESS:    1259432
L1D TOTAL MSHR MERGED:   31644848
L1D LOAD MSHR MERGED:   18366638
L1D RFO MSHR MERGED:     266431
L1D PREFETCH MSHR MERGED:   13011779
L1D WRITEBACK MSHR MERGED:          0
L1D TOTAL ACCESSES:  156819989 HITS:  107618088 MISSES:   49201901
L1D LOAD ACCESSES:   85470848 HITS:   61992565 MISSES:   23478283
L1D RFO ACCESSES:   14280458 HITS:   13861218 MISSES:     419240
L1D PREFETCH ACCESSES:   57068683 HITS:   31764305 MISSES:   25304378
L1D WRITEBACK ACCESSES:          0 HITS:          0 MISSES:          0
L1D RQ ACCESS:  175130207
L1D RQ TO_CACHE:   85470839
L1D RQ MERGED:   89659359
L1D RQ FORWARD:          0
L1D WQ ACCESS:   14289037
L1D WQ TO_CACHE:   14280458
L1D WQ MERGED:       8579
L1D WQ FORWARD:        493
L1I TOTAL     ACCESS:   93383348  HIT:   93381552  MISS:       1796
L1I LOAD      ACCESS:   93383348  HIT:   93381552  MISS:       1796
L1I RFO       ACCESS:          0  HIT:          0  MISS:          0
L1I PREFETCH  ACCESS:          0  HIT:          0  MISS:          0
L1I WRITEBACK ACCESS:          0  HIT:          0  MISS:          0
L1I PREFETCH  REQUESTED:          0  ISSUED:          0  USEFUL:          0  USELESS:          0
L1I TOTAL MSHR MERGED:       2335
L1I LOAD MSHR MERGED:       2335
L1I RFO MSHR MERGED:          0
L1I PREFETCH MSHR MERGED:          0
L1I WRITEBACK MSHR MERGED:          0
L1I TOTAL ACCESSES:   93385683 HITS:   93381552 MISSES:       4131
L1I LOAD ACCESSES:   93385683 HITS:   93381552 MISSES:       4131
L1I RFO ACCESSES:          0 HITS:          0 MISSES:          0
L1I PREFETCH ACCESSES:          0 HITS:          0 MISSES:          0
L1I WRITEBACK ACCESSES:          0 HITS:          0 MISSES:          0
L1I RQ ACCESS:  500000187
L1I RQ TO_CACHE:   93385683
L1I RQ MERGED:  406614504
L1I RQ FORWARD:          0
L1I WQ ACCESS:          0
L1I WQ TO_CACHE:          0
L1I WQ MERGED:          0
L1I WQ FORWARD:          0
L2C TOTAL     ACCESS:   20903904  HIT:    8674449  MISS:   12229455
L2C LOAD      ACCESS:    5113417  HIT:    2146011  MISS:    2967406
L2C RFO       ACCESS:     152809  HIT:       6519  MISS:     146290
L2C PREFETCH  ACCESS:   13864924  HIT:    4749274  MISS:    9115650
L2C WRITEBACK ACCESS:    1772754  HIT:    1772645  MISS:        109
L2C PREFETCH  REQUESTED:    1811881  ISSUED:    1811881  USEFUL:    1066587  USELESS:    8050727
L2C TOTAL MSHR MERGED:      96768
L2C LOAD MSHR MERGED:      21970
L2C RFO MSHR MERGED:          0
L2C PREFETCH MSHR MERGED:      74798
L2C WRITEBACK MSHR MERGED:          0
L2C TOTAL ACCESSES:   21024422 HITS:    8674488 MISSES:   12349934
L2C LOAD ACCESSES:    5113441 HITS:    2146035 MISSES:    2967406
L2C RFO ACCESSES:     152809 HITS:       6519 MISSES:     146290
L2C PREFETCH ACCESSES:   13985418 HITS:    4749289 MISSES:    9236129
L2C WRITEBACK ACCESSES:    1772754 HITS:    1772645 MISSES:        109
L2C RQ ACCESS:    5266250
L2C RQ TO_CACHE:    5266226
L2C RQ MERGED:          0
L2C RQ FORWARD:          0
L2C WQ ACCESS:    1772754
L2C WQ TO_CACHE:    1772754
L2C WQ MERGED:          0
L2C WQ FORWARD:         39
LLC TOTAL     ACCESS:   12533574  HIT:    6793841  MISS:    5739733
LLC LOAD      ACCESS:    2945417  HIT:    2475771  MISS:     469646
LLC RFO       ACCESS:     146290  HIT:      76685  MISS:      69605
LLC PREFETCH  ACCESS:    9155882  HIT:    4008333  MISS:    5147549
LLC WRITEBACK ACCESS:     285985  HIT:     233052  MISS:      52933
LLC PREFETCH  REQUESTED:          0  ISSUED:          0  USEFUL:       7935  USELESS:    5139484
LLC TOTAL MSHR MERGED:       1130
LLC LOAD MSHR MERGED:        246
LLC RFO MSHR MERGED:          0
LLC PREFETCH MSHR MERGED:        884
LLC WRITEBACK MSHR MERGED:          0
LLC TOTAL ACCESSES:   12534736 HITS:    6793873 MISSES:    5740863
LLC LOAD ACCESSES:    2945436 HITS:    2475790 MISSES:     469646
LLC RFO ACCESSES:     146290 HITS:      76685 MISSES:      69605
LLC PREFETCH ACCESSES:    9157025 HITS:    4008346 MISSES:    5148679
LLC WRITEBACK ACCESSES:     285985 HITS:     233052 MISSES:      52933
LLC 0 RQ ACCESS:    3091726
LLC 0 RQ TO_CACHE:    3091707
LLC 0 RQ MERGED:          0
LLC 0 RQ FORWARD:          0
LLC WQ ACCESS:     285985
LLC WQ TO_CACHE:     285985
LLC WQ MERGED:          0
LLC WQ FORWARD:         32
Major fault: 0 Minor fault: 6524
CPU 0 L1D next line prefetcher final stats
CPU 0 L2C PC-based stride prefetcher final stats
All Misses: 7539050
All Hits: 7519538
SD Algo Stats - Switches: 0 SRR-Repls: 499556 BRR-Repls: 0

DRAM Statistics
 CHANNEL 0
 RQ ROW_BUFFER_HIT:    4879244  ROW_BUFFER_MISS:     799163
 DBUS_CONGESTED:    2064330
 WQ ROW_BUFFER_HIT:      14537  ROW_BUFFER_MISS:      73833  FULL:          0

 AVG_CONGESTED_CYCLE: 12
LOADS RETIRED: 175418235
INSTR RETIRED: 500000000
