
*** ChampSim Multicore Out-of-Order Simulator ***

Warmup Instructions: 100000000
Simulation Instructions: 500000000
Number of CPUs: 1
LLC sets: 2048
LLC ways: 16
Clean RRIP Policies: 2200012022000120 Dirty RRIP Policies: 2210111022101110 PSEL Width: 10 Track Set: 4294967295 PSEL Mask: 1 Demote Mask: 1043230310432303DS Algo: 0Window size: 0
Off-chip DRAM Size: 4096 MB Channels: 1 Width: 64-bit Data Rate: 1600 MT/s

CPU 0 runs /mnt/beegfs/iconst01/spec2017/Xz.trace.gz
NOT SORTED
TRACE STRING: /mnt/beegfs/iconst01/spec2017/Xz.trace.gz
SORTED
TRACE STRING: /mnt/beegfs/iconst01/spec2017/Xz.trace.gz
INITIAL
TRACE STRING: /mnt/beegfs/iconst01/spec2017/Xz.trace.gz

champsim_seed used: 210

CPU 0 L1D next line prefetcher
CPU 0 L2C IP-based stride prefetcher
Initialize DRRIP state
Assign rand_sets[0]: 454  LLC: 2048
rand_sets[0]: 454
Assign rand_sets[1]: 1662  LLC: 2048
rand_sets[1]: 1662
Assign rand_sets[2]: 1921  LLC: 2048
rand_sets[2]: 1921
Assign rand_sets[3]: 1131  LLC: 2048
rand_sets[3]: 1131
Assign rand_sets[4]: 331  LLC: 2048
rand_sets[4]: 331
Assign rand_sets[5]: 1531  LLC: 2048
rand_sets[5]: 1531
Assign rand_sets[6]: 482  LLC: 2048
rand_sets[6]: 482
Assign rand_sets[7]: 1275  LLC: 2048
rand_sets[7]: 1275
Assign rand_sets[8]: 1876  LLC: 2048
rand_sets[8]: 1876
Assign rand_sets[9]: 2038  LLC: 2048
rand_sets[9]: 2038
Assign rand_sets[10]: 701  LLC: 2048
rand_sets[10]: 701
Assign rand_sets[11]: 479  LLC: 2048
rand_sets[11]: 479
Assign rand_sets[12]: 892  LLC: 2048
rand_sets[12]: 892
Assign rand_sets[13]: 1820  LLC: 2048
rand_sets[13]: 1820
Assign rand_sets[14]: 1505  LLC: 2048
rand_sets[14]: 1505
Assign rand_sets[15]: 1159  LLC: 2048
rand_sets[15]: 1159
Assign rand_sets[16]: 513  LLC: 2048
rand_sets[16]: 513
Assign rand_sets[17]: 703  LLC: 2048
rand_sets[17]: 703
Assign rand_sets[18]: 561  LLC: 2048
rand_sets[18]: 561
Assign rand_sets[19]: 990  LLC: 2048
rand_sets[19]: 990
Assign rand_sets[20]: 342  LLC: 2048
rand_sets[20]: 342
Assign rand_sets[21]: 882  LLC: 2048
rand_sets[21]: 882
Assign rand_sets[22]: 15  LLC: 2048
rand_sets[22]: 15
Assign rand_sets[23]: 71  LLC: 2048
rand_sets[23]: 71
Assign rand_sets[24]: 1127  LLC: 2048
rand_sets[24]: 1127
Assign rand_sets[25]: 1382  LLC: 2048
rand_sets[25]: 1382
Assign rand_sets[26]: 647  LLC: 2048
rand_sets[26]: 647
Assign rand_sets[27]: 857  LLC: 2048
rand_sets[27]: 857
Assign rand_sets[28]: 1450  LLC: 2048
rand_sets[28]: 1450
Assign rand_sets[29]: 1160  LLC: 2048
rand_sets[29]: 1160
Assign rand_sets[30]: 1852  LLC: 2048
rand_sets[30]: 1852
Assign rand_sets[31]: 1881  LLC: 2048
rand_sets[31]: 1881
Assign rand_sets[32]: 1770  LLC: 2048
rand_sets[32]: 1770
Assign rand_sets[33]: 1622  LLC: 2048
rand_sets[33]: 1622
Assign rand_sets[34]: 275  LLC: 2048
rand_sets[34]: 275
Assign rand_sets[35]: 635  LLC: 2048
rand_sets[35]: 635
Assign rand_sets[36]: 466  LLC: 2048
rand_sets[36]: 466
Assign rand_sets[37]: 1413  LLC: 2048
rand_sets[37]: 1413
Assign rand_sets[38]: 417  LLC: 2048
rand_sets[38]: 417
Assign rand_sets[39]: 472  LLC: 2048
rand_sets[39]: 472
Assign rand_sets[40]: 1340  LLC: 2048
rand_sets[40]: 1340
Assign rand_sets[41]: 852  LLC: 2048
rand_sets[41]: 852
Assign rand_sets[42]: 1365  LLC: 2048
rand_sets[42]: 1365
Assign rand_sets[43]: 47  LLC: 2048
rand_sets[43]: 47
Assign rand_sets[44]: 823  LLC: 2048
rand_sets[44]: 823
Assign rand_sets[45]: 686  LLC: 2048
rand_sets[45]: 686
Assign rand_sets[46]: 1637  LLC: 2048
rand_sets[46]: 1637
Assign rand_sets[47]: 1115  LLC: 2048
rand_sets[47]: 1115
Assign rand_sets[48]: 986  LLC: 2048
rand_sets[48]: 986
Assign rand_sets[49]: 258  LLC: 2048
rand_sets[49]: 258
Assign rand_sets[50]: 633  LLC: 2048
rand_sets[50]: 633
Assign rand_sets[51]: 920  LLC: 2048
rand_sets[51]: 920
Assign rand_sets[52]: 204  LLC: 2048
rand_sets[52]: 204
Assign rand_sets[53]: 227  LLC: 2048
rand_sets[53]: 227
Assign rand_sets[54]: 1818  LLC: 2048
rand_sets[54]: 1818
Assign rand_sets[55]: 886  LLC: 2048
rand_sets[55]: 886
Assign rand_sets[56]: 1422  LLC: 2048
rand_sets[56]: 1422
Assign rand_sets[57]: 607  LLC: 2048
rand_sets[57]: 607
Assign rand_sets[58]: 217  LLC: 2048
rand_sets[58]: 217
Assign rand_sets[59]: 1945  LLC: 2048
rand_sets[59]: 1945
Assign rand_sets[60]: 143  LLC: 2048
rand_sets[60]: 143
Assign rand_sets[61]: 1311  LLC: 2048
rand_sets[61]: 1311
Assign rand_sets[62]: 319  LLC: 2048
rand_sets[62]: 319
Assign rand_sets[63]: 1846  LLC: 2048
rand_sets[63]: 1846
 CLEAN-RRIP-POLICY-1: 2-2-0-0-0-1-2-0- CLEAN-RRIP-POLICY-2: 2-2-0-0-0-1-2-0-
 DIRTY-RRIP-POLICY-1: 2-2-1-0-1-1-1-0- DIRTY-RRIP-POLICY-2: 2-2-1-0-1-1-1-0-
 PSEL width: 10
Heartbeat CPU 0 instructions: 10000000 cycles: 4305123 heartbeat IPC: 2.32281 cumulative IPC: 2.32281 (Simulation time: 0 hr 0 min 12 sec) 
Heartbeat CPU 0 instructions: 20000000 cycles: 8616726 heartbeat IPC: 2.31932 cumulative IPC: 2.32107 (Simulation time: 0 hr 0 min 23 sec) 
Heartbeat CPU 0 instructions: 30000003 cycles: 13160522 heartbeat IPC: 2.2008 cumulative IPC: 2.27955 (Simulation time: 0 hr 0 min 36 sec) 
Heartbeat CPU 0 instructions: 40000000 cycles: 17515082 heartbeat IPC: 2.29644 cumulative IPC: 2.28375 (Simulation time: 0 hr 0 min 48 sec) 
Heartbeat CPU 0 instructions: 50000001 cycles: 21878008 heartbeat IPC: 2.29204 cumulative IPC: 2.2854 (Simulation time: 0 hr 0 min 59 sec) 
Heartbeat CPU 0 instructions: 60000000 cycles: 26178252 heartbeat IPC: 2.32545 cumulative IPC: 2.29198 (Simulation time: 0 hr 1 min 11 sec) 
Heartbeat CPU 0 instructions: 70000001 cycles: 30244236 heartbeat IPC: 2.45943 cumulative IPC: 2.31449 (Simulation time: 0 hr 1 min 21 sec) 
Heartbeat CPU 0 instructions: 80000000 cycles: 34523128 heartbeat IPC: 2.33705 cumulative IPC: 2.31729 (Simulation time: 0 hr 1 min 33 sec) 
Heartbeat CPU 0 instructions: 90000001 cycles: 38739899 heartbeat IPC: 2.37148 cumulative IPC: 2.32319 (Simulation time: 0 hr 1 min 44 sec) 
Heartbeat CPU 0 instructions: 100000000 cycles: 42980472 heartbeat IPC: 2.35817 cumulative IPC: 2.32664 (Simulation time: 0 hr 1 min 55 sec) 

Warmup complete CPU 0 instructions: 100000001 cycles: 42980473 (Simulation time: 0 hr 1 min 55 sec) 

Heartbeat CPU 0 instructions: 110000000 cycles: 53254690 heartbeat IPC: 0.97331 cumulative IPC: 0.97331 (Simulation time: 0 hr 2 min 12 sec) 
Heartbeat CPU 0 instructions: 120000000 cycles: 64095389 heartbeat IPC: 0.92245 cumulative IPC: 0.947198 (Simulation time: 0 hr 2 min 30 sec) 
Heartbeat CPU 0 instructions: 130000001 cycles: 74880540 heartbeat IPC: 0.927201 cumulative IPC: 0.940437 (Simulation time: 0 hr 2 min 47 sec) 
Heartbeat CPU 0 instructions: 140000000 cycles: 84710639 heartbeat IPC: 1.01728 cumulative IPC: 0.958539 (Simulation time: 0 hr 3 min 4 sec) 
Heartbeat CPU 0 instructions: 150000001 cycles: 95198339 heartbeat IPC: 0.953498 cumulative IPC: 0.957527 (Simulation time: 0 hr 3 min 21 sec) 
Heartbeat CPU 0 instructions: 160000000 cycles: 105431461 heartbeat IPC: 0.977219 cumulative IPC: 0.960753 (Simulation time: 0 hr 3 min 38 sec) 
Heartbeat CPU 0 instructions: 170000000 cycles: 115259836 heartbeat IPC: 1.01746 cumulative IPC: 0.968465 (Simulation time: 0 hr 3 min 55 sec) 
Heartbeat CPU 0 instructions: 180000000 cycles: 126029393 heartbeat IPC: 0.928543 cumulative IPC: 0.963288 (Simulation time: 0 hr 4 min 12 sec) 
Heartbeat CPU 0 instructions: 190000001 cycles: 136485301 heartbeat IPC: 0.956397 cumulative IPC: 0.962517 (Simulation time: 0 hr 4 min 29 sec) 
Heartbeat CPU 0 instructions: 200000000 cycles: 147319907 heartbeat IPC: 0.922968 cumulative IPC: 0.95841 (Simulation time: 0 hr 4 min 46 sec) 
Heartbeat CPU 0 instructions: 210000002 cycles: 160142365 heartbeat IPC: 0.779882 cumulative IPC: 0.938872 (Simulation time: 0 hr 5 min 5 sec) 
Heartbeat CPU 0 instructions: 220000000 cycles: 173077496 heartbeat IPC: 0.773088 cumulative IPC: 0.922388 (Simulation time: 0 hr 5 min 23 sec) 
Heartbeat CPU 0 instructions: 230000000 cycles: 185613680 heartbeat IPC: 0.797691 cumulative IPC: 0.911429 (Simulation time: 0 hr 5 min 42 sec) 
Heartbeat CPU 0 instructions: 240000000 cycles: 198094316 heartbeat IPC: 0.801241 cumulative IPC: 0.902563 (Simulation time: 0 hr 6 min 0 sec) 
Heartbeat CPU 0 instructions: 250000000 cycles: 210376157 heartbeat IPC: 0.81421 cumulative IPC: 0.89608 (Simulation time: 0 hr 6 min 19 sec) 
Heartbeat CPU 0 instructions: 260000000 cycles: 222199776 heartbeat IPC: 0.845765 cumulative IPC: 0.892761 (Simulation time: 0 hr 6 min 37 sec) 
Heartbeat CPU 0 instructions: 270000003 cycles: 234411136 heartbeat IPC: 0.81891 cumulative IPC: 0.88805 (Simulation time: 0 hr 6 min 55 sec) 
Heartbeat CPU 0 instructions: 280000000 cycles: 246252180 heartbeat IPC: 0.84452 cumulative IPC: 0.885514 (Simulation time: 0 hr 7 min 13 sec) 
Heartbeat CPU 0 instructions: 290000002 cycles: 258150184 heartbeat IPC: 0.840477 cumulative IPC: 0.883024 (Simulation time: 0 hr 7 min 31 sec) 
Heartbeat CPU 0 instructions: 300000000 cycles: 270948997 heartbeat IPC: 0.781322 cumulative IPC: 0.877314 (Simulation time: 0 hr 7 min 49 sec) 
Heartbeat CPU 0 instructions: 310000000 cycles: 283510166 heartbeat IPC: 0.796104 cumulative IPC: 0.873073 (Simulation time: 0 hr 8 min 8 sec) 
Heartbeat CPU 0 instructions: 320000000 cycles: 296574920 heartbeat IPC: 0.765418 cumulative IPC: 0.867527 (Simulation time: 0 hr 8 min 26 sec) 
Heartbeat CPU 0 instructions: 330000003 cycles: 308886673 heartbeat IPC: 0.812232 cumulative IPC: 0.864967 (Simulation time: 0 hr 8 min 45 sec) 
Heartbeat CPU 0 instructions: 340000000 cycles: 321396401 heartbeat IPC: 0.799378 cumulative IPC: 0.86202 (Simulation time: 0 hr 9 min 3 sec) 
Heartbeat CPU 0 instructions: 350000001 cycles: 332632711 heartbeat IPC: 0.889972 cumulative IPC: 0.863104 (Simulation time: 0 hr 9 min 21 sec) 
Heartbeat CPU 0 instructions: 360000000 cycles: 344799619 heartbeat IPC: 0.821901 cumulative IPC: 0.861443 (Simulation time: 0 hr 9 min 39 sec) 
Heartbeat CPU 0 instructions: 370000001 cycles: 356414801 heartbeat IPC: 0.860942 cumulative IPC: 0.861424 (Simulation time: 0 hr 9 min 57 sec) 
Heartbeat CPU 0 instructions: 380000000 cycles: 367615955 heartbeat IPC: 0.892765 cumulative IPC: 0.862506 (Simulation time: 0 hr 10 min 14 sec) 
Heartbeat CPU 0 instructions: 390000003 cycles: 378459557 heartbeat IPC: 0.922203 cumulative IPC: 0.864435 (Simulation time: 0 hr 10 min 32 sec) 
Heartbeat CPU 0 instructions: 400000000 cycles: 388830860 heartbeat IPC: 0.964199 cumulative IPC: 0.867427 (Simulation time: 0 hr 10 min 49 sec) 
Heartbeat CPU 0 instructions: 410000000 cycles: 399543996 heartbeat IPC: 0.933433 cumulative IPC: 0.86941 (Simulation time: 0 hr 11 min 7 sec) 
Heartbeat CPU 0 instructions: 420000000 cycles: 408999133 heartbeat IPC: 1.05763 cumulative IPC: 0.874272 (Simulation time: 0 hr 11 min 24 sec) 
Heartbeat CPU 0 instructions: 430000002 cycles: 418117272 heartbeat IPC: 1.09672 cumulative IPC: 0.879679 (Simulation time: 0 hr 11 min 41 sec) 
Heartbeat CPU 0 instructions: 440000000 cycles: 428537163 heartbeat IPC: 0.959703 cumulative IPC: 0.881842 (Simulation time: 0 hr 11 min 58 sec) 
Heartbeat CPU 0 instructions: 450000002 cycles: 439821459 heartbeat IPC: 0.886187 cumulative IPC: 0.881965 (Simulation time: 0 hr 12 min 15 sec) 
Heartbeat CPU 0 instructions: 460000000 cycles: 451608015 heartbeat IPC: 0.848424 cumulative IPC: 0.880998 (Simulation time: 0 hr 12 min 33 sec) 
Heartbeat CPU 0 instructions: 470000003 cycles: 461933017 heartbeat IPC: 0.968523 cumulative IPC: 0.883155 (Simulation time: 0 hr 12 min 50 sec) 
Heartbeat CPU 0 instructions: 480000000 cycles: 472637857 heartbeat IPC: 0.934157 cumulative IPC: 0.884426 (Simulation time: 0 hr 13 min 7 sec) 
Heartbeat CPU 0 instructions: 490000000 cycles: 482697087 heartbeat IPC: 0.994112 cumulative IPC: 0.886935 (Simulation time: 0 hr 13 min 24 sec) 
Heartbeat CPU 0 instructions: 500000000 cycles: 494716216 heartbeat IPC: 0.832007 cumulative IPC: 0.885473 (Simulation time: 0 hr 13 min 42 sec) 
Heartbeat CPU 0 instructions: 510000002 cycles: 507400586 heartbeat IPC: 0.788372 cumulative IPC: 0.882821 (Simulation time: 0 hr 14 min 0 sec) 
Heartbeat CPU 0 instructions: 520000000 cycles: 519523586 heartbeat IPC: 0.824878 cumulative IPC: 0.881347 (Simulation time: 0 hr 14 min 18 sec) 
Heartbeat CPU 0 instructions: 530000001 cycles: 531661586 heartbeat IPC: 0.823859 cumulative IPC: 0.879919 (Simulation time: 0 hr 14 min 36 sec) 
Heartbeat CPU 0 instructions: 540000000 cycles: 543591242 heartbeat IPC: 0.838247 cumulative IPC: 0.878926 (Simulation time: 0 hr 14 min 54 sec) 
Heartbeat CPU 0 instructions: 550000001 cycles: 555271935 heartbeat IPC: 0.856114 cumulative IPC: 0.878406 (Simulation time: 0 hr 15 min 11 sec) 
Heartbeat CPU 0 instructions: 560000000 cycles: 567112396 heartbeat IPC: 0.844562 cumulative IPC: 0.877642 (Simulation time: 0 hr 15 min 29 sec) 
Heartbeat CPU 0 instructions: 570000000 cycles: 578792820 heartbeat IPC: 0.856133 cumulative IPC: 0.877173 (Simulation time: 0 hr 15 min 47 sec) 
Heartbeat CPU 0 instructions: 580000000 cycles: 589770707 heartbeat IPC: 0.910922 cumulative IPC: 0.87785 (Simulation time: 0 hr 16 min 4 sec) 
Heartbeat CPU 0 instructions: 590000003 cycles: 601454846 heartbeat IPC: 0.855861 cumulative IPC: 0.87739 (Simulation time: 0 hr 16 min 21 sec) 
Heartbeat CPU 0 instructions: 600000000 cycles: 612229724 heartbeat IPC: 0.928084 cumulative IPC: 0.87835 (Simulation time: 0 hr 16 min 38 sec) 
Finished CPU 0 instructions: 500000001 cycles: 569249259 cumulative IPC: 0.87835 (Simulation time: 0 hr 16 min 38 sec) 

CPU 0 Branch Prediction Accuracy: 93.0095% MPKI: 10.0046
Number of Branches: 71558147 Number of Mispredictions: 5002285
Number of LOAD Instructions: 145708893
Number of LOAD Instructions (ROI): 145708893
Number of STORE Instructions: 40463820
Number of STORE Instructions (ROI): 40463820
Total Destination Memory Operands: 45240498
Total Destination Memory Operands (ROI): 45240498
Total Source Memory Operands: 145708893
Total Source Memory Operands (ROI): 145708893
Number of DEPENDED LOADS: 10687058
Number of DEPENDED LOADS (ROI): 10687058
Number of SQ_ADDED: 45240498
Number of SQ_ADDED (ROI): 45240498
Number of LQ_ADDED: 193339648
Number of LQ_ADDED (ROI): 193339648
Number of Instructions read from trace: 600000002

ChampSim completed all CPUs

Region of Interest Statistics

CPU 0 cumulative IPC: 0.87835 instructions: 500000001 cycles: 569249259
ITLB TOTAL     ACCESS:   77987664  HIT:   77987663  MISS:          1
ITLB LOAD      ACCESS:   77987664  HIT:   77987663  MISS:          1
ITLB RFO       ACCESS:          0  HIT:          0  MISS:          0
ITLB PREFETCH  ACCESS:          0  HIT:          0  MISS:          0
ITLB WRITEBACK ACCESS:          0  HIT:          0  MISS:          0
ITLB PREFETCH  REQUESTED:          0  ISSUED:          0  USEFUL:          0  USELESS:          0
ITLB TOTAL MSHR MERGED:          0
ITLB LOAD MSHR MERGED:          0
ITLB RFO MSHR MERGED:          0
ITLB PREFETCH MSHR MERGED:          0
ITLB WRITEBACK MSHR MERGED:          0
ITLB TOTAL ACCESSES:   77987664 HITS:   77987663 MISSES:          1
ITLB LOAD ACCESSES:   77987664 HITS:   77987663 MISSES:          1
ITLB RFO ACCESSES:          0 HITS:          0 MISSES:          0
ITLB PREFETCH ACCESSES:          0 HITS:          0 MISSES:          0
ITLB WRITEBACK ACCESSES:          0 HITS:          0 MISSES:          0
ITLB RQ ACCESS:  499999995
ITLB RQ TO_CACHE:   77987664
ITLB RQ MERGED:  422012331
ITLB RQ FORWARD:          0
ITLB WQ ACCESS:          0
ITLB WQ TO_CACHE:          0
ITLB WQ MERGED:          0
ITLB WQ FORWARD:          0
DTLB TOTAL     ACCESS:   98679963  HIT:   97798627  MISS:     881336
DTLB LOAD      ACCESS:   70900265  HIT:   70038732  MISS:     861533
DTLB RFO       ACCESS:   27779698  HIT:   27759895  MISS:      19803
DTLB PREFETCH  ACCESS:          0  HIT:          0  MISS:          0
DTLB WRITEBACK ACCESS:          0  HIT:          0  MISS:          0
DTLB PREFETCH  REQUESTED:          0  ISSUED:          0  USEFUL:          0  USELESS:          0
DTLB TOTAL MSHR MERGED:      87308
DTLB LOAD MSHR MERGED:      65564
DTLB RFO MSHR MERGED:      21744
DTLB PREFETCH MSHR MERGED:          0
DTLB WRITEBACK MSHR MERGED:          0
DTLB TOTAL ACCESSES:   98767271 HITS:   97798627 MISSES:     968644
DTLB LOAD ACCESSES:   70965829 HITS:   70038732 MISSES:     927097
DTLB RFO ACCESSES:   27801442 HITS:   27759895 MISSES:      41547
DTLB PREFETCH ACCESSES:          0 HITS:          0 MISSES:          0
DTLB WRITEBACK ACCESSES:          0 HITS:          0 MISSES:          0
DTLB RQ ACCESS:  150257986
DTLB RQ TO_CACHE:   98767271
DTLB RQ MERGED:   51490715
DTLB RQ FORWARD:          0
DTLB WQ ACCESS:          0
DTLB WQ TO_CACHE:          0
DTLB WQ MERGED:          0
DTLB WQ FORWARD:          0
L1D TOTAL     ACCESS:  173293766  HIT:  169125181  MISS:    4168585
L1D LOAD      ACCESS:   75268170  HIT:   73386794  MISS:    1881376
L1D RFO       ACCESS:   36777554  HIT:   36570834  MISS:     206720
L1D PREFETCH  ACCESS:   61248042  HIT:   59167553  MISS:    2080489
L1D WRITEBACK ACCESS:          0  HIT:          0  MISS:          0
L1D PREFETCH  REQUESTED:   75373095  ISSUED:   74808852  USEFUL:     414955  USELESS:    1665523
L1D TOTAL MSHR MERGED:     382766
L1D LOAD MSHR MERGED:     113755
L1D RFO MSHR MERGED:     133573
L1D PREFETCH MSHR MERGED:     135438
L1D WRITEBACK MSHR MERGED:          0
L1D TOTAL ACCESSES:  173828663 HITS:  169277312 MISSES:    4551351
L1D LOAD ACCESSES:   75376298 HITS:   73389997 MISSES:    1986301
L1D RFO ACCESSES:   36909616 HITS:   36570834 MISSES:     338782
L1D PREFETCH ACCESSES:   61542749 HITS:   59316481 MISSES:    2226268
L1D WRITEBACK ACCESSES:          0 HITS:          0 MISSES:          0
L1D RQ ACCESS:  112595583
L1D RQ TO_CACHE:   75373095
L1D RQ MERGED:   37219285
L1D RQ FORWARD:          0
L1D WQ ACCESS:   37662403
L1D WQ TO_CACHE:   36909616
L1D WQ MERGED:     752787
L1D WQ FORWARD:     152131
L1I TOTAL     ACCESS:  100695733  HIT:  100695708  MISS:         25
L1I LOAD      ACCESS:  100695733  HIT:  100695708  MISS:         25
L1I RFO       ACCESS:          0  HIT:          0  MISS:          0
L1I PREFETCH  ACCESS:          0  HIT:          0  MISS:          0
L1I WRITEBACK ACCESS:          0  HIT:          0  MISS:          0
L1I PREFETCH  REQUESTED:          0  ISSUED:          0  USEFUL:          0  USELESS:          0
L1I TOTAL MSHR MERGED:         10
L1I LOAD MSHR MERGED:         10
L1I RFO MSHR MERGED:          0
L1I PREFETCH MSHR MERGED:          0
L1I WRITEBACK MSHR MERGED:          0
L1I TOTAL ACCESSES:  100695743 HITS:  100695708 MISSES:         35
L1I LOAD ACCESSES:  100695743 HITS:  100695708 MISSES:         35
L1I RFO ACCESSES:          0 HITS:          0 MISSES:          0
L1I PREFETCH ACCESSES:          0 HITS:          0 MISSES:          0
L1I WRITEBACK ACCESSES:          0 HITS:          0 MISSES:          0
L1I RQ ACCESS:  499999995
L1I RQ TO_CACHE:  100695743
L1I RQ MERGED:  399304252
L1I RQ FORWARD:          0
L1I WQ ACCESS:          0
L1I WQ TO_CACHE:          0
L1I WQ MERGED:          0
L1I WQ FORWARD:          0
L2C TOTAL     ACCESS:    5852544  HIT:    4009371  MISS:    1843173
L2C LOAD      ACCESS:    1872446  HIT:    1061504  MISS:     810942
L2C RFO       ACCESS:     205200  HIT:     100562  MISS:     104638
L2C PREFETCH  ACCESS:    2169271  HIT:    1246101  MISS:     923170
L2C WRITEBACK ACCESS:    1605627  HIT:    1601204  MISS:       4423
L2C PREFETCH  REQUESTED:      91704  ISSUED:      91704  USEFUL:      86457  USELESS:     836736
L2C TOTAL MSHR MERGED:       1028
L2C LOAD MSHR MERGED:        262
L2C RFO MSHR MERGED:          0
L2C PREFETCH MSHR MERGED:        766
L2C WRITEBACK MSHR MERGED:          0
L2C TOTAL ACCESSES:    5853880 HITS:    4009542 MISSES:    1844338
L2C LOAD ACCESSES:    1872571 HITS:    1061629 MISSES:     810942
L2C RFO ACCESSES:     205209 HITS:     100571 MISSES:     104638
L2C PREFETCH ACCESSES:    2170473 HITS:    1246138 MISSES:     924335
L2C WRITEBACK ACCESSES:    1605627 HITS:    1601204 MISSES:       4423
L2C RQ ACCESS:    2077780
L2C RQ TO_CACHE:    2077646
L2C RQ MERGED:          0
L2C RQ FORWARD:          0
L2C WQ ACCESS:    1605627
L2C WQ TO_CACHE:    1605627
L2C WQ MERGED:          0
L2C WQ FORWARD:        171
LLC TOTAL     ACCESS:    2673535  HIT:    2107600  MISS:     565935
LLC LOAD      ACCESS:     810670  HIT:     549449  MISS:     261221
LLC RFO       ACCESS:     104638  HIT:      55526  MISS:      49112
LLC PREFETCH  ACCESS:     923556  HIT:     678060  MISS:     245496
LLC WRITEBACK ACCESS:     834671  HIT:     824565  MISS:      10106
LLC PREFETCH  REQUESTED:          0  ISSUED:          0  USEFUL:      61544  USELESS:     184015
LLC TOTAL MSHR MERGED:          3
LLC LOAD MSHR MERGED:          1
LLC RFO MSHR MERGED:          0
LLC PREFETCH MSHR MERGED:          2
LLC WRITEBACK MSHR MERGED:          0
LLC TOTAL ACCESSES:    2673550 HITS:    2107612 MISSES:     565938
LLC LOAD ACCESSES:     810680 HITS:     549459 MISSES:     261221
LLC RFO ACCESSES:     104638 HITS:      55526 MISSES:      49112
LLC PREFETCH ACCESSES:     923561 HITS:     678062 MISSES:     245499
LLC WRITEBACK ACCESSES:     834671 HITS:     824565 MISSES:      10106
LLC 0 RQ ACCESS:     915318
LLC 0 RQ TO_CACHE:     915308
LLC 0 RQ MERGED:          0
LLC 0 RQ FORWARD:          0
LLC WQ ACCESS:     834671
LLC WQ TO_CACHE:     834671
LLC WQ MERGED:          0
LLC WQ FORWARD:         12
Major fault: 0 Minor fault: 11278
CPU 0 L1D next line prefetcher final stats
CPU 0 L2C PC-based stride prefetcher final stats
All Misses: 667836
All Hits: 2386715
SD Algo Stats - Switches: 0 SRR-Repls: 297051 BRR-Repls: 0

DRAM Statistics
 CHANNEL 0
 RQ ROW_BUFFER_HIT:      32266  ROW_BUFFER_MISS:     522629
 DBUS_CONGESTED:     523904
 WQ ROW_BUFFER_HIT:      33877  ROW_BUFFER_MISS:     336136  FULL:          0

 AVG_CONGESTED_CYCLE: 13
LOADS RETIRED: 121769268
INSTR RETIRED: 500000000
