
*** ChampSim Multicore Out-of-Order Simulator ***

Warmup Instructions: 100000000
Simulation Instructions: 500000000
Number of CPUs: 1
LLC sets: 2048
LLC ways: 16
Clean RRIP Policies: 1121030111210301 Dirty RRIP Policies: 2111130121111301 PSEL Width: 10 Track Set: 4294967295 PSEL Mask: 1 Demote Mask: 3330241333302413DS Algo: 0Window size: 0
Off-chip DRAM Size: 4096 MB Channels: 1 Width: 64-bit Data Rate: 1600 MT/s

CPU 0 runs /mnt/beegfs/iconst01/spec2017/Gcc.trace.gz
NOT SORTED
TRACE STRING: /mnt/beegfs/iconst01/spec2017/Gcc.trace.gz
SORTED
TRACE STRING: /mnt/beegfs/iconst01/spec2017/Gcc.trace.gz
INITIAL
TRACE STRING: /mnt/beegfs/iconst01/spec2017/Gcc.trace.gz

champsim_seed used: 269

CPU 0 L1D next line prefetcher
CPU 0 L2C IP-based stride prefetcher
Initialize DRRIP state
Assign rand_sets[0]: 454  LLC: 2048
rand_sets[0]: 454
Assign rand_sets[1]: 1662  LLC: 2048
rand_sets[1]: 1662
Assign rand_sets[2]: 1921  LLC: 2048
rand_sets[2]: 1921
Assign rand_sets[3]: 1131  LLC: 2048
rand_sets[3]: 1131
Assign rand_sets[4]: 331  LLC: 2048
rand_sets[4]: 331
Assign rand_sets[5]: 1531  LLC: 2048
rand_sets[5]: 1531
Assign rand_sets[6]: 482  LLC: 2048
rand_sets[6]: 482
Assign rand_sets[7]: 1275  LLC: 2048
rand_sets[7]: 1275
Assign rand_sets[8]: 1876  LLC: 2048
rand_sets[8]: 1876
Assign rand_sets[9]: 2038  LLC: 2048
rand_sets[9]: 2038
Assign rand_sets[10]: 701  LLC: 2048
rand_sets[10]: 701
Assign rand_sets[11]: 479  LLC: 2048
rand_sets[11]: 479
Assign rand_sets[12]: 892  LLC: 2048
rand_sets[12]: 892
Assign rand_sets[13]: 1820  LLC: 2048
rand_sets[13]: 1820
Assign rand_sets[14]: 1505  LLC: 2048
rand_sets[14]: 1505
Assign rand_sets[15]: 1159  LLC: 2048
rand_sets[15]: 1159
Assign rand_sets[16]: 513  LLC: 2048
rand_sets[16]: 513
Assign rand_sets[17]: 703  LLC: 2048
rand_sets[17]: 703
Assign rand_sets[18]: 561  LLC: 2048
rand_sets[18]: 561
Assign rand_sets[19]: 990  LLC: 2048
rand_sets[19]: 990
Assign rand_sets[20]: 342  LLC: 2048
rand_sets[20]: 342
Assign rand_sets[21]: 882  LLC: 2048
rand_sets[21]: 882
Assign rand_sets[22]: 15  LLC: 2048
rand_sets[22]: 15
Assign rand_sets[23]: 71  LLC: 2048
rand_sets[23]: 71
Assign rand_sets[24]: 1127  LLC: 2048
rand_sets[24]: 1127
Assign rand_sets[25]: 1382  LLC: 2048
rand_sets[25]: 1382
Assign rand_sets[26]: 647  LLC: 2048
rand_sets[26]: 647
Assign rand_sets[27]: 857  LLC: 2048
rand_sets[27]: 857
Assign rand_sets[28]: 1450  LLC: 2048
rand_sets[28]: 1450
Assign rand_sets[29]: 1160  LLC: 2048
rand_sets[29]: 1160
Assign rand_sets[30]: 1852  LLC: 2048
rand_sets[30]: 1852
Assign rand_sets[31]: 1881  LLC: 2048
rand_sets[31]: 1881
Assign rand_sets[32]: 1770  LLC: 2048
rand_sets[32]: 1770
Assign rand_sets[33]: 1622  LLC: 2048
rand_sets[33]: 1622
Assign rand_sets[34]: 275  LLC: 2048
rand_sets[34]: 275
Assign rand_sets[35]: 635  LLC: 2048
rand_sets[35]: 635
Assign rand_sets[36]: 466  LLC: 2048
rand_sets[36]: 466
Assign rand_sets[37]: 1413  LLC: 2048
rand_sets[37]: 1413
Assign rand_sets[38]: 417  LLC: 2048
rand_sets[38]: 417
Assign rand_sets[39]: 472  LLC: 2048
rand_sets[39]: 472
Assign rand_sets[40]: 1340  LLC: 2048
rand_sets[40]: 1340
Assign rand_sets[41]: 852  LLC: 2048
rand_sets[41]: 852
Assign rand_sets[42]: 1365  LLC: 2048
rand_sets[42]: 1365
Assign rand_sets[43]: 47  LLC: 2048
rand_sets[43]: 47
Assign rand_sets[44]: 823  LLC: 2048
rand_sets[44]: 823
Assign rand_sets[45]: 686  LLC: 2048
rand_sets[45]: 686
Assign rand_sets[46]: 1637  LLC: 2048
rand_sets[46]: 1637
Assign rand_sets[47]: 1115  LLC: 2048
rand_sets[47]: 1115
Assign rand_sets[48]: 986  LLC: 2048
rand_sets[48]: 986
Assign rand_sets[49]: 258  LLC: 2048
rand_sets[49]: 258
Assign rand_sets[50]: 633  LLC: 2048
rand_sets[50]: 633
Assign rand_sets[51]: 920  LLC: 2048
rand_sets[51]: 920
Assign rand_sets[52]: 204  LLC: 2048
rand_sets[52]: 204
Assign rand_sets[53]: 227  LLC: 2048
rand_sets[53]: 227
Assign rand_sets[54]: 1818  LLC: 2048
rand_sets[54]: 1818
Assign rand_sets[55]: 886  LLC: 2048
rand_sets[55]: 886
Assign rand_sets[56]: 1422  LLC: 2048
rand_sets[56]: 1422
Assign rand_sets[57]: 607  LLC: 2048
rand_sets[57]: 607
Assign rand_sets[58]: 217  LLC: 2048
rand_sets[58]: 217
Assign rand_sets[59]: 1945  LLC: 2048
rand_sets[59]: 1945
Assign rand_sets[60]: 143  LLC: 2048
rand_sets[60]: 143
Assign rand_sets[61]: 1311  LLC: 2048
rand_sets[61]: 1311
Assign rand_sets[62]: 319  LLC: 2048
rand_sets[62]: 319
Assign rand_sets[63]: 1846  LLC: 2048
rand_sets[63]: 1846
 CLEAN-RRIP-POLICY-1: 1-1-2-1-0-3-0-1- CLEAN-RRIP-POLICY-2: 1-1-2-1-0-3-0-1-
 DIRTY-RRIP-POLICY-1: 2-1-1-1-1-3-0-1- DIRTY-RRIP-POLICY-2: 2-1-1-1-1-3-0-1-
 PSEL width: 10
Heartbeat CPU 0 instructions: 10000001 cycles: 7315912 heartbeat IPC: 1.36688 cumulative IPC: 1.36688 (Simulation time: 0 hr 0 min 15 sec) 
Heartbeat CPU 0 instructions: 20000000 cycles: 14307686 heartbeat IPC: 1.43025 cumulative IPC: 1.39785 (Simulation time: 0 hr 0 min 29 sec) 
Heartbeat CPU 0 instructions: 30000001 cycles: 21020980 heartbeat IPC: 1.48958 cumulative IPC: 1.42715 (Simulation time: 0 hr 0 min 45 sec) 
Heartbeat CPU 0 instructions: 40000000 cycles: 27481895 heartbeat IPC: 1.54777 cumulative IPC: 1.4555 (Simulation time: 0 hr 1 min 1 sec) 
Heartbeat CPU 0 instructions: 50000001 cycles: 33583410 heartbeat IPC: 1.63894 cumulative IPC: 1.48883 (Simulation time: 0 hr 1 min 17 sec) 
Heartbeat CPU 0 instructions: 60000000 cycles: 40064390 heartbeat IPC: 1.54298 cumulative IPC: 1.49759 (Simulation time: 0 hr 1 min 33 sec) 
Heartbeat CPU 0 instructions: 70000000 cycles: 47102406 heartbeat IPC: 1.42085 cumulative IPC: 1.48612 (Simulation time: 0 hr 1 min 48 sec) 
Heartbeat CPU 0 instructions: 80000000 cycles: 54192413 heartbeat IPC: 1.41044 cumulative IPC: 1.47622 (Simulation time: 0 hr 2 min 2 sec) 
Heartbeat CPU 0 instructions: 90000003 cycles: 61197166 heartbeat IPC: 1.4276 cumulative IPC: 1.47066 (Simulation time: 0 hr 2 min 17 sec) 
Heartbeat CPU 0 instructions: 100000000 cycles: 68364863 heartbeat IPC: 1.39515 cumulative IPC: 1.46274 (Simulation time: 0 hr 2 min 31 sec) 

Warmup complete CPU 0 instructions: 100000004 cycles: 68364864 (Simulation time: 0 hr 2 min 31 sec) 

Heartbeat CPU 0 instructions: 110000003 cycles: 96202004 heartbeat IPC: 0.359232 cumulative IPC: 0.359232 (Simulation time: 0 hr 3 min 0 sec) 
Heartbeat CPU 0 instructions: 120000000 cycles: 123697672 heartbeat IPC: 0.363694 cumulative IPC: 0.361449 (Simulation time: 0 hr 3 min 29 sec) 
Heartbeat CPU 0 instructions: 130000000 cycles: 148667775 heartbeat IPC: 0.400479 cumulative IPC: 0.373585 (Simulation time: 0 hr 3 min 58 sec) 
Heartbeat CPU 0 instructions: 140000000 cycles: 178339677 heartbeat IPC: 0.337019 cumulative IPC: 0.36372 (Simulation time: 0 hr 4 min 26 sec) 
Heartbeat CPU 0 instructions: 150000000 cycles: 208401786 heartbeat IPC: 0.332645 cumulative IPC: 0.357049 (Simulation time: 0 hr 4 min 54 sec) 
Heartbeat CPU 0 instructions: 160000000 cycles: 235823293 heartbeat IPC: 0.364677 cumulative IPC: 0.358298 (Simulation time: 0 hr 5 min 22 sec) 
Heartbeat CPU 0 instructions: 170000001 cycles: 263944149 heartbeat IPC: 0.355608 cumulative IPC: 0.357911 (Simulation time: 0 hr 5 min 52 sec) 
Heartbeat CPU 0 instructions: 180000000 cycles: 292514113 heartbeat IPC: 0.350018 cumulative IPC: 0.356905 (Simulation time: 0 hr 6 min 21 sec) 
Heartbeat CPU 0 instructions: 190000002 cycles: 320621057 heartbeat IPC: 0.355784 cumulative IPC: 0.35678 (Simulation time: 0 hr 6 min 50 sec) 
Heartbeat CPU 0 instructions: 200000000 cycles: 349138253 heartbeat IPC: 0.350666 cumulative IPC: 0.356159 (Simulation time: 0 hr 7 min 19 sec) 
Heartbeat CPU 0 instructions: 210000002 cycles: 377053619 heartbeat IPC: 0.358226 cumulative IPC: 0.356346 (Simulation time: 0 hr 7 min 48 sec) 
Heartbeat CPU 0 instructions: 220000000 cycles: 406387449 heartbeat IPC: 0.340903 cumulative IPC: 0.355006 (Simulation time: 0 hr 8 min 15 sec) 
Heartbeat CPU 0 instructions: 230000000 cycles: 434116118 heartbeat IPC: 0.360638 cumulative IPC: 0.355433 (Simulation time: 0 hr 8 min 43 sec) 
Heartbeat CPU 0 instructions: 240000000 cycles: 460366186 heartbeat IPC: 0.380951 cumulative IPC: 0.357142 (Simulation time: 0 hr 9 min 10 sec) 
Heartbeat CPU 0 instructions: 250000000 cycles: 490581488 heartbeat IPC: 0.330958 cumulative IPC: 0.355268 (Simulation time: 0 hr 9 min 40 sec) 
Heartbeat CPU 0 instructions: 260000000 cycles: 517685354 heartbeat IPC: 0.368951 cumulative IPC: 0.356093 (Simulation time: 0 hr 10 min 9 sec) 
Heartbeat CPU 0 instructions: 270000003 cycles: 546115331 heartbeat IPC: 0.351742 cumulative IPC: 0.355834 (Simulation time: 0 hr 10 min 38 sec) 
Heartbeat CPU 0 instructions: 280000000 cycles: 574449229 heartbeat IPC: 0.352934 cumulative IPC: 0.355672 (Simulation time: 0 hr 11 min 8 sec) 
Heartbeat CPU 0 instructions: 290000000 cycles: 603300171 heartbeat IPC: 0.346609 cumulative IPC: 0.355183 (Simulation time: 0 hr 11 min 37 sec) 
Heartbeat CPU 0 instructions: 300000000 cycles: 633417718 heartbeat IPC: 0.332032 cumulative IPC: 0.353949 (Simulation time: 0 hr 12 min 6 sec) 
Heartbeat CPU 0 instructions: 310000001 cycles: 663019865 heartbeat IPC: 0.337813 cumulative IPC: 0.353146 (Simulation time: 0 hr 12 min 34 sec) 
Heartbeat CPU 0 instructions: 320000000 cycles: 691428781 heartbeat IPC: 0.352002 cumulative IPC: 0.353094 (Simulation time: 0 hr 13 min 2 sec) 
Heartbeat CPU 0 instructions: 330000000 cycles: 720129710 heartbeat IPC: 0.348421 cumulative IPC: 0.352888 (Simulation time: 0 hr 13 min 31 sec) 
Heartbeat CPU 0 instructions: 340000000 cycles: 749652117 heartbeat IPC: 0.338726 cumulative IPC: 0.352274 (Simulation time: 0 hr 13 min 59 sec) 
Heartbeat CPU 0 instructions: 350000003 cycles: 776710077 heartbeat IPC: 0.369577 cumulative IPC: 0.352935 (Simulation time: 0 hr 14 min 27 sec) 
Heartbeat CPU 0 instructions: 360000000 cycles: 805131733 heartbeat IPC: 0.351844 cumulative IPC: 0.352893 (Simulation time: 0 hr 14 min 55 sec) 
Heartbeat CPU 0 instructions: 370000000 cycles: 833550817 heartbeat IPC: 0.351876 cumulative IPC: 0.352855 (Simulation time: 0 hr 15 min 22 sec) 
Heartbeat CPU 0 instructions: 380000000 cycles: 862286973 heartbeat IPC: 0.347994 cumulative IPC: 0.352679 (Simulation time: 0 hr 15 min 49 sec) 
Heartbeat CPU 0 instructions: 390000001 cycles: 890057170 heartbeat IPC: 0.360098 cumulative IPC: 0.35293 (Simulation time: 0 hr 16 min 17 sec) 
Heartbeat CPU 0 instructions: 400000000 cycles: 918866472 heartbeat IPC: 0.34711 cumulative IPC: 0.352733 (Simulation time: 0 hr 16 min 44 sec) 
Heartbeat CPU 0 instructions: 410000001 cycles: 946289361 heartbeat IPC: 0.364659 cumulative IPC: 0.353106 (Simulation time: 0 hr 17 min 11 sec) 
Heartbeat CPU 0 instructions: 420000000 cycles: 973691786 heartbeat IPC: 0.364931 cumulative IPC: 0.353463 (Simulation time: 0 hr 17 min 38 sec) 
Heartbeat CPU 0 instructions: 430000002 cycles: 1001517980 heartbeat IPC: 0.359374 cumulative IPC: 0.35364 (Simulation time: 0 hr 18 min 6 sec) 
Heartbeat CPU 0 instructions: 440000000 cycles: 1031204691 heartbeat IPC: 0.336851 cumulative IPC: 0.353122 (Simulation time: 0 hr 18 min 33 sec) 
Heartbeat CPU 0 instructions: 450000002 cycles: 1060625148 heartbeat IPC: 0.3399 cumulative IPC: 0.35273 (Simulation time: 0 hr 19 min 1 sec) 
Heartbeat CPU 0 instructions: 460000000 cycles: 1088435778 heartbeat IPC: 0.359575 cumulative IPC: 0.352917 (Simulation time: 0 hr 19 min 28 sec) 
Heartbeat CPU 0 instructions: 470000000 cycles: 1116159687 heartbeat IPC: 0.3607 cumulative IPC: 0.353123 (Simulation time: 0 hr 19 min 55 sec) 
Heartbeat CPU 0 instructions: 480000000 cycles: 1144117335 heartbeat IPC: 0.357684 cumulative IPC: 0.353241 (Simulation time: 0 hr 20 min 22 sec) 
Heartbeat CPU 0 instructions: 490000000 cycles: 1171782179 heartbeat IPC: 0.36147 cumulative IPC: 0.353447 (Simulation time: 0 hr 20 min 50 sec) 
Heartbeat CPU 0 instructions: 500000000 cycles: 1200150051 heartbeat IPC: 0.352511 cumulative IPC: 0.353424 (Simulation time: 0 hr 21 min 17 sec) 
Heartbeat CPU 0 instructions: 510000000 cycles: 1235650024 heartbeat IPC: 0.28169 cumulative IPC: 0.351242 (Simulation time: 0 hr 21 min 48 sec) 
Heartbeat CPU 0 instructions: 520000000 cycles: 1263638273 heartbeat IPC: 0.357293 cumulative IPC: 0.351384 (Simulation time: 0 hr 22 min 16 sec) 
Heartbeat CPU 0 instructions: 530000001 cycles: 1293753581 heartbeat IPC: 0.332057 cumulative IPC: 0.350909 (Simulation time: 0 hr 22 min 45 sec) 
Heartbeat CPU 0 instructions: 540000000 cycles: 1322403302 heartbeat IPC: 0.349044 cumulative IPC: 0.350866 (Simulation time: 0 hr 23 min 13 sec) 
Heartbeat CPU 0 instructions: 550000001 cycles: 1351905255 heartbeat IPC: 0.338961 cumulative IPC: 0.350593 (Simulation time: 0 hr 23 min 43 sec) 
Heartbeat CPU 0 instructions: 560000000 cycles: 1377489323 heartbeat IPC: 0.390868 cumulative IPC: 0.35138 (Simulation time: 0 hr 24 min 11 sec) 
Heartbeat CPU 0 instructions: 570000000 cycles: 1407551657 heartbeat IPC: 0.332642 cumulative IPC: 0.350959 (Simulation time: 0 hr 24 min 40 sec) 
Heartbeat CPU 0 instructions: 580000000 cycles: 1435948522 heartbeat IPC: 0.352152 cumulative IPC: 0.350984 (Simulation time: 0 hr 25 min 9 sec) 
Heartbeat CPU 0 instructions: 590000001 cycles: 1461089949 heartbeat IPC: 0.39775 cumulative IPC: 0.351828 (Simulation time: 0 hr 25 min 35 sec) 
Heartbeat CPU 0 instructions: 600000000 cycles: 1487860276 heartbeat IPC: 0.373548 cumulative IPC: 0.352238 (Simulation time: 0 hr 26 min 3 sec) 
Finished CPU 0 instructions: 500000000 cycles: 1419495434 cumulative IPC: 0.352238 (Simulation time: 0 hr 26 min 3 sec) 

CPU 0 Branch Prediction Accuracy: 86.4311% MPKI: 26.2662
Number of Branches: 96788573 Number of Mispredictions: 13133102
Number of LOAD Instructions: 164682285
Number of LOAD Instructions (ROI): 164682285
Number of STORE Instructions: 78194750
Number of STORE Instructions (ROI): 78194750
Total Destination Memory Operands: 83268534
Total Destination Memory Operands (ROI): 83268534
Total Source Memory Operands: 164712438
Total Source Memory Operands (ROI): 164712438
Number of DEPENDED LOADS: 7067412
Number of DEPENDED LOADS (ROI): 7067412
Number of SQ_ADDED: 83268522
Number of SQ_ADDED (ROI): 83268522
Number of LQ_ADDED: 236704352
Number of LQ_ADDED (ROI): 236704352
Number of Instructions read from trace: 600000066

ChampSim completed all CPUs

Region of Interest Statistics

CPU 0 cumulative IPC: 0.352238 instructions: 500000000 cycles: 1419495434
ITLB TOTAL     ACCESS:  100504933  HIT:  100300487  MISS:     204446
ITLB LOAD      ACCESS:  100504933  HIT:  100300487  MISS:     204446
ITLB RFO       ACCESS:          0  HIT:          0  MISS:          0
ITLB PREFETCH  ACCESS:          0  HIT:          0  MISS:          0
ITLB WRITEBACK ACCESS:          0  HIT:          0  MISS:          0
ITLB PREFETCH  REQUESTED:          0  ISSUED:          0  USEFUL:          0  USELESS:          0
ITLB TOTAL MSHR MERGED:     172425
ITLB LOAD MSHR MERGED:     172425
ITLB RFO MSHR MERGED:          0
ITLB PREFETCH MSHR MERGED:          0
ITLB WRITEBACK MSHR MERGED:          0
ITLB TOTAL ACCESSES:  100677358 HITS:  100300487 MISSES:     376871
ITLB LOAD ACCESSES:  100677358 HITS:  100300487 MISSES:     376871
ITLB RFO ACCESSES:          0 HITS:          0 MISSES:          0
ITLB PREFETCH ACCESSES:          0 HITS:          0 MISSES:          0
ITLB WRITEBACK ACCESSES:          0 HITS:          0 MISSES:          0
ITLB RQ ACCESS:  500000057
ITLB RQ TO_CACHE:  100677358
ITLB RQ MERGED:  399322699
ITLB RQ FORWARD:          0
ITLB WQ ACCESS:          0
ITLB WQ TO_CACHE:          0
ITLB WQ MERGED:          0
ITLB WQ FORWARD:          0
DTLB TOTAL     ACCESS:  165329275  HIT:  164694926  MISS:     634349
DTLB LOAD      ACCESS:  106287188  HIT:  105717181  MISS:     570007
DTLB RFO       ACCESS:   59042087  HIT:   58977745  MISS:      64342
DTLB PREFETCH  ACCESS:          0  HIT:          0  MISS:          0
DTLB WRITEBACK ACCESS:          0  HIT:          0  MISS:          0
DTLB PREFETCH  REQUESTED:          0  ISSUED:          0  USEFUL:          0  USELESS:          0
DTLB TOTAL MSHR MERGED:      99730
DTLB LOAD MSHR MERGED:      59385
DTLB RFO MSHR MERGED:      40345
DTLB PREFETCH MSHR MERGED:          0
DTLB WRITEBACK MSHR MERGED:          0
DTLB TOTAL ACCESSES:  165429005 HITS:  164694926 MISSES:     734079
DTLB LOAD ACCESSES:  106346573 HITS:  105717181 MISSES:     629392
DTLB RFO ACCESSES:   59082432 HITS:   58977745 MISSES:     104687
DTLB PREFETCH ACCESSES:          0 HITS:          0 MISSES:          0
DTLB WRITEBACK ACCESSES:          0 HITS:          0 MISSES:          0
DTLB RQ ACCESS:  200303510
DTLB RQ TO_CACHE:  165429005
DTLB RQ MERGED:   34874505
DTLB RQ FORWARD:          0
DTLB WQ ACCESS:          0
DTLB WQ TO_CACHE:          0
DTLB WQ MERGED:          0
DTLB WQ FORWARD:          0
L1D TOTAL     ACCESS:  281772665  HIT:  273863417  MISS:    7909248
L1D LOAD      ACCESS:  110415458  HIT:  107138033  MISS:    3277425
L1D RFO       ACCESS:   67071412  HIT:   66178715  MISS:     892697
L1D PREFETCH  ACCESS:  104285795  HIT:  100546669  MISS:    3739126
L1D WRITEBACK ACCESS:          0  HIT:          0  MISS:          0
L1D PREFETCH  REQUESTED:  110811211  ISSUED:  109111944  USEFUL:    1660081  USELESS:    2079009
L1D TOTAL MSHR MERGED:    2920847
L1D LOAD MSHR MERGED:     492775
L1D RFO MSHR MERGED:    1916311
L1D PREFETCH MSHR MERGED:     511761
L1D WRITEBACK MSHR MERGED:          0
L1D TOTAL ACCESSES:  284721425 HITS:  273891330 MISSES:   10830095
L1D LOAD ACCESSES:  110813101 HITS:  107139923 MISSES:    3673178
L1D RFO ACCESSES:   68973802 HITS:   66178715 MISSES:    2795087
L1D PREFETCH ACCESSES:  104934522 HITS:  100572692 MISSES:    4361830
L1D WRITEBACK ACCESSES:          0 HITS:          0 MISSES:          0
L1D RQ ACCESS:  130750907
L1D RQ TO_CACHE:  110811214
L1D RQ MERGED:   19937803
L1D RQ FORWARD:          0
L1D WQ ACCESS:   69552603
L1D WQ TO_CACHE:   68973803
L1D WQ MERGED:     578800
L1D WQ FORWARD:      27913
L1I TOTAL     ACCESS:  126552700  HIT:  122314148  MISS:    4238552
L1I LOAD      ACCESS:  126552700  HIT:  122314148  MISS:    4238552
L1I RFO       ACCESS:          0  HIT:          0  MISS:          0
L1I PREFETCH  ACCESS:          0  HIT:          0  MISS:          0
L1I WRITEBACK ACCESS:          0  HIT:          0  MISS:          0
L1I PREFETCH  REQUESTED:          0  ISSUED:          0  USEFUL:          0  USELESS:          0
L1I TOTAL MSHR MERGED:    1834608
L1I LOAD MSHR MERGED:    1834608
L1I RFO MSHR MERGED:          0
L1I PREFETCH MSHR MERGED:          0
L1I WRITEBACK MSHR MERGED:          0
L1I TOTAL ACCESSES:  128387311 HITS:  122314148 MISSES:    6073163
L1I LOAD ACCESSES:  128387311 HITS:  122314148 MISSES:    6073163
L1I RFO ACCESSES:          0 HITS:          0 MISSES:          0
L1I PREFETCH ACCESSES:          0 HITS:          0 MISSES:          0
L1I WRITEBACK ACCESSES:          0 HITS:          0 MISSES:          0
L1I RQ ACCESS:  500000057
L1I RQ TO_CACHE:  128387311
L1I RQ MERGED:  371612746
L1I RQ FORWARD:          0
L1I WQ ACCESS:          0
L1I WQ TO_CACHE:          0
L1I WQ MERGED:          0
L1I WQ FORWARD:          0
L2C TOTAL     ACCESS:   14903120  HIT:   11156606  MISS:    3746514
L2C LOAD      ACCESS:    7418752  HIT:    5098199  MISS:    2320553
L2C RFO       ACCESS:     878675  HIT:     409884  MISS:     468791
L2C PREFETCH  ACCESS:    4566470  HIT:    3626555  MISS:     939915
L2C WRITEBACK ACCESS:    2039223  HIT:    2021968  MISS:      17255
L2C PREFETCH  REQUESTED:     842478  ISSUED:     842478  USEFUL:     202802  USELESS:     736819
L2C TOTAL MSHR MERGED:       8805
L2C LOAD MSHR MERGED:       1302
L2C RFO MSHR MERGED:          0
L2C PREFETCH MSHR MERGED:       7503
L2C WRITEBACK MSHR MERGED:          0
L2C TOTAL ACCESSES:   14912880 HITS:   11157053 MISSES:    3755827
L2C LOAD ACCESSES:    7418955 HITS:    5098402 MISSES:    2320553
L2C RFO ACCESSES:     878776 HITS:     409985 MISSES:     468791
L2C PREFETCH ACCESSES:    4575926 HITS:    3626698 MISSES:     949228
L2C WRITEBACK ACCESSES:    2039223 HITS:    2021968 MISSES:      17255
L2C RQ ACCESS:    8297734
L2C RQ TO_CACHE:    8297430
L2C RQ MERGED:          0
L2C RQ FORWARD:          0
L2C WQ ACCESS:    2039223
L2C WQ TO_CACHE:    2039223
L2C WQ MERGED:          0
L2C WQ FORWARD:        447
LLC TOTAL     ACCESS:    4609915  HIT:    3740477  MISS:     869438
LLC LOAD      ACCESS:    2319239  HIT:    2017626  MISS:     301613
LLC RFO       ACCESS:     468780  HIT:     312502  MISS:     156278
LLC PREFETCH  ACCESS:     941580  HIT:     640599  MISS:     300981
LLC WRITEBACK ACCESS:     880316  HIT:     769750  MISS:     110566
LLC PREFETCH  REQUESTED:          0  ISSUED:          0  USEFUL:      39208  USELESS:     259547
LLC TOTAL MSHR MERGED:        121
LLC LOAD MSHR MERGED:         36
LLC RFO MSHR MERGED:          0
LLC PREFETCH MSHR MERGED:         85
LLC WRITEBACK MSHR MERGED:          0
LLC TOTAL ACCESSES:    4610070 HITS:    3740511 MISSES:     869559
LLC LOAD ACCESSES:    2319251 HITS:    2017638 MISSES:     301613
LLC RFO ACCESSES:     468791 HITS:     312513 MISSES:     156278
LLC PREFETCH ACCESSES:     941712 HITS:     640610 MISSES:     301102
LLC WRITEBACK ACCESSES:     880316 HITS:     769750 MISSES:     110566
LLC 0 RQ ACCESS:    2788042
LLC 0 RQ TO_CACHE:    2788019
LLC 0 RQ MERGED:          0
LLC 0 RQ FORWARD:          0
LLC WQ ACCESS:     880316
LLC WQ TO_CACHE:     880316
LLC WQ MERGED:          0
LLC WQ FORWARD:         34
Major fault: 0 Minor fault: 12862
CPU 0 L1D next line prefetcher final stats
CPU 0 L2C PC-based stride prefetcher final stats
All Misses: 1001166
All Hits: 4425755
SD Algo Stats - Switches: 0 SRR-Repls: 343411 BRR-Repls: 0

DRAM Statistics
 CHANNEL 0
 RQ ROW_BUFFER_HIT:     168177  ROW_BUFFER_MISS:     587039
 DBUS_CONGESTED:     549316
 WQ ROW_BUFFER_HIT:      40987  ROW_BUFFER_MISS:     315170  FULL:          0

 AVG_CONGESTED_CYCLE: 13
LOADS RETIRED: 136549171
INSTR RETIRED: 500000000
