
*** ChampSim Multicore Out-of-Order Simulator ***

Warmup Instructions: 100000000
Simulation Instructions: 500000000
Number of CPUs: 1
LLC sets: 2048
LLC ways: 16
Clean RRIP Policies: 212111202121112 Dirty RRIP Policies: 202110202021102 PSEL Width: 10 Track Set: 4294967295 PSEL Mask: 1 Demote Mask: 2313022223130222DS Algo: 0Window size: 0
Off-chip DRAM Size: 4096 MB Channels: 1 Width: 64-bit Data Rate: 1600 MT/s

CPU 0 runs /mnt/beegfs/iconst01/spec2017/Gcc.trace.gz
NOT SORTED
TRACE STRING: /mnt/beegfs/iconst01/spec2017/Gcc.trace.gz
SORTED
TRACE STRING: /mnt/beegfs/iconst01/spec2017/Gcc.trace.gz
INITIAL
TRACE STRING: /mnt/beegfs/iconst01/spec2017/Gcc.trace.gz

champsim_seed used: 269

CPU 0 L1D next line prefetcher
CPU 0 L2C IP-based stride prefetcher
Initialize DRRIP state
Assign rand_sets[0]: 454  LLC: 2048
rand_sets[0]: 454
Assign rand_sets[1]: 1662  LLC: 2048
rand_sets[1]: 1662
Assign rand_sets[2]: 1921  LLC: 2048
rand_sets[2]: 1921
Assign rand_sets[3]: 1131  LLC: 2048
rand_sets[3]: 1131
Assign rand_sets[4]: 331  LLC: 2048
rand_sets[4]: 331
Assign rand_sets[5]: 1531  LLC: 2048
rand_sets[5]: 1531
Assign rand_sets[6]: 482  LLC: 2048
rand_sets[6]: 482
Assign rand_sets[7]: 1275  LLC: 2048
rand_sets[7]: 1275
Assign rand_sets[8]: 1876  LLC: 2048
rand_sets[8]: 1876
Assign rand_sets[9]: 2038  LLC: 2048
rand_sets[9]: 2038
Assign rand_sets[10]: 701  LLC: 2048
rand_sets[10]: 701
Assign rand_sets[11]: 479  LLC: 2048
rand_sets[11]: 479
Assign rand_sets[12]: 892  LLC: 2048
rand_sets[12]: 892
Assign rand_sets[13]: 1820  LLC: 2048
rand_sets[13]: 1820
Assign rand_sets[14]: 1505  LLC: 2048
rand_sets[14]: 1505
Assign rand_sets[15]: 1159  LLC: 2048
rand_sets[15]: 1159
Assign rand_sets[16]: 513  LLC: 2048
rand_sets[16]: 513
Assign rand_sets[17]: 703  LLC: 2048
rand_sets[17]: 703
Assign rand_sets[18]: 561  LLC: 2048
rand_sets[18]: 561
Assign rand_sets[19]: 990  LLC: 2048
rand_sets[19]: 990
Assign rand_sets[20]: 342  LLC: 2048
rand_sets[20]: 342
Assign rand_sets[21]: 882  LLC: 2048
rand_sets[21]: 882
Assign rand_sets[22]: 15  LLC: 2048
rand_sets[22]: 15
Assign rand_sets[23]: 71  LLC: 2048
rand_sets[23]: 71
Assign rand_sets[24]: 1127  LLC: 2048
rand_sets[24]: 1127
Assign rand_sets[25]: 1382  LLC: 2048
rand_sets[25]: 1382
Assign rand_sets[26]: 647  LLC: 2048
rand_sets[26]: 647
Assign rand_sets[27]: 857  LLC: 2048
rand_sets[27]: 857
Assign rand_sets[28]: 1450  LLC: 2048
rand_sets[28]: 1450
Assign rand_sets[29]: 1160  LLC: 2048
rand_sets[29]: 1160
Assign rand_sets[30]: 1852  LLC: 2048
rand_sets[30]: 1852
Assign rand_sets[31]: 1881  LLC: 2048
rand_sets[31]: 1881
Assign rand_sets[32]: 1770  LLC: 2048
rand_sets[32]: 1770
Assign rand_sets[33]: 1622  LLC: 2048
rand_sets[33]: 1622
Assign rand_sets[34]: 275  LLC: 2048
rand_sets[34]: 275
Assign rand_sets[35]: 635  LLC: 2048
rand_sets[35]: 635
Assign rand_sets[36]: 466  LLC: 2048
rand_sets[36]: 466
Assign rand_sets[37]: 1413  LLC: 2048
rand_sets[37]: 1413
Assign rand_sets[38]: 417  LLC: 2048
rand_sets[38]: 417
Assign rand_sets[39]: 472  LLC: 2048
rand_sets[39]: 472
Assign rand_sets[40]: 1340  LLC: 2048
rand_sets[40]: 1340
Assign rand_sets[41]: 852  LLC: 2048
rand_sets[41]: 852
Assign rand_sets[42]: 1365  LLC: 2048
rand_sets[42]: 1365
Assign rand_sets[43]: 47  LLC: 2048
rand_sets[43]: 47
Assign rand_sets[44]: 823  LLC: 2048
rand_sets[44]: 823
Assign rand_sets[45]: 686  LLC: 2048
rand_sets[45]: 686
Assign rand_sets[46]: 1637  LLC: 2048
rand_sets[46]: 1637
Assign rand_sets[47]: 1115  LLC: 2048
rand_sets[47]: 1115
Assign rand_sets[48]: 986  LLC: 2048
rand_sets[48]: 986
Assign rand_sets[49]: 258  LLC: 2048
rand_sets[49]: 258
Assign rand_sets[50]: 633  LLC: 2048
rand_sets[50]: 633
Assign rand_sets[51]: 920  LLC: 2048
rand_sets[51]: 920
Assign rand_sets[52]: 204  LLC: 2048
rand_sets[52]: 204
Assign rand_sets[53]: 227  LLC: 2048
rand_sets[53]: 227
Assign rand_sets[54]: 1818  LLC: 2048
rand_sets[54]: 1818
Assign rand_sets[55]: 886  LLC: 2048
rand_sets[55]: 886
Assign rand_sets[56]: 1422  LLC: 2048
rand_sets[56]: 1422
Assign rand_sets[57]: 607  LLC: 2048
rand_sets[57]: 607
Assign rand_sets[58]: 217  LLC: 2048
rand_sets[58]: 217
Assign rand_sets[59]: 1945  LLC: 2048
rand_sets[59]: 1945
Assign rand_sets[60]: 143  LLC: 2048
rand_sets[60]: 143
Assign rand_sets[61]: 1311  LLC: 2048
rand_sets[61]: 1311
Assign rand_sets[62]: 319  LLC: 2048
rand_sets[62]: 319
Assign rand_sets[63]: 1846  LLC: 2048
rand_sets[63]: 1846
 CLEAN-RRIP-POLICY-1: 0-2-1-2-1-1-1-2- CLEAN-RRIP-POLICY-2: 0-2-1-2-1-1-1-2-
 DIRTY-RRIP-POLICY-1: 0-2-0-2-1-1-0-2- DIRTY-RRIP-POLICY-2: 0-2-0-2-1-1-0-2-
 PSEL width: 10
Heartbeat CPU 0 instructions: 10000001 cycles: 7315914 heartbeat IPC: 1.36688 cumulative IPC: 1.36688 (Simulation time: 0 hr 0 min 15 sec) 
Heartbeat CPU 0 instructions: 20000000 cycles: 14308803 heartbeat IPC: 1.43002 cumulative IPC: 1.39774 (Simulation time: 0 hr 0 min 31 sec) 
Heartbeat CPU 0 instructions: 30000001 cycles: 21023135 heartbeat IPC: 1.48935 cumulative IPC: 1.427 (Simulation time: 0 hr 0 min 48 sec) 
Heartbeat CPU 0 instructions: 40000000 cycles: 27484253 heartbeat IPC: 1.54772 cumulative IPC: 1.45538 (Simulation time: 0 hr 1 min 5 sec) 
Heartbeat CPU 0 instructions: 50000001 cycles: 33586199 heartbeat IPC: 1.63882 cumulative IPC: 1.48871 (Simulation time: 0 hr 1 min 21 sec) 
Heartbeat CPU 0 instructions: 60000000 cycles: 40067612 heartbeat IPC: 1.54287 cumulative IPC: 1.49747 (Simulation time: 0 hr 1 min 38 sec) 
Heartbeat CPU 0 instructions: 70000000 cycles: 47108928 heartbeat IPC: 1.42019 cumulative IPC: 1.48592 (Simulation time: 0 hr 1 min 54 sec) 
Heartbeat CPU 0 instructions: 80000000 cycles: 54201859 heartbeat IPC: 1.40985 cumulative IPC: 1.47596 (Simulation time: 0 hr 2 min 9 sec) 
Heartbeat CPU 0 instructions: 90000003 cycles: 61209570 heartbeat IPC: 1.427 cumulative IPC: 1.47036 (Simulation time: 0 hr 2 min 25 sec) 
Heartbeat CPU 0 instructions: 100000000 cycles: 68380249 heartbeat IPC: 1.39457 cumulative IPC: 1.46241 (Simulation time: 0 hr 2 min 40 sec) 

Warmup complete CPU 0 instructions: 100000004 cycles: 68380250 (Simulation time: 0 hr 2 min 40 sec) 

Heartbeat CPU 0 instructions: 110000003 cycles: 96663779 heartbeat IPC: 0.353563 cumulative IPC: 0.353563 (Simulation time: 0 hr 3 min 11 sec) 
Heartbeat CPU 0 instructions: 120000000 cycles: 124320602 heartbeat IPC: 0.361574 cumulative IPC: 0.357524 (Simulation time: 0 hr 3 min 42 sec) 
Heartbeat CPU 0 instructions: 130000000 cycles: 149458062 heartbeat IPC: 0.397813 cumulative IPC: 0.370015 (Simulation time: 0 hr 4 min 13 sec) 
Heartbeat CPU 0 instructions: 140000000 cycles: 179963142 heartbeat IPC: 0.327814 cumulative IPC: 0.358478 (Simulation time: 0 hr 4 min 44 sec) 
Heartbeat CPU 0 instructions: 150000000 cycles: 210596770 heartbeat IPC: 0.326439 cumulative IPC: 0.351577 (Simulation time: 0 hr 5 min 15 sec) 
Heartbeat CPU 0 instructions: 160000000 cycles: 238243840 heartbeat IPC: 0.361702 cumulative IPC: 0.353225 (Simulation time: 0 hr 5 min 44 sec) 
Heartbeat CPU 0 instructions: 170000001 cycles: 266603291 heartbeat IPC: 0.352616 cumulative IPC: 0.353138 (Simulation time: 0 hr 6 min 16 sec) 
Heartbeat CPU 0 instructions: 180000000 cycles: 295441313 heartbeat IPC: 0.346764 cumulative IPC: 0.352328 (Simulation time: 0 hr 6 min 48 sec) 
Heartbeat CPU 0 instructions: 190000002 cycles: 323913303 heartbeat IPC: 0.351222 cumulative IPC: 0.352205 (Simulation time: 0 hr 7 min 19 sec) 
Heartbeat CPU 0 instructions: 200000000 cycles: 352727262 heartbeat IPC: 0.347054 cumulative IPC: 0.351683 (Simulation time: 0 hr 7 min 50 sec) 
Heartbeat CPU 0 instructions: 210000002 cycles: 380991968 heartbeat IPC: 0.353798 cumulative IPC: 0.351874 (Simulation time: 0 hr 8 min 21 sec) 
Heartbeat CPU 0 instructions: 220000000 cycles: 411253733 heartbeat IPC: 0.33045 cumulative IPC: 0.349983 (Simulation time: 0 hr 8 min 51 sec) 
Heartbeat CPU 0 instructions: 230000000 cycles: 439373119 heartbeat IPC: 0.355627 cumulative IPC: 0.350411 (Simulation time: 0 hr 9 min 21 sec) 
Heartbeat CPU 0 instructions: 240000000 cycles: 465683841 heartbeat IPC: 0.380073 cumulative IPC: 0.352375 (Simulation time: 0 hr 9 min 50 sec) 
Heartbeat CPU 0 instructions: 250000000 cycles: 496230311 heartbeat IPC: 0.32737 cumulative IPC: 0.35059 (Simulation time: 0 hr 10 min 22 sec) 
Heartbeat CPU 0 instructions: 260000000 cycles: 523541474 heartbeat IPC: 0.366151 cumulative IPC: 0.351524 (Simulation time: 0 hr 10 min 53 sec) 
Heartbeat CPU 0 instructions: 270000003 cycles: 552350645 heartbeat IPC: 0.347112 cumulative IPC: 0.351261 (Simulation time: 0 hr 11 min 25 sec) 
Heartbeat CPU 0 instructions: 280000000 cycles: 581041466 heartbeat IPC: 0.348543 cumulative IPC: 0.351109 (Simulation time: 0 hr 11 min 57 sec) 
Heartbeat CPU 0 instructions: 290000000 cycles: 610343971 heartbeat IPC: 0.341268 cumulative IPC: 0.350577 (Simulation time: 0 hr 12 min 29 sec) 
Heartbeat CPU 0 instructions: 300000000 cycles: 641463529 heartbeat IPC: 0.321341 cumulative IPC: 0.348989 (Simulation time: 0 hr 12 min 59 sec) 
Heartbeat CPU 0 instructions: 310000001 cycles: 671744593 heartbeat IPC: 0.330239 cumulative IPC: 0.348048 (Simulation time: 0 hr 13 min 30 sec) 
Heartbeat CPU 0 instructions: 320000000 cycles: 700961026 heartbeat IPC: 0.342273 cumulative IPC: 0.347782 (Simulation time: 0 hr 14 min 0 sec) 
Heartbeat CPU 0 instructions: 330000000 cycles: 730354365 heartbeat IPC: 0.340213 cumulative IPC: 0.347446 (Simulation time: 0 hr 14 min 31 sec) 
Heartbeat CPU 0 instructions: 340000000 cycles: 760538306 heartbeat IPC: 0.331302 cumulative IPC: 0.346742 (Simulation time: 0 hr 15 min 2 sec) 
Heartbeat CPU 0 instructions: 350000003 cycles: 788081524 heartbeat IPC: 0.363066 cumulative IPC: 0.347366 (Simulation time: 0 hr 15 min 32 sec) 
Heartbeat CPU 0 instructions: 360000000 cycles: 818362013 heartbeat IPC: 0.330246 cumulative IPC: 0.346675 (Simulation time: 0 hr 16 min 2 sec) 
Heartbeat CPU 0 instructions: 370000000 cycles: 848421199 heartbeat IPC: 0.332677 cumulative IPC: 0.346136 (Simulation time: 0 hr 16 min 32 sec) 
Heartbeat CPU 0 instructions: 380000000 cycles: 878711462 heartbeat IPC: 0.330139 cumulative IPC: 0.345538 (Simulation time: 0 hr 17 min 2 sec) 
Heartbeat CPU 0 instructions: 390000001 cycles: 907872825 heartbeat IPC: 0.34292 cumulative IPC: 0.345447 (Simulation time: 0 hr 17 min 32 sec) 
Heartbeat CPU 0 instructions: 400000000 cycles: 938101319 heartbeat IPC: 0.330814 cumulative IPC: 0.344938 (Simulation time: 0 hr 18 min 2 sec) 
Heartbeat CPU 0 instructions: 410000001 cycles: 966697408 heartbeat IPC: 0.349698 cumulative IPC: 0.34509 (Simulation time: 0 hr 18 min 31 sec) 
Heartbeat CPU 0 instructions: 420000000 cycles: 995156332 heartbeat IPC: 0.351384 cumulative IPC: 0.345283 (Simulation time: 0 hr 19 min 1 sec) 
Heartbeat CPU 0 instructions: 430000002 cycles: 1024117093 heartbeat IPC: 0.345295 cumulative IPC: 0.345283 (Simulation time: 0 hr 19 min 30 sec) 
Heartbeat CPU 0 instructions: 440000000 cycles: 1055129549 heartbeat IPC: 0.322451 cumulative IPC: 0.344566 (Simulation time: 0 hr 20 min 0 sec) 
Heartbeat CPU 0 instructions: 450000002 cycles: 1085940142 heartbeat IPC: 0.324564 cumulative IPC: 0.34396 (Simulation time: 0 hr 20 min 30 sec) 
Heartbeat CPU 0 instructions: 460000000 cycles: 1114871849 heartbeat IPC: 0.345641 cumulative IPC: 0.344007 (Simulation time: 0 hr 21 min 0 sec) 
Heartbeat CPU 0 instructions: 470000000 cycles: 1143462044 heartbeat IPC: 0.34977 cumulative IPC: 0.34416 (Simulation time: 0 hr 21 min 30 sec) 
Heartbeat CPU 0 instructions: 480000000 cycles: 1172246781 heartbeat IPC: 0.347406 cumulative IPC: 0.344245 (Simulation time: 0 hr 21 min 59 sec) 
Heartbeat CPU 0 instructions: 490000000 cycles: 1200700003 heartbeat IPC: 0.351454 cumulative IPC: 0.344426 (Simulation time: 0 hr 22 min 28 sec) 
Heartbeat CPU 0 instructions: 500000000 cycles: 1229805026 heartbeat IPC: 0.343583 cumulative IPC: 0.344405 (Simulation time: 0 hr 22 min 58 sec) 
Heartbeat CPU 0 instructions: 510000000 cycles: 1264884514 heartbeat IPC: 0.285067 cumulative IPC: 0.342665 (Simulation time: 0 hr 23 min 31 sec) 
Heartbeat CPU 0 instructions: 520000000 cycles: 1293647546 heartbeat IPC: 0.347668 cumulative IPC: 0.342782 (Simulation time: 0 hr 24 min 2 sec) 
Heartbeat CPU 0 instructions: 530000001 cycles: 1325010446 heartbeat IPC: 0.318848 cumulative IPC: 0.342185 (Simulation time: 0 hr 24 min 33 sec) 
Heartbeat CPU 0 instructions: 540000000 cycles: 1354524851 heartbeat IPC: 0.338818 cumulative IPC: 0.342108 (Simulation time: 0 hr 25 min 4 sec) 
Heartbeat CPU 0 instructions: 550000001 cycles: 1384350027 heartbeat IPC: 0.335287 cumulative IPC: 0.341953 (Simulation time: 0 hr 25 min 36 sec) 
Heartbeat CPU 0 instructions: 560000000 cycles: 1410229615 heartbeat IPC: 0.386405 cumulative IPC: 0.34281 (Simulation time: 0 hr 26 min 6 sec) 
Heartbeat CPU 0 instructions: 570000000 cycles: 1441301369 heartbeat IPC: 0.321836 cumulative IPC: 0.342336 (Simulation time: 0 hr 26 min 37 sec) 
Heartbeat CPU 0 instructions: 580000000 cycles: 1470340196 heartbeat IPC: 0.344367 cumulative IPC: 0.342378 (Simulation time: 0 hr 27 min 8 sec) 
Heartbeat CPU 0 instructions: 590000001 cycles: 1495567418 heartbeat IPC: 0.396397 cumulative IPC: 0.343333 (Simulation time: 0 hr 27 min 37 sec) 
Heartbeat CPU 0 instructions: 600000000 cycles: 1522622624 heartbeat IPC: 0.369615 cumulative IPC: 0.343822 (Simulation time: 0 hr 28 min 5 sec) 
Finished CPU 0 instructions: 500000000 cycles: 1454242396 cumulative IPC: 0.343822 (Simulation time: 0 hr 28 min 5 sec) 

CPU 0 Branch Prediction Accuracy: 86.4311% MPKI: 26.2662
Number of Branches: 96788573 Number of Mispredictions: 13133102
Number of LOAD Instructions: 164682285
Number of LOAD Instructions (ROI): 164682285
Number of STORE Instructions: 78194750
Number of STORE Instructions (ROI): 78194750
Total Destination Memory Operands: 83268534
Total Destination Memory Operands (ROI): 83268534
Total Source Memory Operands: 164712438
Total Source Memory Operands (ROI): 164712438
Number of DEPENDED LOADS: 7051529
Number of DEPENDED LOADS (ROI): 7051529
Number of SQ_ADDED: 83268522
Number of SQ_ADDED (ROI): 83268522
Number of LQ_ADDED: 236686928
Number of LQ_ADDED (ROI): 236686928
Number of Instructions read from trace: 600000066

ChampSim completed all CPUs

Region of Interest Statistics

CPU 0 cumulative IPC: 0.343822 instructions: 500000000 cycles: 1454242396
ITLB TOTAL     ACCESS:  100531470  HIT:  100327024  MISS:     204446
ITLB LOAD      ACCESS:  100531470  HIT:  100327024  MISS:     204446
ITLB RFO       ACCESS:          0  HIT:          0  MISS:          0
ITLB PREFETCH  ACCESS:          0  HIT:          0  MISS:          0
ITLB WRITEBACK ACCESS:          0  HIT:          0  MISS:          0
ITLB PREFETCH  REQUESTED:          0  ISSUED:          0  USEFUL:          0  USELESS:          0
ITLB TOTAL MSHR MERGED:     172424
ITLB LOAD MSHR MERGED:     172424
ITLB RFO MSHR MERGED:          0
ITLB PREFETCH MSHR MERGED:          0
ITLB WRITEBACK MSHR MERGED:          0
ITLB TOTAL ACCESSES:  100703894 HITS:  100327024 MISSES:     376870
ITLB LOAD ACCESSES:  100703894 HITS:  100327024 MISSES:     376870
ITLB RFO ACCESSES:          0 HITS:          0 MISSES:          0
ITLB PREFETCH ACCESSES:          0 HITS:          0 MISSES:          0
ITLB WRITEBACK ACCESSES:          0 HITS:          0 MISSES:          0
ITLB RQ ACCESS:  500000057
ITLB RQ TO_CACHE:  100703894
ITLB RQ MERGED:  399296163
ITLB RQ FORWARD:          0
ITLB WQ ACCESS:          0
ITLB WQ TO_CACHE:          0
ITLB WQ MERGED:          0
ITLB WQ FORWARD:          0
DTLB TOTAL     ACCESS:  165355786  HIT:  164721444  MISS:     634342
DTLB LOAD      ACCESS:  106305690  HIT:  105735732  MISS:     569958
DTLB RFO       ACCESS:   59050096  HIT:   58985712  MISS:      64384
DTLB PREFETCH  ACCESS:          0  HIT:          0  MISS:          0
DTLB WRITEBACK ACCESS:          0  HIT:          0  MISS:          0
DTLB PREFETCH  REQUESTED:          0  ISSUED:          0  USEFUL:          0  USELESS:          0
DTLB TOTAL MSHR MERGED:      99631
DTLB LOAD MSHR MERGED:      59224
DTLB RFO MSHR MERGED:      40407
DTLB PREFETCH MSHR MERGED:          0
DTLB WRITEBACK MSHR MERGED:          0
DTLB TOTAL ACCESSES:  165455417 HITS:  164721444 MISSES:     733973
DTLB LOAD ACCESSES:  106364914 HITS:  105735732 MISSES:     629182
DTLB RFO ACCESSES:   59090503 HITS:   58985712 MISSES:     104791
DTLB PREFETCH ACCESSES:          0 HITS:          0 MISSES:          0
DTLB WRITEBACK ACCESSES:          0 HITS:          0 MISSES:          0
DTLB RQ ACCESS:  200319348
DTLB RQ TO_CACHE:  165455417
DTLB RQ MERGED:   34863931
DTLB RQ FORWARD:          0
DTLB WQ ACCESS:          0
DTLB WQ TO_CACHE:          0
DTLB WQ MERGED:          0
DTLB WQ FORWARD:          0
L1D TOTAL     ACCESS:  281904105  HIT:  273994654  MISS:    7909451
L1D LOAD      ACCESS:  110443283  HIT:  107166599  MISS:    3276684
L1D RFO       ACCESS:   67135167  HIT:   66245194  MISS:     889973
L1D PREFETCH  ACCESS:  104325655  HIT:  100582861  MISS:    3742794
L1D WRITEBACK ACCESS:          0  HIT:          0  MISS:          0
L1D PREFETCH  REQUESTED:  110834487  ISSUED:  109134972  USEFUL:    1663342  USELESS:    2079416
L1D TOTAL MSHR MERGED:    2839236
L1D LOAD MSHR MERGED:     487695
L1D RFO MSHR MERGED:    1850031
L1D PREFETCH MSHR MERGED:     501510
L1D WRITEBACK MSHR MERGED:          0
L1D TOTAL ACCESSES:  284770714 HITS:  274022027 MISSES:   10748687
L1D LOAD ACCESSES:  110835895 HITS:  107168007 MISSES:    3667888
L1D RFO ACCESSES:   68974021 HITS:   66245194 MISSES:    2728827
L1D PREFETCH ACCESSES:  104960798 HITS:  100608826 MISSES:    4351972
L1D WRITEBACK ACCESSES:          0 HITS:          0 MISSES:          0
L1D RQ ACCESS:  130766745
L1D RQ TO_CACHE:  110834490
L1D RQ MERGED:   19930847
L1D RQ FORWARD:          0
L1D WQ ACCESS:   69552603
L1D WQ TO_CACHE:   68974022
L1D WQ MERGED:     578581
L1D WQ FORWARD:      27373
L1I TOTAL     ACCESS:  126576584  HIT:  122338038  MISS:    4238546
L1I LOAD      ACCESS:  126576584  HIT:  122338038  MISS:    4238546
L1I RFO       ACCESS:          0  HIT:          0  MISS:          0
L1I PREFETCH  ACCESS:          0  HIT:          0  MISS:          0
L1I WRITEBACK ACCESS:          0  HIT:          0  MISS:          0
L1I PREFETCH  REQUESTED:          0  ISSUED:          0  USEFUL:          0  USELESS:          0
L1I TOTAL MSHR MERGED:    1837176
L1I LOAD MSHR MERGED:    1837176
L1I RFO MSHR MERGED:          0
L1I PREFETCH MSHR MERGED:          0
L1I WRITEBACK MSHR MERGED:          0
L1I TOTAL ACCESSES:  128413763 HITS:  122338038 MISSES:    6075725
L1I LOAD ACCESSES:  128413763 HITS:  122338038 MISSES:    6075725
L1I RFO ACCESSES:          0 HITS:          0 MISSES:          0
L1I PREFETCH ACCESSES:          0 HITS:          0 MISSES:          0
L1I WRITEBACK ACCESSES:          0 HITS:          0 MISSES:          0
L1I RQ ACCESS:  500000057
L1I RQ TO_CACHE:  128413763
L1I RQ MERGED:  371586294
L1I RQ FORWARD:          0
L1I WQ ACCESS:          0
L1I WQ TO_CACHE:          0
L1I WQ MERGED:          0
L1I WQ FORWARD:          0
L2C TOTAL     ACCESS:   14906265  HIT:   11159755  MISS:    3746510
L2C LOAD      ACCESS:    7418530  HIT:    5099000  MISS:    2319530
L2C RFO       ACCESS:     878702  HIT:     409936  MISS:     468766
L2C PREFETCH  ACCESS:    4569779  HIT:    3628825  MISS:     940954
L2C WRITEBACK ACCESS:    2039254  HIT:    2021994  MISS:      17260
L2C PREFETCH  REQUESTED:     842750  ISSUED:     842750  USEFUL:     203702  USELESS:     736959
L2C TOTAL MSHR MERGED:       6135
L2C LOAD MSHR MERGED:        520
L2C RFO MSHR MERGED:          0
L2C PREFETCH MSHR MERGED:       5615
L2C WRITEBACK MSHR MERGED:          0
L2C TOTAL ACCESSES:   14913294 HITS:   11160200 MISSES:    3753094
L2C LOAD ACCESSES:    7418739 HITS:    5099209 MISSES:    2319530
L2C RFO ACCESSES:     878796 HITS:     410030 MISSES:     468766
L2C PREFETCH ACCESSES:    4576505 HITS:    3628967 MISSES:     947538
L2C WRITEBACK ACCESSES:    2039254 HITS:    2021994 MISSES:      17260
L2C RQ ACCESS:    8297538
L2C RQ TO_CACHE:    8297235
L2C RQ MERGED:          0
L2C RQ FORWARD:          0
L2C WQ ACCESS:    2039254
L2C WQ TO_CACHE:    2039254
L2C WQ MERGED:          0
L2C WQ FORWARD:        445
LLC TOTAL     ACCESS:    4609843  HIT:    3571169  MISS:    1038674
LLC LOAD      ACCESS:    2318995  HIT:    1660259  MISS:     658736
LLC RFO       ACCESS:     468758  HIT:     425638  MISS:      43120
LLC PREFETCH  ACCESS:     941801  HIT:     655096  MISS:     286705
LLC WRITEBACK ACCESS:     880289  HIT:     830176  MISS:      50113
LLC PREFETCH  REQUESTED:          0  ISSUED:          0  USEFUL:      18531  USELESS:     267936
LLC TOTAL MSHR MERGED:         98
LLC LOAD MSHR MERGED:         31
LLC RFO MSHR MERGED:          0
LLC PREFETCH MSHR MERGED:         67
LLC WRITEBACK MSHR MERGED:          0
LLC TOTAL ACCESSES:    4609975 HITS:    3571203 MISSES:    1038772
LLC LOAD ACCESSES:    2319010 HITS:    1660274 MISSES:     658736
LLC RFO ACCESSES:     468766 HITS:     425646 MISSES:      43120
LLC PREFETCH ACCESSES:     941910 HITS:     655107 MISSES:     286803
LLC WRITEBACK ACCESSES:     880289 HITS:     830176 MISSES:      50113
LLC 0 RQ ACCESS:    2787776
LLC 0 RQ TO_CACHE:    2787753
LLC 0 RQ MERGED:          0
LLC 0 RQ FORWARD:          0
LLC WQ ACCESS:     880289
LLC WQ TO_CACHE:     880289
LLC WQ MERGED:          0
LLC WQ FORWARD:         34
Major fault: 0 Minor fault: 12862
CPU 0 L1D next line prefetcher final stats
CPU 0 L2C PC-based stride prefetcher final stats
All Misses: 1177385
All Hits: 4249461
SD Algo Stats - Switches: 0 SRR-Repls: 722448 BRR-Repls: 0

DRAM Statistics
 CHANNEL 0
 RQ ROW_BUFFER_HIT:     245192  ROW_BUFFER_MISS:     742157
 DBUS_CONGESTED:     354242
 WQ ROW_BUFFER_HIT:       6142  ROW_BUFFER_MISS:     131777  FULL:          0

 AVG_CONGESTED_CYCLE: 13
LOADS RETIRED: 136549171
INSTR RETIRED: 500000000
