
*** ChampSim Multicore Out-of-Order Simulator ***

Warmup Instructions: 100000000
Simulation Instructions: 500000000
Number of CPUs: 1
LLC sets: 2048
LLC ways: 16
Clean RRIP Policies: 323102303231023 Dirty RRIP Policies: 2303201323032013 PSEL Width: 10 Track Set: 4294967295 PSEL Mask: 1 Demote Mask: 2413340024133400DS Algo: 0Window size: 0
Off-chip DRAM Size: 4096 MB Channels: 1 Width: 64-bit Data Rate: 1600 MT/s

CPU 0 runs /mnt/beegfs/iconst01/spec2017/Gcc.trace.gz
NOT SORTED
TRACE STRING: /mnt/beegfs/iconst01/spec2017/Gcc.trace.gz
SORTED
TRACE STRING: /mnt/beegfs/iconst01/spec2017/Gcc.trace.gz
INITIAL
TRACE STRING: /mnt/beegfs/iconst01/spec2017/Gcc.trace.gz

champsim_seed used: 269

CPU 0 L1D next line prefetcher
CPU 0 L2C IP-based stride prefetcher
Initialize DRRIP state
Assign rand_sets[0]: 454  LLC: 2048
rand_sets[0]: 454
Assign rand_sets[1]: 1662  LLC: 2048
rand_sets[1]: 1662
Assign rand_sets[2]: 1921  LLC: 2048
rand_sets[2]: 1921
Assign rand_sets[3]: 1131  LLC: 2048
rand_sets[3]: 1131
Assign rand_sets[4]: 331  LLC: 2048
rand_sets[4]: 331
Assign rand_sets[5]: 1531  LLC: 2048
rand_sets[5]: 1531
Assign rand_sets[6]: 482  LLC: 2048
rand_sets[6]: 482
Assign rand_sets[7]: 1275  LLC: 2048
rand_sets[7]: 1275
Assign rand_sets[8]: 1876  LLC: 2048
rand_sets[8]: 1876
Assign rand_sets[9]: 2038  LLC: 2048
rand_sets[9]: 2038
Assign rand_sets[10]: 701  LLC: 2048
rand_sets[10]: 701
Assign rand_sets[11]: 479  LLC: 2048
rand_sets[11]: 479
Assign rand_sets[12]: 892  LLC: 2048
rand_sets[12]: 892
Assign rand_sets[13]: 1820  LLC: 2048
rand_sets[13]: 1820
Assign rand_sets[14]: 1505  LLC: 2048
rand_sets[14]: 1505
Assign rand_sets[15]: 1159  LLC: 2048
rand_sets[15]: 1159
Assign rand_sets[16]: 513  LLC: 2048
rand_sets[16]: 513
Assign rand_sets[17]: 703  LLC: 2048
rand_sets[17]: 703
Assign rand_sets[18]: 561  LLC: 2048
rand_sets[18]: 561
Assign rand_sets[19]: 990  LLC: 2048
rand_sets[19]: 990
Assign rand_sets[20]: 342  LLC: 2048
rand_sets[20]: 342
Assign rand_sets[21]: 882  LLC: 2048
rand_sets[21]: 882
Assign rand_sets[22]: 15  LLC: 2048
rand_sets[22]: 15
Assign rand_sets[23]: 71  LLC: 2048
rand_sets[23]: 71
Assign rand_sets[24]: 1127  LLC: 2048
rand_sets[24]: 1127
Assign rand_sets[25]: 1382  LLC: 2048
rand_sets[25]: 1382
Assign rand_sets[26]: 647  LLC: 2048
rand_sets[26]: 647
Assign rand_sets[27]: 857  LLC: 2048
rand_sets[27]: 857
Assign rand_sets[28]: 1450  LLC: 2048
rand_sets[28]: 1450
Assign rand_sets[29]: 1160  LLC: 2048
rand_sets[29]: 1160
Assign rand_sets[30]: 1852  LLC: 2048
rand_sets[30]: 1852
Assign rand_sets[31]: 1881  LLC: 2048
rand_sets[31]: 1881
Assign rand_sets[32]: 1770  LLC: 2048
rand_sets[32]: 1770
Assign rand_sets[33]: 1622  LLC: 2048
rand_sets[33]: 1622
Assign rand_sets[34]: 275  LLC: 2048
rand_sets[34]: 275
Assign rand_sets[35]: 635  LLC: 2048
rand_sets[35]: 635
Assign rand_sets[36]: 466  LLC: 2048
rand_sets[36]: 466
Assign rand_sets[37]: 1413  LLC: 2048
rand_sets[37]: 1413
Assign rand_sets[38]: 417  LLC: 2048
rand_sets[38]: 417
Assign rand_sets[39]: 472  LLC: 2048
rand_sets[39]: 472
Assign rand_sets[40]: 1340  LLC: 2048
rand_sets[40]: 1340
Assign rand_sets[41]: 852  LLC: 2048
rand_sets[41]: 852
Assign rand_sets[42]: 1365  LLC: 2048
rand_sets[42]: 1365
Assign rand_sets[43]: 47  LLC: 2048
rand_sets[43]: 47
Assign rand_sets[44]: 823  LLC: 2048
rand_sets[44]: 823
Assign rand_sets[45]: 686  LLC: 2048
rand_sets[45]: 686
Assign rand_sets[46]: 1637  LLC: 2048
rand_sets[46]: 1637
Assign rand_sets[47]: 1115  LLC: 2048
rand_sets[47]: 1115
Assign rand_sets[48]: 986  LLC: 2048
rand_sets[48]: 986
Assign rand_sets[49]: 258  LLC: 2048
rand_sets[49]: 258
Assign rand_sets[50]: 633  LLC: 2048
rand_sets[50]: 633
Assign rand_sets[51]: 920  LLC: 2048
rand_sets[51]: 920
Assign rand_sets[52]: 204  LLC: 2048
rand_sets[52]: 204
Assign rand_sets[53]: 227  LLC: 2048
rand_sets[53]: 227
Assign rand_sets[54]: 1818  LLC: 2048
rand_sets[54]: 1818
Assign rand_sets[55]: 886  LLC: 2048
rand_sets[55]: 886
Assign rand_sets[56]: 1422  LLC: 2048
rand_sets[56]: 1422
Assign rand_sets[57]: 607  LLC: 2048
rand_sets[57]: 607
Assign rand_sets[58]: 217  LLC: 2048
rand_sets[58]: 217
Assign rand_sets[59]: 1945  LLC: 2048
rand_sets[59]: 1945
Assign rand_sets[60]: 143  LLC: 2048
rand_sets[60]: 143
Assign rand_sets[61]: 1311  LLC: 2048
rand_sets[61]: 1311
Assign rand_sets[62]: 319  LLC: 2048
rand_sets[62]: 319
Assign rand_sets[63]: 1846  LLC: 2048
rand_sets[63]: 1846
 CLEAN-RRIP-POLICY-1: 0-3-2-3-1-0-2-3- CLEAN-RRIP-POLICY-2: 0-3-2-3-1-0-2-3-
 DIRTY-RRIP-POLICY-1: 2-3-0-3-2-0-1-3- DIRTY-RRIP-POLICY-2: 2-3-0-3-2-0-1-3-
 PSEL width: 10
Heartbeat CPU 0 instructions: 10000001 cycles: 7321625 heartbeat IPC: 1.36582 cumulative IPC: 1.36582 (Simulation time: 0 hr 0 min 15 sec) 
Heartbeat CPU 0 instructions: 20000000 cycles: 14328006 heartbeat IPC: 1.42727 cumulative IPC: 1.39587 (Simulation time: 0 hr 0 min 30 sec) 
Heartbeat CPU 0 instructions: 30000001 cycles: 21045401 heartbeat IPC: 1.48867 cumulative IPC: 1.42549 (Simulation time: 0 hr 0 min 46 sec) 
Heartbeat CPU 0 instructions: 40000000 cycles: 27507830 heartbeat IPC: 1.54741 cumulative IPC: 1.45413 (Simulation time: 0 hr 1 min 2 sec) 
Heartbeat CPU 0 instructions: 50000001 cycles: 33610824 heartbeat IPC: 1.63854 cumulative IPC: 1.48762 (Simulation time: 0 hr 1 min 18 sec) 
Heartbeat CPU 0 instructions: 60000000 cycles: 40093196 heartbeat IPC: 1.54265 cumulative IPC: 1.49651 (Simulation time: 0 hr 1 min 34 sec) 
Heartbeat CPU 0 instructions: 70000000 cycles: 47136923 heartbeat IPC: 1.4197 cumulative IPC: 1.48504 (Simulation time: 0 hr 1 min 49 sec) 
Heartbeat CPU 0 instructions: 80000000 cycles: 54232959 heartbeat IPC: 1.40924 cumulative IPC: 1.47512 (Simulation time: 0 hr 2 min 4 sec) 
Heartbeat CPU 0 instructions: 90000003 cycles: 61243889 heartbeat IPC: 1.42634 cumulative IPC: 1.46953 (Simulation time: 0 hr 2 min 19 sec) 
Heartbeat CPU 0 instructions: 100000000 cycles: 68417923 heartbeat IPC: 1.39392 cumulative IPC: 1.46161 (Simulation time: 0 hr 2 min 34 sec) 

Warmup complete CPU 0 instructions: 100000004 cycles: 68417924 (Simulation time: 0 hr 2 min 34 sec) 

Heartbeat CPU 0 instructions: 110000003 cycles: 97170870 heartbeat IPC: 0.347791 cumulative IPC: 0.34779 (Simulation time: 0 hr 3 min 3 sec) 
Heartbeat CPU 0 instructions: 120000000 cycles: 125063225 heartbeat IPC: 0.358521 cumulative IPC: 0.353074 (Simulation time: 0 hr 3 min 33 sec) 
Heartbeat CPU 0 instructions: 130000000 cycles: 150373412 heartbeat IPC: 0.395098 cumulative IPC: 0.366052 (Simulation time: 0 hr 4 min 2 sec) 
Heartbeat CPU 0 instructions: 140000000 cycles: 182033074 heartbeat IPC: 0.315859 cumulative IPC: 0.352066 (Simulation time: 0 hr 4 min 31 sec) 
Heartbeat CPU 0 instructions: 150000000 cycles: 213467198 heartbeat IPC: 0.318126 cumulative IPC: 0.34471 (Simulation time: 0 hr 5 min 1 sec) 
Heartbeat CPU 0 instructions: 160000000 cycles: 241457581 heartbeat IPC: 0.357266 cumulative IPC: 0.346741 (Simulation time: 0 hr 5 min 30 sec) 
Heartbeat CPU 0 instructions: 170000001 cycles: 270215544 heartbeat IPC: 0.34773 cumulative IPC: 0.346882 (Simulation time: 0 hr 6 min 0 sec) 
Heartbeat CPU 0 instructions: 180000000 cycles: 299572842 heartbeat IPC: 0.340631 cumulative IPC: 0.346088 (Simulation time: 0 hr 6 min 30 sec) 
Heartbeat CPU 0 instructions: 190000002 cycles: 328525992 heartbeat IPC: 0.345386 cumulative IPC: 0.34601 (Simulation time: 0 hr 7 min 0 sec) 
Heartbeat CPU 0 instructions: 200000000 cycles: 357851592 heartbeat IPC: 0.340999 cumulative IPC: 0.345502 (Simulation time: 0 hr 7 min 29 sec) 
Heartbeat CPU 0 instructions: 210000002 cycles: 386636352 heartbeat IPC: 0.347406 cumulative IPC: 0.345675 (Simulation time: 0 hr 7 min 59 sec) 
Heartbeat CPU 0 instructions: 220000000 cycles: 418174700 heartbeat IPC: 0.317074 cumulative IPC: 0.343096 (Simulation time: 0 hr 8 min 28 sec) 
Heartbeat CPU 0 instructions: 230000000 cycles: 447066489 heartbeat IPC: 0.346119 cumulative IPC: 0.343326 (Simulation time: 0 hr 8 min 57 sec) 
Heartbeat CPU 0 instructions: 240000000 cycles: 473973258 heartbeat IPC: 0.371654 cumulative IPC: 0.345206 (Simulation time: 0 hr 9 min 25 sec) 
Heartbeat CPU 0 instructions: 250000000 cycles: 505164087 heartbeat IPC: 0.320607 cumulative IPC: 0.343449 (Simulation time: 0 hr 9 min 55 sec) 
Heartbeat CPU 0 instructions: 260000000 cycles: 532835188 heartbeat IPC: 0.361388 cumulative IPC: 0.344518 (Simulation time: 0 hr 10 min 24 sec) 
Heartbeat CPU 0 instructions: 270000003 cycles: 562193976 heartbeat IPC: 0.340614 cumulative IPC: 0.344286 (Simulation time: 0 hr 10 min 55 sec) 
Heartbeat CPU 0 instructions: 280000000 cycles: 591442054 heartbeat IPC: 0.341903 cumulative IPC: 0.344152 (Simulation time: 0 hr 11 min 25 sec) 
Heartbeat CPU 0 instructions: 290000000 cycles: 621352866 heartbeat IPC: 0.334327 cumulative IPC: 0.343621 (Simulation time: 0 hr 11 min 56 sec) 
Heartbeat CPU 0 instructions: 300000000 cycles: 653700938 heartbeat IPC: 0.309137 cumulative IPC: 0.341715 (Simulation time: 0 hr 12 min 25 sec) 
Heartbeat CPU 0 instructions: 310000001 cycles: 684966435 heartbeat IPC: 0.319841 cumulative IPC: 0.340606 (Simulation time: 0 hr 12 min 55 sec) 
Heartbeat CPU 0 instructions: 320000000 cycles: 715239559 heartbeat IPC: 0.330326 cumulative IPC: 0.340125 (Simulation time: 0 hr 13 min 24 sec) 
Heartbeat CPU 0 instructions: 330000000 cycles: 745539440 heartbeat IPC: 0.330034 cumulative IPC: 0.339673 (Simulation time: 0 hr 13 min 53 sec) 
Heartbeat CPU 0 instructions: 340000000 cycles: 776747838 heartbeat IPC: 0.320427 cumulative IPC: 0.338825 (Simulation time: 0 hr 14 min 23 sec) 
Heartbeat CPU 0 instructions: 350000003 cycles: 804920562 heartbeat IPC: 0.354953 cumulative IPC: 0.339442 (Simulation time: 0 hr 14 min 52 sec) 
Heartbeat CPU 0 instructions: 360000000 cycles: 837447296 heartbeat IPC: 0.307439 cumulative IPC: 0.338089 (Simulation time: 0 hr 15 min 21 sec) 
Heartbeat CPU 0 instructions: 370000000 cycles: 870064561 heartbeat IPC: 0.306586 cumulative IPC: 0.336807 (Simulation time: 0 hr 15 min 51 sec) 
Heartbeat CPU 0 instructions: 380000000 cycles: 903273842 heartbeat IPC: 0.301121 cumulative IPC: 0.335387 (Simulation time: 0 hr 16 min 20 sec) 
Heartbeat CPU 0 instructions: 390000001 cycles: 935432279 heartbeat IPC: 0.31096 cumulative IPC: 0.334481 (Simulation time: 0 hr 16 min 50 sec) 
Heartbeat CPU 0 instructions: 400000000 cycles: 968636262 heartbeat IPC: 0.301169 cumulative IPC: 0.333252 (Simulation time: 0 hr 17 min 19 sec) 
Heartbeat CPU 0 instructions: 410000001 cycles: 1000495762 heartbeat IPC: 0.313878 cumulative IPC: 0.33259 (Simulation time: 0 hr 17 min 48 sec) 
Heartbeat CPU 0 instructions: 420000000 cycles: 1032428968 heartbeat IPC: 0.313154 cumulative IPC: 0.331946 (Simulation time: 0 hr 18 min 17 sec) 
Heartbeat CPU 0 instructions: 430000002 cycles: 1064859001 heartbeat IPC: 0.308356 cumulative IPC: 0.331179 (Simulation time: 0 hr 18 min 46 sec) 
Heartbeat CPU 0 instructions: 440000000 cycles: 1098521020 heartbeat IPC: 0.297071 cumulative IPC: 0.330064 (Simulation time: 0 hr 19 min 15 sec) 
Heartbeat CPU 0 instructions: 450000002 cycles: 1132058560 heartbeat IPC: 0.298173 cumulative IPC: 0.329058 (Simulation time: 0 hr 19 min 43 sec) 
Heartbeat CPU 0 instructions: 460000000 cycles: 1164305114 heartbeat IPC: 0.310111 cumulative IPC: 0.328501 (Simulation time: 0 hr 20 min 12 sec) 
Heartbeat CPU 0 instructions: 470000000 cycles: 1196075711 heartbeat IPC: 0.314756 cumulative IPC: 0.328114 (Simulation time: 0 hr 20 min 40 sec) 
Heartbeat CPU 0 instructions: 480000000 cycles: 1228017985 heartbeat IPC: 0.313065 cumulative IPC: 0.327699 (Simulation time: 0 hr 21 min 8 sec) 
Heartbeat CPU 0 instructions: 490000000 cycles: 1259678999 heartbeat IPC: 0.315846 cumulative IPC: 0.327384 (Simulation time: 0 hr 21 min 37 sec) 
Heartbeat CPU 0 instructions: 500000000 cycles: 1291805920 heartbeat IPC: 0.311265 cumulative IPC: 0.326961 (Simulation time: 0 hr 22 min 5 sec) 
Heartbeat CPU 0 instructions: 510000000 cycles: 1328257602 heartbeat IPC: 0.274336 cumulative IPC: 0.325438 (Simulation time: 0 hr 22 min 36 sec) 
Heartbeat CPU 0 instructions: 520000000 cycles: 1357330682 heartbeat IPC: 0.343961 cumulative IPC: 0.325856 (Simulation time: 0 hr 23 min 4 sec) 
Heartbeat CPU 0 instructions: 530000001 cycles: 1389335160 heartbeat IPC: 0.312456 cumulative IPC: 0.325531 (Simulation time: 0 hr 23 min 33 sec) 
Heartbeat CPU 0 instructions: 540000000 cycles: 1419544164 heartbeat IPC: 0.331027 cumulative IPC: 0.325654 (Simulation time: 0 hr 24 min 1 sec) 
Heartbeat CPU 0 instructions: 550000001 cycles: 1449796814 heartbeat IPC: 0.33055 cumulative IPC: 0.325761 (Simulation time: 0 hr 24 min 31 sec) 
Heartbeat CPU 0 instructions: 560000000 cycles: 1475975427 heartbeat IPC: 0.381991 cumulative IPC: 0.326807 (Simulation time: 0 hr 24 min 58 sec) 
Heartbeat CPU 0 instructions: 570000000 cycles: 1507807449 heartbeat IPC: 0.314149 cumulative IPC: 0.326527 (Simulation time: 0 hr 25 min 28 sec) 
Heartbeat CPU 0 instructions: 580000000 cycles: 1537602310 heartbeat IPC: 0.335628 cumulative IPC: 0.326712 (Simulation time: 0 hr 25 min 56 sec) 
Heartbeat CPU 0 instructions: 590000001 cycles: 1563401532 heartbeat IPC: 0.387609 cumulative IPC: 0.327763 (Simulation time: 0 hr 26 min 23 sec) 
Heartbeat CPU 0 instructions: 600000000 cycles: 1591395060 heartbeat IPC: 0.357225 cumulative IPC: 0.328304 (Simulation time: 0 hr 26 min 51 sec) 
Finished CPU 0 instructions: 500000000 cycles: 1522977158 cumulative IPC: 0.328304 (Simulation time: 0 hr 26 min 51 sec) 

CPU 0 Branch Prediction Accuracy: 86.4311% MPKI: 26.2662
Number of Branches: 96788573 Number of Mispredictions: 13133102
Number of LOAD Instructions: 164682285
Number of LOAD Instructions (ROI): 164682285
Number of STORE Instructions: 78194750
Number of STORE Instructions (ROI): 78194750
Total Destination Memory Operands: 83268534
Total Destination Memory Operands (ROI): 83268534
Total Source Memory Operands: 164712438
Total Source Memory Operands (ROI): 164712438
Number of DEPENDED LOADS: 7046012
Number of DEPENDED LOADS (ROI): 7046012
Number of SQ_ADDED: 83268522
Number of SQ_ADDED (ROI): 83268522
Number of LQ_ADDED: 236478986
Number of LQ_ADDED (ROI): 236478986
Number of Instructions read from trace: 600000066

ChampSim completed all CPUs

Region of Interest Statistics

CPU 0 cumulative IPC: 0.328304 instructions: 500000000 cycles: 1522977158
ITLB TOTAL     ACCESS:  100543009  HIT:  100338563  MISS:     204446
ITLB LOAD      ACCESS:  100543009  HIT:  100338563  MISS:     204446
ITLB RFO       ACCESS:          0  HIT:          0  MISS:          0
ITLB PREFETCH  ACCESS:          0  HIT:          0  MISS:          0
ITLB WRITEBACK ACCESS:          0  HIT:          0  MISS:          0
ITLB PREFETCH  REQUESTED:          0  ISSUED:          0  USEFUL:          0  USELESS:          0
ITLB TOTAL MSHR MERGED:     172420
ITLB LOAD MSHR MERGED:     172420
ITLB RFO MSHR MERGED:          0
ITLB PREFETCH MSHR MERGED:          0
ITLB WRITEBACK MSHR MERGED:          0
ITLB TOTAL ACCESSES:  100715429 HITS:  100338563 MISSES:     376866
ITLB LOAD ACCESSES:  100715429 HITS:  100338563 MISSES:     376866
ITLB RFO ACCESSES:          0 HITS:          0 MISSES:          0
ITLB PREFETCH ACCESSES:          0 HITS:          0 MISSES:          0
ITLB WRITEBACK ACCESSES:          0 HITS:          0 MISSES:          0
ITLB RQ ACCESS:  500000057
ITLB RQ TO_CACHE:  100715429
ITLB RQ MERGED:  399284628
ITLB RQ FORWARD:          0
ITLB WQ ACCESS:          0
ITLB WQ TO_CACHE:          0
ITLB WQ MERGED:          0
ITLB WQ FORWARD:          0
DTLB TOTAL     ACCESS:  165375805  HIT:  164741458  MISS:     634347
DTLB LOAD      ACCESS:  106319132  HIT:  105749115  MISS:     570017
DTLB RFO       ACCESS:   59056673  HIT:   58992343  MISS:      64330
DTLB PREFETCH  ACCESS:          0  HIT:          0  MISS:          0
DTLB WRITEBACK ACCESS:          0  HIT:          0  MISS:          0
DTLB PREFETCH  REQUESTED:          0  ISSUED:          0  USEFUL:          0  USELESS:          0
DTLB TOTAL MSHR MERGED:      99095
DTLB LOAD MSHR MERGED:      58945
DTLB RFO MSHR MERGED:      40150
DTLB PREFETCH MSHR MERGED:          0
DTLB WRITEBACK MSHR MERGED:          0
DTLB TOTAL ACCESSES:  165474900 HITS:  164741458 MISSES:     733442
DTLB LOAD ACCESSES:  106378077 HITS:  105749115 MISSES:     628962
DTLB RFO ACCESSES:   59096823 HITS:   58992343 MISSES:     104480
DTLB PREFETCH ACCESSES:          0 HITS:          0 MISSES:          0
DTLB WRITEBACK ACCESSES:          0 HITS:          0 MISSES:          0
DTLB RQ ACCESS:  200324875
DTLB RQ TO_CACHE:  165474900
DTLB RQ MERGED:   34849975
DTLB RQ FORWARD:          0
DTLB WQ ACCESS:          0
DTLB WQ TO_CACHE:          0
DTLB WQ MERGED:          0
DTLB WQ FORWARD:          0
L1D TOTAL     ACCESS:  281921852  HIT:  274012432  MISS:    7909420
L1D LOAD      ACCESS:  110449758  HIT:  107168955  MISS:    3280803
L1D RFO       ACCESS:   67149359  HIT:   66259935  MISS:     889424
L1D PREFETCH  ACCESS:  104322735  HIT:  100583542  MISS:    3739193
L1D WRITEBACK ACCESS:          0  HIT:          0  MISS:          0
L1D PREFETCH  REQUESTED:  110853719  ISSUED:  109154257  USEFUL:    1659620  USELESS:    2079537
L1D TOTAL MSHR MERGED:    2866365
L1D LOAD MSHR MERGED:     505000
L1D RFO MSHR MERGED:    1834996
L1D PREFETCH MSHR MERGED:     526369
L1D WRITEBACK MSHR MERGED:          0
L1D TOTAL ACCESSES:  284815552 HITS:  274039767 MISSES:   10775785
L1D LOAD ACCESSES:  110855122 HITS:  107170358 MISSES:    3684764
L1D RFO ACCESSES:   68973638 HITS:   66259935 MISSES:    2713703
L1D PREFETCH ACCESSES:  104986792 HITS:  100609474 MISSES:    4377318
L1D WRITEBACK ACCESSES:          0 HITS:          0 MISSES:          0
L1D RQ ACCESS:  130772272
L1D RQ TO_CACHE:  110853722
L1D RQ MERGED:   19917147
L1D RQ FORWARD:          0
L1D WQ ACCESS:   69552603
L1D WQ TO_CACHE:   68973639
L1D WQ MERGED:     578964
L1D WQ FORWARD:      27335
L1I TOTAL     ACCESS:  126581744  HIT:  122343227  MISS:    4238517
L1I LOAD      ACCESS:  126581744  HIT:  122343227  MISS:    4238517
L1I RFO       ACCESS:          0  HIT:          0  MISS:          0
L1I PREFETCH  ACCESS:          0  HIT:          0  MISS:          0
L1I WRITEBACK ACCESS:          0  HIT:          0  MISS:          0
L1I PREFETCH  REQUESTED:          0  ISSUED:          0  USEFUL:          0  USELESS:          0
L1I TOTAL MSHR MERGED:    1843225
L1I LOAD MSHR MERGED:    1843225
L1I RFO MSHR MERGED:          0
L1I PREFETCH MSHR MERGED:          0
L1I WRITEBACK MSHR MERGED:          0
L1I TOTAL ACCESSES:  128424972 HITS:  122343227 MISSES:    6081745
L1I LOAD ACCESSES:  128424972 HITS:  122343227 MISSES:    6081745
L1I RFO ACCESSES:          0 HITS:          0 MISSES:          0
L1I PREFETCH ACCESSES:          0 HITS:          0 MISSES:          0
L1I WRITEBACK ACCESSES:          0 HITS:          0 MISSES:          0
L1I RQ ACCESS:  500000057
L1I RQ TO_CACHE:  128424972
L1I RQ MERGED:  371575085
L1I RQ FORWARD:          0
L1I WQ ACCESS:          0
L1I WQ TO_CACHE:          0
L1I WQ MERGED:          0
L1I WQ FORWARD:          0
L2C TOTAL     ACCESS:   14905478  HIT:   11159040  MISS:    3746438
L2C LOAD      ACCESS:    7418078  HIT:    5098612  MISS:    2319466
L2C RFO       ACCESS:     878611  HIT:     409926  MISS:     468685
L2C PREFETCH  ACCESS:    4569544  HIT:    3628522  MISS:     941022
L2C WRITEBACK ACCESS:    2039245  HIT:    2021980  MISS:      17265
L2C PREFETCH  REQUESTED:     842815  ISSUED:     842815  USEFUL:     203635  USELESS:     737092
L2C TOTAL MSHR MERGED:       6902
L2C LOAD MSHR MERGED:        691
L2C RFO MSHR MERGED:          0
L2C PREFETCH MSHR MERGED:       6211
L2C WRITEBACK MSHR MERGED:          0
L2C TOTAL ACCESSES:   14913269 HITS:   11159480 MISSES:    3753789
L2C LOAD ACCESSES:    7418281 HITS:    5098815 MISSES:    2319466
L2C RFO ACCESSES:     878707 HITS:     410022 MISSES:     468685
L2C PREFETCH ACCESSES:    4577036 HITS:    3628663 MISSES:     948373
L2C WRITEBACK ACCESSES:    2039245 HITS:    2021980 MISSES:      17265
L2C RQ ACCESS:    8296991
L2C RQ TO_CACHE:    8296692
L2C RQ MERGED:          0
L2C RQ FORWARD:          0
L2C WQ ACCESS:    2039245
L2C WQ TO_CACHE:    2039245
L2C WQ MERGED:          0
L2C WQ FORWARD:        440
LLC TOTAL     ACCESS:    4609790  HIT:    2626715  MISS:    1983075
LLC LOAD      ACCESS:    2318763  HIT:     882472  MISS:    1436291
LLC RFO       ACCESS:     468675  HIT:     430486  MISS:      38189
LLC PREFETCH  ACCESS:     942055  HIT:     512066  MISS:     429989
LLC WRITEBACK ACCESS:     880297  HIT:     801691  MISS:      78606
LLC PREFETCH  REQUESTED:          0  ISSUED:          0  USEFUL:       8845  USELESS:     420770
LLC TOTAL MSHR MERGED:         97
LLC LOAD MSHR MERGED:         35
LLC RFO MSHR MERGED:          0
LLC PREFETCH MSHR MERGED:         62
LLC WRITEBACK MSHR MERGED:          0
LLC TOTAL ACCESSES:    4609917 HITS:    2626745 MISSES:    1983172
LLC LOAD ACCESSES:    2318775 HITS:     882484 MISSES:    1436291
LLC RFO ACCESSES:     468685 HITS:     430496 MISSES:      38189
LLC PREFETCH ACCESSES:     942160 HITS:     512074 MISSES:     430086
LLC WRITEBACK ACCESSES:     880297 HITS:     801691 MISSES:      78606
LLC 0 RQ ACCESS:    2787460
LLC 0 RQ TO_CACHE:    2787438
LLC 0 RQ MERGED:          0
LLC 0 RQ FORWARD:          0
LLC WQ ACCESS:     880297
LLC WQ TO_CACHE:     880297
LLC WQ MERGED:          0
LLC WQ FORWARD:         30
Major fault: 0 Minor fault: 12862
CPU 0 L1D next line prefetcher final stats
CPU 0 L2C PC-based stride prefetcher final stats
All Misses: 2235033
All Hits: 3191763
SD Algo Stats - Switches: 41 SRR-Repls: 915543 BRR-Repls: 648547

DRAM Statistics
 CHANNEL 0
 RQ ROW_BUFFER_HIT:     603508  ROW_BUFFER_MISS:    1297789
 DBUS_CONGESTED:     603337
 WQ ROW_BUFFER_HIT:       5146  ROW_BUFFER_MISS:     127812  FULL:          0

 AVG_CONGESTED_CYCLE: 13
LOADS RETIRED: 136549171
INSTR RETIRED: 500000000
