
*** ChampSim Multicore Out-of-Order Simulator ***

Warmup Instructions: 100000000
Simulation Instructions: 500000000
Number of CPUs: 1
LLC sets: 2048
LLC ways: 16
Clean RRIP Policies: 2213230222132302 Dirty RRIP Policies: 2203130222031302 PSEL Width: 10 Track Set: 4294967295 PSEL Mask: 1 Demote Mask: 3042100030421000DS Algo: 0Window size: 0
Off-chip DRAM Size: 4096 MB Channels: 1 Width: 64-bit Data Rate: 1600 MT/s

CPU 0 runs /mnt/beegfs/iconst01/spec2017/cactuBSSN.trace.gz
NOT SORTED
TRACE STRING: /mnt/beegfs/iconst01/spec2017/cactuBSSN.trace.gz
SORTED
TRACE STRING: /mnt/beegfs/iconst01/spec2017/cactuBSSN.trace.gz
INITIAL
TRACE STRING: /mnt/beegfs/iconst01/spec2017/cactuBSSN.trace.gz

champsim_seed used: 838

CPU 0 L1D next line prefetcher
CPU 0 L2C IP-based stride prefetcher
Initialize DRRIP state
Assign rand_sets[0]: 454  LLC: 2048
rand_sets[0]: 454
Assign rand_sets[1]: 1662  LLC: 2048
rand_sets[1]: 1662
Assign rand_sets[2]: 1921  LLC: 2048
rand_sets[2]: 1921
Assign rand_sets[3]: 1131  LLC: 2048
rand_sets[3]: 1131
Assign rand_sets[4]: 331  LLC: 2048
rand_sets[4]: 331
Assign rand_sets[5]: 1531  LLC: 2048
rand_sets[5]: 1531
Assign rand_sets[6]: 482  LLC: 2048
rand_sets[6]: 482
Assign rand_sets[7]: 1275  LLC: 2048
rand_sets[7]: 1275
Assign rand_sets[8]: 1876  LLC: 2048
rand_sets[8]: 1876
Assign rand_sets[9]: 2038  LLC: 2048
rand_sets[9]: 2038
Assign rand_sets[10]: 701  LLC: 2048
rand_sets[10]: 701
Assign rand_sets[11]: 479  LLC: 2048
rand_sets[11]: 479
Assign rand_sets[12]: 892  LLC: 2048
rand_sets[12]: 892
Assign rand_sets[13]: 1820  LLC: 2048
rand_sets[13]: 1820
Assign rand_sets[14]: 1505  LLC: 2048
rand_sets[14]: 1505
Assign rand_sets[15]: 1159  LLC: 2048
rand_sets[15]: 1159
Assign rand_sets[16]: 513  LLC: 2048
rand_sets[16]: 513
Assign rand_sets[17]: 703  LLC: 2048
rand_sets[17]: 703
Assign rand_sets[18]: 561  LLC: 2048
rand_sets[18]: 561
Assign rand_sets[19]: 990  LLC: 2048
rand_sets[19]: 990
Assign rand_sets[20]: 342  LLC: 2048
rand_sets[20]: 342
Assign rand_sets[21]: 882  LLC: 2048
rand_sets[21]: 882
Assign rand_sets[22]: 15  LLC: 2048
rand_sets[22]: 15
Assign rand_sets[23]: 71  LLC: 2048
rand_sets[23]: 71
Assign rand_sets[24]: 1127  LLC: 2048
rand_sets[24]: 1127
Assign rand_sets[25]: 1382  LLC: 2048
rand_sets[25]: 1382
Assign rand_sets[26]: 647  LLC: 2048
rand_sets[26]: 647
Assign rand_sets[27]: 857  LLC: 2048
rand_sets[27]: 857
Assign rand_sets[28]: 1450  LLC: 2048
rand_sets[28]: 1450
Assign rand_sets[29]: 1160  LLC: 2048
rand_sets[29]: 1160
Assign rand_sets[30]: 1852  LLC: 2048
rand_sets[30]: 1852
Assign rand_sets[31]: 1881  LLC: 2048
rand_sets[31]: 1881
Assign rand_sets[32]: 1770  LLC: 2048
rand_sets[32]: 1770
Assign rand_sets[33]: 1622  LLC: 2048
rand_sets[33]: 1622
Assign rand_sets[34]: 275  LLC: 2048
rand_sets[34]: 275
Assign rand_sets[35]: 635  LLC: 2048
rand_sets[35]: 635
Assign rand_sets[36]: 466  LLC: 2048
rand_sets[36]: 466
Assign rand_sets[37]: 1413  LLC: 2048
rand_sets[37]: 1413
Assign rand_sets[38]: 417  LLC: 2048
rand_sets[38]: 417
Assign rand_sets[39]: 472  LLC: 2048
rand_sets[39]: 472
Assign rand_sets[40]: 1340  LLC: 2048
rand_sets[40]: 1340
Assign rand_sets[41]: 852  LLC: 2048
rand_sets[41]: 852
Assign rand_sets[42]: 1365  LLC: 2048
rand_sets[42]: 1365
Assign rand_sets[43]: 47  LLC: 2048
rand_sets[43]: 47
Assign rand_sets[44]: 823  LLC: 2048
rand_sets[44]: 823
Assign rand_sets[45]: 686  LLC: 2048
rand_sets[45]: 686
Assign rand_sets[46]: 1637  LLC: 2048
rand_sets[46]: 1637
Assign rand_sets[47]: 1115  LLC: 2048
rand_sets[47]: 1115
Assign rand_sets[48]: 986  LLC: 2048
rand_sets[48]: 986
Assign rand_sets[49]: 258  LLC: 2048
rand_sets[49]: 258
Assign rand_sets[50]: 633  LLC: 2048
rand_sets[50]: 633
Assign rand_sets[51]: 920  LLC: 2048
rand_sets[51]: 920
Assign rand_sets[52]: 204  LLC: 2048
rand_sets[52]: 204
Assign rand_sets[53]: 227  LLC: 2048
rand_sets[53]: 227
Assign rand_sets[54]: 1818  LLC: 2048
rand_sets[54]: 1818
Assign rand_sets[55]: 886  LLC: 2048
rand_sets[55]: 886
Assign rand_sets[56]: 1422  LLC: 2048
rand_sets[56]: 1422
Assign rand_sets[57]: 607  LLC: 2048
rand_sets[57]: 607
Assign rand_sets[58]: 217  LLC: 2048
rand_sets[58]: 217
Assign rand_sets[59]: 1945  LLC: 2048
rand_sets[59]: 1945
Assign rand_sets[60]: 143  LLC: 2048
rand_sets[60]: 143
Assign rand_sets[61]: 1311  LLC: 2048
rand_sets[61]: 1311
Assign rand_sets[62]: 319  LLC: 2048
rand_sets[62]: 319
Assign rand_sets[63]: 1846  LLC: 2048
rand_sets[63]: 1846
 CLEAN-RRIP-POLICY-1: 2-2-1-3-2-3-0-2- CLEAN-RRIP-POLICY-2: 2-2-1-3-2-3-0-2-
 DIRTY-RRIP-POLICY-1: 2-2-0-3-1-3-0-2- DIRTY-RRIP-POLICY-2: 2-2-0-3-1-3-0-2-
 PSEL width: 10
Heartbeat CPU 0 instructions: 10000000 cycles: 6588002 heartbeat IPC: 1.51791 cumulative IPC: 1.51791 (Simulation time: 0 hr 0 min 24 sec) 
Heartbeat CPU 0 instructions: 20000000 cycles: 13179595 heartbeat IPC: 1.51708 cumulative IPC: 1.5175 (Simulation time: 0 hr 0 min 48 sec) 
Heartbeat CPU 0 instructions: 30000003 cycles: 19772915 heartbeat IPC: 1.51669 cumulative IPC: 1.51723 (Simulation time: 0 hr 1 min 11 sec) 
Heartbeat CPU 0 instructions: 40000000 cycles: 26364655 heartbeat IPC: 1.51705 cumulative IPC: 1.51718 (Simulation time: 0 hr 1 min 35 sec) 
Heartbeat CPU 0 instructions: 50000001 cycles: 32957329 heartbeat IPC: 1.51684 cumulative IPC: 1.51711 (Simulation time: 0 hr 1 min 59 sec) 
Heartbeat CPU 0 instructions: 60000000 cycles: 39556152 heartbeat IPC: 1.51542 cumulative IPC: 1.51683 (Simulation time: 0 hr 2 min 22 sec) 
Heartbeat CPU 0 instructions: 70000003 cycles: 46154511 heartbeat IPC: 1.51553 cumulative IPC: 1.51664 (Simulation time: 0 hr 2 min 46 sec) 
Heartbeat CPU 0 instructions: 80000000 cycles: 52752564 heartbeat IPC: 1.5156 cumulative IPC: 1.51651 (Simulation time: 0 hr 3 min 10 sec) 
Heartbeat CPU 0 instructions: 90000002 cycles: 59348251 heartbeat IPC: 1.51614 cumulative IPC: 1.51647 (Simulation time: 0 hr 3 min 34 sec) 
Heartbeat CPU 0 instructions: 100000000 cycles: 65943316 heartbeat IPC: 1.51628 cumulative IPC: 1.51645 (Simulation time: 0 hr 3 min 57 sec) 

Warmup complete CPU 0 instructions: 100000002 cycles: 65943317 (Simulation time: 0 hr 3 min 57 sec) 

Heartbeat CPU 0 instructions: 110000000 cycles: 79195801 heartbeat IPC: 0.754575 cumulative IPC: 0.754575 (Simulation time: 0 hr 4 min 26 sec) 
Heartbeat CPU 0 instructions: 120000000 cycles: 92404856 heartbeat IPC: 0.757056 cumulative IPC: 0.755814 (Simulation time: 0 hr 4 min 55 sec) 
Heartbeat CPU 0 instructions: 130000001 cycles: 105690521 heartbeat IPC: 0.752691 cumulative IPC: 0.75477 (Simulation time: 0 hr 5 min 24 sec) 
Heartbeat CPU 0 instructions: 140000000 cycles: 118864612 heartbeat IPC: 0.759066 cumulative IPC: 0.755839 (Simulation time: 0 hr 5 min 53 sec) 
Heartbeat CPU 0 instructions: 150000001 cycles: 132060791 heartbeat IPC: 0.757795 cumulative IPC: 0.75623 (Simulation time: 0 hr 6 min 22 sec) 
Heartbeat CPU 0 instructions: 160000000 cycles: 145298413 heartbeat IPC: 0.755423 cumulative IPC: 0.756095 (Simulation time: 0 hr 6 min 51 sec) 
Heartbeat CPU 0 instructions: 170000000 cycles: 158525613 heartbeat IPC: 0.756018 cumulative IPC: 0.756084 (Simulation time: 0 hr 7 min 20 sec) 
Heartbeat CPU 0 instructions: 180000000 cycles: 171738247 heartbeat IPC: 0.756851 cumulative IPC: 0.75618 (Simulation time: 0 hr 7 min 49 sec) 
Heartbeat CPU 0 instructions: 190000000 cycles: 184908656 heartbeat IPC: 0.759278 cumulative IPC: 0.756523 (Simulation time: 0 hr 8 min 18 sec) 
Heartbeat CPU 0 instructions: 200000000 cycles: 198166048 heartbeat IPC: 0.754296 cumulative IPC: 0.7563 (Simulation time: 0 hr 8 min 47 sec) 
Heartbeat CPU 0 instructions: 210000002 cycles: 211387234 heartbeat IPC: 0.756362 cumulative IPC: 0.756305 (Simulation time: 0 hr 9 min 16 sec) 
Heartbeat CPU 0 instructions: 220000000 cycles: 224569514 heartbeat IPC: 0.758594 cumulative IPC: 0.756495 (Simulation time: 0 hr 9 min 45 sec) 
Heartbeat CPU 0 instructions: 230000003 cycles: 237824152 heartbeat IPC: 0.754453 cumulative IPC: 0.756338 (Simulation time: 0 hr 10 min 14 sec) 
Heartbeat CPU 0 instructions: 240000000 cycles: 251020452 heartbeat IPC: 0.757788 cumulative IPC: 0.756441 (Simulation time: 0 hr 10 min 43 sec) 
Heartbeat CPU 0 instructions: 250000001 cycles: 264252776 heartbeat IPC: 0.755725 cumulative IPC: 0.756394 (Simulation time: 0 hr 11 min 12 sec) 
Heartbeat CPU 0 instructions: 260000000 cycles: 277471672 heartbeat IPC: 0.756493 cumulative IPC: 0.7564 (Simulation time: 0 hr 11 min 41 sec) 
Heartbeat CPU 0 instructions: 270000003 cycles: 290714016 heartbeat IPC: 0.755154 cumulative IPC: 0.756326 (Simulation time: 0 hr 12 min 9 sec) 
Heartbeat CPU 0 instructions: 280000000 cycles: 303924230 heartbeat IPC: 0.75699 cumulative IPC: 0.756363 (Simulation time: 0 hr 12 min 38 sec) 
Heartbeat CPU 0 instructions: 290000000 cycles: 317106680 heartbeat IPC: 0.758584 cumulative IPC: 0.75648 (Simulation time: 0 hr 13 min 7 sec) 
Heartbeat CPU 0 instructions: 300000000 cycles: 330369333 heartbeat IPC: 0.753997 cumulative IPC: 0.756355 (Simulation time: 0 hr 13 min 36 sec) 
Heartbeat CPU 0 instructions: 310000001 cycles: 343557125 heartbeat IPC: 0.758277 cumulative IPC: 0.756447 (Simulation time: 0 hr 14 min 5 sec) 
Heartbeat CPU 0 instructions: 320000000 cycles: 356756213 heartbeat IPC: 0.757628 cumulative IPC: 0.7565 (Simulation time: 0 hr 14 min 33 sec) 
Heartbeat CPU 0 instructions: 330000002 cycles: 369961527 heartbeat IPC: 0.757271 cumulative IPC: 0.756534 (Simulation time: 0 hr 15 min 2 sec) 
Heartbeat CPU 0 instructions: 340000000 cycles: 383208769 heartbeat IPC: 0.754874 cumulative IPC: 0.756464 (Simulation time: 0 hr 15 min 31 sec) 
Heartbeat CPU 0 instructions: 350000000 cycles: 396470521 heartbeat IPC: 0.754048 cumulative IPC: 0.756367 (Simulation time: 0 hr 16 min 0 sec) 
Heartbeat CPU 0 instructions: 360000000 cycles: 409693098 heartbeat IPC: 0.756282 cumulative IPC: 0.756364 (Simulation time: 0 hr 16 min 29 sec) 
Heartbeat CPU 0 instructions: 370000002 cycles: 422976779 heartbeat IPC: 0.752804 cumulative IPC: 0.756232 (Simulation time: 0 hr 16 min 58 sec) 
Heartbeat CPU 0 instructions: 380000000 cycles: 436196807 heartbeat IPC: 0.756428 cumulative IPC: 0.756239 (Simulation time: 0 hr 17 min 26 sec) 
Heartbeat CPU 0 instructions: 390000000 cycles: 449387447 heartbeat IPC: 0.758113 cumulative IPC: 0.756303 (Simulation time: 0 hr 17 min 55 sec) 
Heartbeat CPU 0 instructions: 400000000 cycles: 462601754 heartbeat IPC: 0.756756 cumulative IPC: 0.756318 (Simulation time: 0 hr 18 min 24 sec) 
Heartbeat CPU 0 instructions: 410000001 cycles: 475866168 heartbeat IPC: 0.753897 cumulative IPC: 0.75624 (Simulation time: 0 hr 18 min 53 sec) 
Heartbeat CPU 0 instructions: 420000000 cycles: 489064511 heartbeat IPC: 0.757671 cumulative IPC: 0.756284 (Simulation time: 0 hr 19 min 21 sec) 
Heartbeat CPU 0 instructions: 430000001 cycles: 502265452 heartbeat IPC: 0.757522 cumulative IPC: 0.756322 (Simulation time: 0 hr 19 min 50 sec) 
Heartbeat CPU 0 instructions: 440000000 cycles: 515440318 heartbeat IPC: 0.759021 cumulative IPC: 0.756401 (Simulation time: 0 hr 20 min 19 sec) 
Heartbeat CPU 0 instructions: 450000002 cycles: 528762939 heartbeat IPC: 0.750603 cumulative IPC: 0.756234 (Simulation time: 0 hr 20 min 48 sec) 
Heartbeat CPU 0 instructions: 460000000 cycles: 541990456 heartbeat IPC: 0.756 cumulative IPC: 0.756228 (Simulation time: 0 hr 21 min 17 sec) 
Heartbeat CPU 0 instructions: 470000003 cycles: 555197388 heartbeat IPC: 0.757178 cumulative IPC: 0.756253 (Simulation time: 0 hr 21 min 45 sec) 
Heartbeat CPU 0 instructions: 480000000 cycles: 568451419 heartbeat IPC: 0.754487 cumulative IPC: 0.756207 (Simulation time: 0 hr 22 min 14 sec) 
Heartbeat CPU 0 instructions: 490000000 cycles: 581675841 heartbeat IPC: 0.756177 cumulative IPC: 0.756206 (Simulation time: 0 hr 22 min 43 sec) 
Heartbeat CPU 0 instructions: 500000000 cycles: 594878463 heartbeat IPC: 0.757425 cumulative IPC: 0.756236 (Simulation time: 0 hr 23 min 12 sec) 
Heartbeat CPU 0 instructions: 510000001 cycles: 608064056 heartbeat IPC: 0.758404 cumulative IPC: 0.756289 (Simulation time: 0 hr 23 min 40 sec) 
Heartbeat CPU 0 instructions: 520000000 cycles: 621357453 heartbeat IPC: 0.752253 cumulative IPC: 0.756193 (Simulation time: 0 hr 24 min 9 sec) 
Heartbeat CPU 0 instructions: 530000000 cycles: 634613931 heartbeat IPC: 0.754348 cumulative IPC: 0.756149 (Simulation time: 0 hr 24 min 38 sec) 
Heartbeat CPU 0 instructions: 540000000 cycles: 647853475 heartbeat IPC: 0.755313 cumulative IPC: 0.75613 (Simulation time: 0 hr 25 min 7 sec) 
Heartbeat CPU 0 instructions: 550000002 cycles: 661116388 heartbeat IPC: 0.753982 cumulative IPC: 0.756083 (Simulation time: 0 hr 25 min 35 sec) 
Heartbeat CPU 0 instructions: 560000000 cycles: 674316768 heartbeat IPC: 0.757554 cumulative IPC: 0.756115 (Simulation time: 0 hr 26 min 4 sec) 
Heartbeat CPU 0 instructions: 570000001 cycles: 687527557 heartbeat IPC: 0.756957 cumulative IPC: 0.756132 (Simulation time: 0 hr 26 min 33 sec) 
Heartbeat CPU 0 instructions: 580000000 cycles: 700744916 heartbeat IPC: 0.756581 cumulative IPC: 0.756142 (Simulation time: 0 hr 27 min 2 sec) 
Heartbeat CPU 0 instructions: 590000003 cycles: 713984761 heartbeat IPC: 0.755296 cumulative IPC: 0.756124 (Simulation time: 0 hr 27 min 30 sec) 
Heartbeat CPU 0 instructions: 600000000 cycles: 727254285 heartbeat IPC: 0.753606 cumulative IPC: 0.756074 (Simulation time: 0 hr 27 min 59 sec) 
Finished CPU 0 instructions: 500000000 cycles: 661310978 cumulative IPC: 0.756074 (Simulation time: 0 hr 27 min 59 sec) 

CPU 0 Branch Prediction Accuracy: 99.968% MPKI: 0.002246
Number of Branches: 3513331 Number of Mispredictions: 1123
Number of LOAD Instructions: 287251172
Number of LOAD Instructions (ROI): 287251172
Number of STORE Instructions: 51060820
Number of STORE Instructions (ROI): 51060820
Total Destination Memory Operands: 51166221
Total Destination Memory Operands (ROI): 51166221
Total Source Memory Operands: 287251172
Total Source Memory Operands (ROI): 287251172
Number of DEPENDED LOADS: 9555421
Number of DEPENDED LOADS (ROI): 9555421
Number of SQ_ADDED: 51166208
Number of SQ_ADDED (ROI): 51166208
Number of LQ_ADDED: 290419892
Number of LQ_ADDED (ROI): 290419892
Number of Instructions read from trace: 600000257

ChampSim completed all CPUs

Region of Interest Statistics

CPU 0 cumulative IPC: 0.756074 instructions: 500000000 cycles: 661310978
ITLB TOTAL     ACCESS:  108956473  HIT:  108956473  MISS:          0
ITLB LOAD      ACCESS:  108956473  HIT:  108956473  MISS:          0
ITLB RFO       ACCESS:          0  HIT:          0  MISS:          0
ITLB PREFETCH  ACCESS:          0  HIT:          0  MISS:          0
ITLB WRITEBACK ACCESS:          0  HIT:          0  MISS:          0
ITLB PREFETCH  REQUESTED:          0  ISSUED:          0  USEFUL:          0  USELESS:          0
ITLB TOTAL MSHR MERGED:          0
ITLB LOAD MSHR MERGED:          0
ITLB RFO MSHR MERGED:          0
ITLB PREFETCH MSHR MERGED:          0
ITLB WRITEBACK MSHR MERGED:          0
ITLB TOTAL ACCESSES:  108956473 HITS:  108956473 MISSES:          0
ITLB LOAD ACCESSES:  108956473 HITS:  108956473 MISSES:          0
ITLB RFO ACCESSES:          0 HITS:          0 MISSES:          0
ITLB PREFETCH ACCESSES:          0 HITS:          0 MISSES:          0
ITLB WRITEBACK ACCESSES:          0 HITS:          0 MISSES:          0
ITLB RQ ACCESS:  500000001
ITLB RQ TO_CACHE:  108956473
ITLB RQ MERGED:  391043528
ITLB RQ FORWARD:          0
ITLB WQ ACCESS:          0
ITLB WQ TO_CACHE:          0
ITLB WQ MERGED:          0
ITLB WQ FORWARD:          0
DTLB TOTAL     ACCESS:  171132068  HIT:  161115746  MISS:   10016322
DTLB LOAD      ACCESS:  143472771  HIT:  135596699  MISS:    7876072
DTLB RFO       ACCESS:   27659297  HIT:   25519047  MISS:    2140250
DTLB PREFETCH  ACCESS:          0  HIT:          0  MISS:          0
DTLB WRITEBACK ACCESS:          0  HIT:          0  MISS:          0
DTLB PREFETCH  REQUESTED:          0  ISSUED:          0  USEFUL:          0  USELESS:          0
DTLB TOTAL MSHR MERGED:     360424
DTLB LOAD MSHR MERGED:     360424
DTLB RFO MSHR MERGED:          0
DTLB PREFETCH MSHR MERGED:          0
DTLB WRITEBACK MSHR MERGED:          0
DTLB TOTAL ACCESSES:  171492492 HITS:  161115746 MISSES:   10376746
DTLB LOAD ACCESSES:  143833195 HITS:  135596699 MISSES:    8236496
DTLB RFO ACCESSES:   27659297 HITS:   25519047 MISSES:    2140250
DTLB PREFETCH ACCESSES:          0 HITS:          0 MISSES:          0
DTLB WRITEBACK ACCESSES:          0 HITS:          0 MISSES:          0
DTLB RQ ACCESS:  274072396
DTLB RQ TO_CACHE:  171492492
DTLB RQ MERGED:  102579904
DTLB RQ FORWARD:          0
DTLB WQ ACCESS:          0
DTLB WQ TO_CACHE:          0
DTLB WQ MERGED:          0
DTLB WQ FORWARD:          0
L1D TOTAL     ACCESS:  350963103  HIT:  283763874  MISS:   67199229
L1D LOAD      ACCESS:  175628417  HIT:  142589239  MISS:   33039178
L1D RFO       ACCESS:   42020501  HIT:   39215058  MISS:    2805443
L1D PREFETCH  ACCESS:  133314185  HIT:  101959577  MISS:   31354608
L1D WRITEBACK ACCESS:          0  HIT:          0  MISS:          0
L1D PREFETCH  REQUESTED:  176232371  ISSUED:  175294192  USEFUL:    2180712  USELESS:   29173898
L1D TOTAL MSHR MERGED:    1482506
L1D LOAD MSHR MERGED:     703967
L1D RFO MSHR MERGED:     348629
L1D PREFETCH MSHR MERGED:     429910
L1D WRITEBACK MSHR MERGED:          0
L1D TOTAL ACCESSES:  352557456 HITS:  283875721 MISSES:   68681735
L1D LOAD ACCESSES:  176238358 HITS:  142595226 MISSES:   33643132
L1D RFO ACCESSES:   42368455 HITS:   39215058 MISSES:    3153397
L1D PREFETCH ACCESSES:  133950643 HITS:  102065437 MISSES:   31885206
L1D WRITEBACK ACCESSES:          0 HITS:          0 MISSES:          0
L1D RQ ACCESS:  231433923
L1D RQ TO_CACHE:  176232371
L1D RQ MERGED:   55195565
L1D RQ FORWARD:          0
L1D WQ ACCESS:   42638475
L1D WQ TO_CACHE:   42368455
L1D WQ MERGED:     270020
L1D WQ FORWARD:     111847
L1I TOTAL     ACCESS:  109348922  HIT:   77833218  MISS:   31515704
L1I LOAD      ACCESS:  109348922  HIT:   77833218  MISS:   31515704
L1I RFO       ACCESS:          0  HIT:          0  MISS:          0
L1I PREFETCH  ACCESS:          0  HIT:          0  MISS:          0
L1I WRITEBACK ACCESS:          0  HIT:          0  MISS:          0
L1I PREFETCH  REQUESTED:          0  ISSUED:          0  USEFUL:          0  USELESS:          0
L1I TOTAL MSHR MERGED:   30750710
L1I LOAD MSHR MERGED:   30750710
L1I RFO MSHR MERGED:          0
L1I PREFETCH MSHR MERGED:          0
L1I WRITEBACK MSHR MERGED:          0
L1I TOTAL ACCESSES:  140099634 HITS:   77833218 MISSES:   62266416
L1I LOAD ACCESSES:  140099634 HITS:   77833218 MISSES:   62266416
L1I RFO ACCESSES:          0 HITS:          0 MISSES:          0
L1I PREFETCH ACCESSES:          0 HITS:          0 MISSES:          0
L1I WRITEBACK ACCESSES:          0 HITS:          0 MISSES:          0
L1I RQ ACCESS:  500000003
L1I RQ TO_CACHE:  140099634
L1I RQ MERGED:  359900369
L1I RQ FORWARD:          0
L1I WQ ACCESS:          0
L1I WQ TO_CACHE:          0
L1I WQ MERGED:          0
L1I WQ FORWARD:          0
L2C TOTAL     ACCESS:  113702346  HIT:  110699611  MISS:    3002735
L2C LOAD      ACCESS:   64453008  HIT:   63892325  MISS:     560683
L2C RFO       ACCESS:    2802874  HIT:    2193363  MISS:     609511
L2C PREFETCH  ACCESS:   43285486  HIT:   41459212  MISS:    1826274
L2C WRITEBACK ACCESS:    3160978  HIT:    3154711  MISS:       6267
L2C PREFETCH  REQUESTED:   15134373  ISSUED:   14621063  USEFUL:    1701038  USELESS:     125243
L2C TOTAL MSHR MERGED:      12659
L2C LOAD MSHR MERGED:          0
L2C RFO MSHR MERGED:          0
L2C PREFETCH MSHR MERGED:      12659
L2C WRITEBACK MSHR MERGED:          0
L2C TOTAL ACCESSES:  113903238 HITS:  110705481 MISSES:    3197757
L2C LOAD ACCESSES:   64454870 HITS:   63894186 MISSES:     560684
L2C RFO ACCESSES:    2804768 HITS:    2195257 MISSES:     609511
L2C PREFETCH ACCESSES:   43482622 HITS:   41461327 MISSES:    2021295
L2C WRITEBACK ACCESSES:    3160978 HITS:    3154711 MISSES:       6267
L2C RQ ACCESS:   67259639
L2C RQ TO_CACHE:   67255884
L2C RQ MERGED:          0
L2C RQ FORWARD:          0
L2C WQ ACCESS:    3160978
L2C WQ TO_CACHE:    3160978
L2C WQ MERGED:          0
L2C WQ FORWARD:       5870
LLC TOTAL     ACCESS:    3710282  HIT:    1863363  MISS:    1846919
LLC LOAD      ACCESS:     560653  HIT:     492590  MISS:      68063
LLC RFO       ACCESS:     527435  HIT:     239303  MISS:     288132
LLC PREFETCH  ACCESS:    2003666  HIT:     661544  MISS:    1342122
LLC WRITEBACK ACCESS:     618528  HIT:     469926  MISS:     148602
LLC PREFETCH  REQUESTED:          0  ISSUED:          0  USEFUL:      44114  USELESS:    1290947
LLC TOTAL MSHR MERGED:       4316
LLC LOAD MSHR MERGED:          0
LLC RFO MSHR MERGED:          0
LLC PREFETCH MSHR MERGED:       4316
LLC WRITEBACK MSHR MERGED:          0
LLC TOTAL ACCESSES:    3796788 HITS:    1945553 MISSES:    1851235
LLC LOAD ACCESSES:     560683 HITS:     492620 MISSES:      68063
LLC RFO ACCESSES:     609511 HITS:     321379 MISSES:     288132
LLC PREFETCH ACCESSES:    2008066 HITS:     661628 MISSES:    1346438
LLC WRITEBACK ACCESSES:     618528 HITS:     469926 MISSES:     148602
LLC 0 RQ ACCESS:    1170195
LLC 0 RQ TO_CACHE:    1088089
LLC 0 RQ MERGED:          0
LLC 0 RQ FORWARD:          0
LLC WQ ACCESS:     618528
LLC WQ TO_CACHE:     618528
LLC WQ MERGED:          0
LLC WQ FORWARD:      82190
Major fault: 0 Minor fault: 12800
CPU 0 L1D next line prefetcher final stats
CPU 0 L2C PC-based stride prefetcher final stats
All Misses: 2244059
All Hits: 2317171
SD Algo Stats - Switches: 0 SRR-Repls: 85601 BRR-Repls: 0

DRAM Statistics
 CHANNEL 0
 RQ ROW_BUFFER_HIT:     835267  ROW_BUFFER_MISS:     863019
 DBUS_CONGESTED:     897248
 WQ ROW_BUFFER_HIT:      31139  ROW_BUFFER_MISS:     261104  FULL:          0

 AVG_CONGESTED_CYCLE: 13
LOADS RETIRED: 239375970
INSTR RETIRED: 500000000
