
*** ChampSim Multicore Out-of-Order Simulator ***

Warmup Instructions: 100000000
Simulation Instructions: 500000000
Number of CPUs: 1
LLC sets: 2048
LLC ways: 16
Clean RRIP Policies: 313102203131022 Dirty RRIP Policies: 323201203232012 PSEL Width: 10 Track Set: 4294967295 PSEL Mask: 1 Demote Mask: 1000443110004431DS Algo: 0Window size: 0
Off-chip DRAM Size: 4096 MB Channels: 1 Width: 64-bit Data Rate: 1600 MT/s

CPU 0 runs /mnt/beegfs/iconst01/spec2017/Gcc.trace.gz
NOT SORTED
TRACE STRING: /mnt/beegfs/iconst01/spec2017/Gcc.trace.gz
SORTED
TRACE STRING: /mnt/beegfs/iconst01/spec2017/Gcc.trace.gz
INITIAL
TRACE STRING: /mnt/beegfs/iconst01/spec2017/Gcc.trace.gz

champsim_seed used: 269

CPU 0 L1D next line prefetcher
CPU 0 L2C IP-based stride prefetcher
Initialize DRRIP state
Assign rand_sets[0]: 454  LLC: 2048
rand_sets[0]: 454
Assign rand_sets[1]: 1662  LLC: 2048
rand_sets[1]: 1662
Assign rand_sets[2]: 1921  LLC: 2048
rand_sets[2]: 1921
Assign rand_sets[3]: 1131  LLC: 2048
rand_sets[3]: 1131
Assign rand_sets[4]: 331  LLC: 2048
rand_sets[4]: 331
Assign rand_sets[5]: 1531  LLC: 2048
rand_sets[5]: 1531
Assign rand_sets[6]: 482  LLC: 2048
rand_sets[6]: 482
Assign rand_sets[7]: 1275  LLC: 2048
rand_sets[7]: 1275
Assign rand_sets[8]: 1876  LLC: 2048
rand_sets[8]: 1876
Assign rand_sets[9]: 2038  LLC: 2048
rand_sets[9]: 2038
Assign rand_sets[10]: 701  LLC: 2048
rand_sets[10]: 701
Assign rand_sets[11]: 479  LLC: 2048
rand_sets[11]: 479
Assign rand_sets[12]: 892  LLC: 2048
rand_sets[12]: 892
Assign rand_sets[13]: 1820  LLC: 2048
rand_sets[13]: 1820
Assign rand_sets[14]: 1505  LLC: 2048
rand_sets[14]: 1505
Assign rand_sets[15]: 1159  LLC: 2048
rand_sets[15]: 1159
Assign rand_sets[16]: 513  LLC: 2048
rand_sets[16]: 513
Assign rand_sets[17]: 703  LLC: 2048
rand_sets[17]: 703
Assign rand_sets[18]: 561  LLC: 2048
rand_sets[18]: 561
Assign rand_sets[19]: 990  LLC: 2048
rand_sets[19]: 990
Assign rand_sets[20]: 342  LLC: 2048
rand_sets[20]: 342
Assign rand_sets[21]: 882  LLC: 2048
rand_sets[21]: 882
Assign rand_sets[22]: 15  LLC: 2048
rand_sets[22]: 15
Assign rand_sets[23]: 71  LLC: 2048
rand_sets[23]: 71
Assign rand_sets[24]: 1127  LLC: 2048
rand_sets[24]: 1127
Assign rand_sets[25]: 1382  LLC: 2048
rand_sets[25]: 1382
Assign rand_sets[26]: 647  LLC: 2048
rand_sets[26]: 647
Assign rand_sets[27]: 857  LLC: 2048
rand_sets[27]: 857
Assign rand_sets[28]: 1450  LLC: 2048
rand_sets[28]: 1450
Assign rand_sets[29]: 1160  LLC: 2048
rand_sets[29]: 1160
Assign rand_sets[30]: 1852  LLC: 2048
rand_sets[30]: 1852
Assign rand_sets[31]: 1881  LLC: 2048
rand_sets[31]: 1881
Assign rand_sets[32]: 1770  LLC: 2048
rand_sets[32]: 1770
Assign rand_sets[33]: 1622  LLC: 2048
rand_sets[33]: 1622
Assign rand_sets[34]: 275  LLC: 2048
rand_sets[34]: 275
Assign rand_sets[35]: 635  LLC: 2048
rand_sets[35]: 635
Assign rand_sets[36]: 466  LLC: 2048
rand_sets[36]: 466
Assign rand_sets[37]: 1413  LLC: 2048
rand_sets[37]: 1413
Assign rand_sets[38]: 417  LLC: 2048
rand_sets[38]: 417
Assign rand_sets[39]: 472  LLC: 2048
rand_sets[39]: 472
Assign rand_sets[40]: 1340  LLC: 2048
rand_sets[40]: 1340
Assign rand_sets[41]: 852  LLC: 2048
rand_sets[41]: 852
Assign rand_sets[42]: 1365  LLC: 2048
rand_sets[42]: 1365
Assign rand_sets[43]: 47  LLC: 2048
rand_sets[43]: 47
Assign rand_sets[44]: 823  LLC: 2048
rand_sets[44]: 823
Assign rand_sets[45]: 686  LLC: 2048
rand_sets[45]: 686
Assign rand_sets[46]: 1637  LLC: 2048
rand_sets[46]: 1637
Assign rand_sets[47]: 1115  LLC: 2048
rand_sets[47]: 1115
Assign rand_sets[48]: 986  LLC: 2048
rand_sets[48]: 986
Assign rand_sets[49]: 258  LLC: 2048
rand_sets[49]: 258
Assign rand_sets[50]: 633  LLC: 2048
rand_sets[50]: 633
Assign rand_sets[51]: 920  LLC: 2048
rand_sets[51]: 920
Assign rand_sets[52]: 204  LLC: 2048
rand_sets[52]: 204
Assign rand_sets[53]: 227  LLC: 2048
rand_sets[53]: 227
Assign rand_sets[54]: 1818  LLC: 2048
rand_sets[54]: 1818
Assign rand_sets[55]: 886  LLC: 2048
rand_sets[55]: 886
Assign rand_sets[56]: 1422  LLC: 2048
rand_sets[56]: 1422
Assign rand_sets[57]: 607  LLC: 2048
rand_sets[57]: 607
Assign rand_sets[58]: 217  LLC: 2048
rand_sets[58]: 217
Assign rand_sets[59]: 1945  LLC: 2048
rand_sets[59]: 1945
Assign rand_sets[60]: 143  LLC: 2048
rand_sets[60]: 143
Assign rand_sets[61]: 1311  LLC: 2048
rand_sets[61]: 1311
Assign rand_sets[62]: 319  LLC: 2048
rand_sets[62]: 319
Assign rand_sets[63]: 1846  LLC: 2048
rand_sets[63]: 1846
 CLEAN-RRIP-POLICY-1: 0-3-1-3-1-0-2-2- CLEAN-RRIP-POLICY-2: 0-3-1-3-1-0-2-2-
 DIRTY-RRIP-POLICY-1: 0-3-2-3-2-0-1-2- DIRTY-RRIP-POLICY-2: 0-3-2-3-2-0-1-2-
 PSEL width: 10
Heartbeat CPU 0 instructions: 10000001 cycles: 7316002 heartbeat IPC: 1.36687 cumulative IPC: 1.36687 (Simulation time: 0 hr 0 min 15 sec) 
Heartbeat CPU 0 instructions: 20000000 cycles: 14308163 heartbeat IPC: 1.43017 cumulative IPC: 1.3978 (Simulation time: 0 hr 0 min 30 sec) 
Heartbeat CPU 0 instructions: 30000001 cycles: 21021524 heartbeat IPC: 1.48957 cumulative IPC: 1.42711 (Simulation time: 0 hr 0 min 47 sec) 
Heartbeat CPU 0 instructions: 40000000 cycles: 27482613 heartbeat IPC: 1.54773 cumulative IPC: 1.45547 (Simulation time: 0 hr 1 min 3 sec) 
Heartbeat CPU 0 instructions: 50000001 cycles: 33584135 heartbeat IPC: 1.63894 cumulative IPC: 1.4888 (Simulation time: 0 hr 1 min 19 sec) 
Heartbeat CPU 0 instructions: 60000000 cycles: 40065257 heartbeat IPC: 1.54294 cumulative IPC: 1.49756 (Simulation time: 0 hr 1 min 36 sec) 
Heartbeat CPU 0 instructions: 70000000 cycles: 47103231 heartbeat IPC: 1.42086 cumulative IPC: 1.4861 (Simulation time: 0 hr 1 min 51 sec) 
Heartbeat CPU 0 instructions: 80000000 cycles: 54193402 heartbeat IPC: 1.4104 cumulative IPC: 1.47619 (Simulation time: 0 hr 2 min 6 sec) 
Heartbeat CPU 0 instructions: 90000003 cycles: 61198254 heartbeat IPC: 1.42758 cumulative IPC: 1.47063 (Simulation time: 0 hr 2 min 22 sec) 
Heartbeat CPU 0 instructions: 100000000 cycles: 68366204 heartbeat IPC: 1.3951 cumulative IPC: 1.46271 (Simulation time: 0 hr 2 min 37 sec) 

Warmup complete CPU 0 instructions: 100000004 cycles: 68366205 (Simulation time: 0 hr 2 min 37 sec) 

Heartbeat CPU 0 instructions: 110000003 cycles: 96302121 heartbeat IPC: 0.357962 cumulative IPC: 0.357962 (Simulation time: 0 hr 3 min 7 sec) 
Heartbeat CPU 0 instructions: 120000000 cycles: 123865943 heartbeat IPC: 0.362794 cumulative IPC: 0.360362 (Simulation time: 0 hr 3 min 37 sec) 
Heartbeat CPU 0 instructions: 130000000 cycles: 148905097 heartbeat IPC: 0.399375 cumulative IPC: 0.372491 (Simulation time: 0 hr 4 min 7 sec) 
Heartbeat CPU 0 instructions: 140000000 cycles: 178664479 heartbeat IPC: 0.336028 cumulative IPC: 0.362653 (Simulation time: 0 hr 4 min 37 sec) 
Heartbeat CPU 0 instructions: 150000000 cycles: 208877909 heartbeat IPC: 0.330979 cumulative IPC: 0.355842 (Simulation time: 0 hr 5 min 7 sec) 
Heartbeat CPU 0 instructions: 160000000 cycles: 236355926 heartbeat IPC: 0.363927 cumulative IPC: 0.357165 (Simulation time: 0 hr 5 min 36 sec) 
Heartbeat CPU 0 instructions: 170000001 cycles: 264521584 heartbeat IPC: 0.355042 cumulative IPC: 0.35686 (Simulation time: 0 hr 6 min 8 sec) 
Heartbeat CPU 0 instructions: 180000000 cycles: 293166709 heartbeat IPC: 0.3491 cumulative IPC: 0.355871 (Simulation time: 0 hr 6 min 38 sec) 
Heartbeat CPU 0 instructions: 190000002 cycles: 321316309 heartbeat IPC: 0.355245 cumulative IPC: 0.355801 (Simulation time: 0 hr 7 min 9 sec) 
Heartbeat CPU 0 instructions: 200000000 cycles: 349935531 heartbeat IPC: 0.349415 cumulative IPC: 0.355152 (Simulation time: 0 hr 7 min 39 sec) 
Heartbeat CPU 0 instructions: 210000002 cycles: 377887994 heartbeat IPC: 0.35775 cumulative IPC: 0.355387 (Simulation time: 0 hr 8 min 10 sec) 
Heartbeat CPU 0 instructions: 220000000 cycles: 407277125 heartbeat IPC: 0.340262 cumulative IPC: 0.354075 (Simulation time: 0 hr 8 min 39 sec) 
Heartbeat CPU 0 instructions: 230000000 cycles: 435128450 heartbeat IPC: 0.359049 cumulative IPC: 0.354453 (Simulation time: 0 hr 9 min 8 sec) 
Heartbeat CPU 0 instructions: 240000000 cycles: 461593801 heartbeat IPC: 0.377853 cumulative IPC: 0.356028 (Simulation time: 0 hr 9 min 37 sec) 
Heartbeat CPU 0 instructions: 250000000 cycles: 491943424 heartbeat IPC: 0.329493 cumulative IPC: 0.354127 (Simulation time: 0 hr 10 min 9 sec) 
Heartbeat CPU 0 instructions: 260000000 cycles: 519201875 heartbeat IPC: 0.366859 cumulative IPC: 0.354896 (Simulation time: 0 hr 10 min 38 sec) 
Heartbeat CPU 0 instructions: 270000003 cycles: 547697131 heartbeat IPC: 0.350936 cumulative IPC: 0.354661 (Simulation time: 0 hr 11 min 10 sec) 
Heartbeat CPU 0 instructions: 280000000 cycles: 576089199 heartbeat IPC: 0.352211 cumulative IPC: 0.354524 (Simulation time: 0 hr 11 min 41 sec) 
Heartbeat CPU 0 instructions: 290000000 cycles: 605027002 heartbeat IPC: 0.345569 cumulative IPC: 0.354041 (Simulation time: 0 hr 12 min 12 sec) 
Heartbeat CPU 0 instructions: 300000000 cycles: 635154675 heartbeat IPC: 0.331921 cumulative IPC: 0.352865 (Simulation time: 0 hr 12 min 42 sec) 
Heartbeat CPU 0 instructions: 310000001 cycles: 664895956 heartbeat IPC: 0.336233 cumulative IPC: 0.352036 (Simulation time: 0 hr 13 min 12 sec) 
Heartbeat CPU 0 instructions: 320000000 cycles: 693401312 heartbeat IPC: 0.350811 cumulative IPC: 0.35198 (Simulation time: 0 hr 13 min 42 sec) 
Heartbeat CPU 0 instructions: 330000000 cycles: 722151995 heartbeat IPC: 0.347818 cumulative IPC: 0.351797 (Simulation time: 0 hr 14 min 12 sec) 
Heartbeat CPU 0 instructions: 340000000 cycles: 751871115 heartbeat IPC: 0.336484 cumulative IPC: 0.351131 (Simulation time: 0 hr 14 min 42 sec) 
Heartbeat CPU 0 instructions: 350000003 cycles: 778987629 heartbeat IPC: 0.368779 cumulative IPC: 0.351805 (Simulation time: 0 hr 15 min 11 sec) 
Heartbeat CPU 0 instructions: 360000000 cycles: 807686254 heartbeat IPC: 0.348449 cumulative IPC: 0.351674 (Simulation time: 0 hr 15 min 40 sec) 
Heartbeat CPU 0 instructions: 370000000 cycles: 836479099 heartbeat IPC: 0.347309 cumulative IPC: 0.351511 (Simulation time: 0 hr 16 min 9 sec) 
Heartbeat CPU 0 instructions: 380000000 cycles: 865693377 heartbeat IPC: 0.342298 cumulative IPC: 0.351173 (Simulation time: 0 hr 16 min 39 sec) 
Heartbeat CPU 0 instructions: 390000001 cycles: 893913341 heartbeat IPC: 0.354359 cumulative IPC: 0.351282 (Simulation time: 0 hr 17 min 7 sec) 
Heartbeat CPU 0 instructions: 400000000 cycles: 923195215 heartbeat IPC: 0.341508 cumulative IPC: 0.350947 (Simulation time: 0 hr 17 min 37 sec) 
Heartbeat CPU 0 instructions: 410000001 cycles: 951114210 heartbeat IPC: 0.358179 cumulative IPC: 0.351176 (Simulation time: 0 hr 18 min 5 sec) 
Heartbeat CPU 0 instructions: 420000000 cycles: 978993120 heartbeat IPC: 0.358694 cumulative IPC: 0.351406 (Simulation time: 0 hr 18 min 34 sec) 
Heartbeat CPU 0 instructions: 430000002 cycles: 1007297289 heartbeat IPC: 0.353305 cumulative IPC: 0.351463 (Simulation time: 0 hr 19 min 2 sec) 
Heartbeat CPU 0 instructions: 440000000 cycles: 1037340079 heartbeat IPC: 0.332859 cumulative IPC: 0.350887 (Simulation time: 0 hr 19 min 31 sec) 
Heartbeat CPU 0 instructions: 450000002 cycles: 1067229223 heartbeat IPC: 0.33457 cumulative IPC: 0.350398 (Simulation time: 0 hr 19 min 59 sec) 
Heartbeat CPU 0 instructions: 460000000 cycles: 1095509495 heartbeat IPC: 0.353603 cumulative IPC: 0.350487 (Simulation time: 0 hr 20 min 27 sec) 
Heartbeat CPU 0 instructions: 470000000 cycles: 1123685418 heartbeat IPC: 0.354913 cumulative IPC: 0.350605 (Simulation time: 0 hr 20 min 55 sec) 
Heartbeat CPU 0 instructions: 480000000 cycles: 1152051969 heartbeat IPC: 0.352528 cumulative IPC: 0.350655 (Simulation time: 0 hr 21 min 23 sec) 
Heartbeat CPU 0 instructions: 490000000 cycles: 1180147031 heartbeat IPC: 0.355934 cumulative IPC: 0.350789 (Simulation time: 0 hr 21 min 51 sec) 
Heartbeat CPU 0 instructions: 500000000 cycles: 1208871654 heartbeat IPC: 0.348133 cumulative IPC: 0.350722 (Simulation time: 0 hr 22 min 19 sec) 
Heartbeat CPU 0 instructions: 510000000 cycles: 1244274002 heartbeat IPC: 0.282467 cumulative IPC: 0.348667 (Simulation time: 0 hr 22 min 51 sec) 
Heartbeat CPU 0 instructions: 520000000 cycles: 1272054614 heartbeat IPC: 0.359963 cumulative IPC: 0.348927 (Simulation time: 0 hr 23 min 19 sec) 
Heartbeat CPU 0 instructions: 530000001 cycles: 1301718143 heartbeat IPC: 0.337114 cumulative IPC: 0.348643 (Simulation time: 0 hr 23 min 48 sec) 
Heartbeat CPU 0 instructions: 540000000 cycles: 1330263844 heartbeat IPC: 0.350315 cumulative IPC: 0.348681 (Simulation time: 0 hr 24 min 17 sec) 
Heartbeat CPU 0 instructions: 550000001 cycles: 1359784094 heartbeat IPC: 0.338751 cumulative IPC: 0.348454 (Simulation time: 0 hr 24 min 48 sec) 
Heartbeat CPU 0 instructions: 560000000 cycles: 1385427485 heartbeat IPC: 0.389964 cumulative IPC: 0.349262 (Simulation time: 0 hr 25 min 16 sec) 
Heartbeat CPU 0 instructions: 570000000 cycles: 1415234085 heartbeat IPC: 0.335496 cumulative IPC: 0.348958 (Simulation time: 0 hr 25 min 46 sec) 
Heartbeat CPU 0 instructions: 580000000 cycles: 1443620441 heartbeat IPC: 0.352282 cumulative IPC: 0.349026 (Simulation time: 0 hr 26 min 15 sec) 
Heartbeat CPU 0 instructions: 590000001 cycles: 1468974203 heartbeat IPC: 0.394419 cumulative IPC: 0.349848 (Simulation time: 0 hr 26 min 42 sec) 
Heartbeat CPU 0 instructions: 600000000 cycles: 1496289748 heartbeat IPC: 0.366092 cumulative IPC: 0.350159 (Simulation time: 0 hr 27 min 11 sec) 
Finished CPU 0 instructions: 500000000 cycles: 1427923565 cumulative IPC: 0.350159 (Simulation time: 0 hr 27 min 11 sec) 

CPU 0 Branch Prediction Accuracy: 86.4311% MPKI: 26.2662
Number of Branches: 96788573 Number of Mispredictions: 13133102
Number of LOAD Instructions: 164682285
Number of LOAD Instructions (ROI): 164682285
Number of STORE Instructions: 78194750
Number of STORE Instructions (ROI): 78194750
Total Destination Memory Operands: 83268534
Total Destination Memory Operands (ROI): 83268534
Total Source Memory Operands: 164712438
Total Source Memory Operands (ROI): 164712438
Number of DEPENDED LOADS: 7075088
Number of DEPENDED LOADS (ROI): 7075088
Number of SQ_ADDED: 83268522
Number of SQ_ADDED (ROI): 83268522
Number of LQ_ADDED: 236857356
Number of LQ_ADDED (ROI): 236857356
Number of Instructions read from trace: 600000066

ChampSim completed all CPUs

Region of Interest Statistics

CPU 0 cumulative IPC: 0.350159 instructions: 500000000 cycles: 1427923565
ITLB TOTAL     ACCESS:  100496542  HIT:  100292096  MISS:     204446
ITLB LOAD      ACCESS:  100496542  HIT:  100292096  MISS:     204446
ITLB RFO       ACCESS:          0  HIT:          0  MISS:          0
ITLB PREFETCH  ACCESS:          0  HIT:          0  MISS:          0
ITLB WRITEBACK ACCESS:          0  HIT:          0  MISS:          0
ITLB PREFETCH  REQUESTED:          0  ISSUED:          0  USEFUL:          0  USELESS:          0
ITLB TOTAL MSHR MERGED:     172425
ITLB LOAD MSHR MERGED:     172425
ITLB RFO MSHR MERGED:          0
ITLB PREFETCH MSHR MERGED:          0
ITLB WRITEBACK MSHR MERGED:          0
ITLB TOTAL ACCESSES:  100668967 HITS:  100292096 MISSES:     376871
ITLB LOAD ACCESSES:  100668967 HITS:  100292096 MISSES:     376871
ITLB RFO ACCESSES:          0 HITS:          0 MISSES:          0
ITLB PREFETCH ACCESSES:          0 HITS:          0 MISSES:          0
ITLB WRITEBACK ACCESSES:          0 HITS:          0 MISSES:          0
ITLB RQ ACCESS:  500000057
ITLB RQ TO_CACHE:  100668967
ITLB RQ MERGED:  399331090
ITLB RQ FORWARD:          0
ITLB WQ ACCESS:          0
ITLB WQ TO_CACHE:          0
ITLB WQ MERGED:          0
ITLB WQ FORWARD:          0
DTLB TOTAL     ACCESS:  165324519  HIT:  164690172  MISS:     634347
DTLB LOAD      ACCESS:  106280277  HIT:  105710266  MISS:     570011
DTLB RFO       ACCESS:   59044242  HIT:   58979906  MISS:      64336
DTLB PREFETCH  ACCESS:          0  HIT:          0  MISS:          0
DTLB WRITEBACK ACCESS:          0  HIT:          0  MISS:          0
DTLB PREFETCH  REQUESTED:          0  ISSUED:          0  USEFUL:          0  USELESS:          0
DTLB TOTAL MSHR MERGED:      99953
DTLB LOAD MSHR MERGED:      59447
DTLB RFO MSHR MERGED:      40506
DTLB PREFETCH MSHR MERGED:          0
DTLB WRITEBACK MSHR MERGED:          0
DTLB TOTAL ACCESSES:  165424472 HITS:  164690172 MISSES:     734300
DTLB LOAD ACCESSES:  106339724 HITS:  105710266 MISSES:     629458
DTLB RFO ACCESSES:   59084748 HITS:   58979906 MISSES:     104842
DTLB PREFETCH ACCESSES:          0 HITS:          0 MISSES:          0
DTLB WRITEBACK ACCESSES:          0 HITS:          0 MISSES:          0
DTLB RQ ACCESS:  200295868
DTLB RQ TO_CACHE:  165424472
DTLB RQ MERGED:   34871396
DTLB RQ FORWARD:          0
DTLB WQ ACCESS:          0
DTLB WQ TO_CACHE:          0
DTLB WQ MERGED:          0
DTLB WQ FORWARD:          0
L1D TOTAL     ACCESS:  281751424  HIT:  273842174  MISS:    7909250
L1D LOAD      ACCESS:  110401263  HIT:  107119374  MISS:    3281889
L1D RFO       ACCESS:   67088473  HIT:   66196475  MISS:     891998
L1D PREFETCH  ACCESS:  104261688  HIT:  100526325  MISS:    3735363
L1D WRITEBACK ACCESS:          0  HIT:          0  MISS:          0
L1D PREFETCH  REQUESTED:  110806935  ISSUED:  109107767  USEFUL:    1656253  USELESS:    2079074
L1D TOTAL MSHR MERGED:    2935537
L1D LOAD MSHR MERGED:     507289
L1D RFO MSHR MERGED:    1898018
L1D PREFETCH MSHR MERGED:     530230
L1D WRITEBACK MSHR MERGED:          0
L1D TOTAL ACCESSES:  284714683 HITS:  273869896 MISSES:   10844787
L1D LOAD ACCESSES:  110808660 HITS:  107121099 MISSES:    3687561
L1D RFO ACCESSES:   68973292 HITS:   66196475 MISSES:    2776817
L1D PREFETCH ACCESSES:  104932731 HITS:  100552322 MISSES:    4380409
L1D WRITEBACK ACCESSES:          0 HITS:          0 MISSES:          0
L1D RQ ACCESS:  130743265
L1D RQ TO_CACHE:  110806938
L1D RQ MERGED:   19934602
L1D RQ FORWARD:          0
L1D WQ ACCESS:   69552603
L1D WQ TO_CACHE:   68973293
L1D WQ MERGED:     579310
L1D WQ FORWARD:      27722
L1I TOTAL     ACCESS:  126542478  HIT:  122303925  MISS:    4238553
L1I LOAD      ACCESS:  126542478  HIT:  122303925  MISS:    4238553
L1I RFO       ACCESS:          0  HIT:          0  MISS:          0
L1I PREFETCH  ACCESS:          0  HIT:          0  MISS:          0
L1I WRITEBACK ACCESS:          0  HIT:          0  MISS:          0
L1I PREFETCH  REQUESTED:          0  ISSUED:          0  USEFUL:          0  USELESS:          0
L1I TOTAL MSHR MERGED:    1835091
L1I LOAD MSHR MERGED:    1835091
L1I RFO MSHR MERGED:          0
L1I PREFETCH MSHR MERGED:          0
L1I WRITEBACK MSHR MERGED:          0
L1I TOTAL ACCESSES:  128377572 HITS:  122303925 MISSES:    6073647
L1I LOAD ACCESSES:  128377572 HITS:  122303925 MISSES:    6073647
L1I RFO ACCESSES:          0 HITS:          0 MISSES:          0
L1I PREFETCH ACCESSES:          0 HITS:          0 MISSES:          0
L1I WRITEBACK ACCESSES:          0 HITS:          0 MISSES:          0
L1I RQ ACCESS:  500000057
L1I RQ TO_CACHE:  128377572
L1I RQ MERGED:  371622485
L1I RQ FORWARD:          0
L1I WQ ACCESS:          0
L1I WQ TO_CACHE:          0
L1I WQ MERGED:          0
L1I WQ FORWARD:          0
L2C TOTAL     ACCESS:   14903586  HIT:   11157187  MISS:    3746399
L2C LOAD      ACCESS:    7418619  HIT:    5098366  MISS:    2320253
L2C RFO       ACCESS:     878700  HIT:     409918  MISS:     468782
L2C PREFETCH  ACCESS:    4567044  HIT:    3626943  MISS:     940101
L2C WRITEBACK ACCESS:    2039223  HIT:    2021960  MISS:      17263
L2C PREFETCH  REQUESTED:     842199  ISSUED:     842199  USEFUL:     203007  USELESS:     736799
L2C TOTAL MSHR MERGED:       8227
L2C LOAD MSHR MERGED:       1110
L2C RFO MSHR MERGED:          0
L2C PREFETCH MSHR MERGED:       7117
L2C WRITEBACK MSHR MERGED:          0
L2C TOTAL ACCESSES:   14912770 HITS:   11157634 MISSES:    3755136
L2C LOAD ACCESSES:    7418825 HITS:    5098572 MISSES:    2320253
L2C RFO ACCESSES:     878799 HITS:     410017 MISSES:     468782
L2C PREFETCH ACCESSES:    4575923 HITS:    3627085 MISSES:     948838
L2C WRITEBACK ACCESSES:    2039223 HITS:    2021960 MISSES:      17263
L2C RQ ACCESS:    8297627
L2C RQ TO_CACHE:    8297322
L2C RQ MERGED:          0
L2C RQ FORWARD:          0
L2C WQ ACCESS:    2039223
L2C WQ TO_CACHE:    2039223
L2C WQ MERGED:          0
L2C WQ FORWARD:        447
LLC TOTAL     ACCESS:    4609758  HIT:    3616157  MISS:     993601
LLC LOAD      ACCESS:    2319134  HIT:    1966026  MISS:     353108
LLC RFO       ACCESS:     468775  HIT:     353211  MISS:     115564
LLC PREFETCH  ACCESS:     941588  HIT:     567318  MISS:     374270
LLC WRITEBACK ACCESS:     880261  HIT:     729602  MISS:     150659
LLC PREFETCH  REQUESTED:          0  ISSUED:          0  USEFUL:      19052  USELESS:     355314
LLC TOTAL MSHR MERGED:        117
LLC LOAD MSHR MERGED:         36
LLC RFO MSHR MERGED:          0
LLC PREFETCH MSHR MERGED:         81
LLC WRITEBACK MSHR MERGED:          0
LLC TOTAL ACCESSES:    4609899 HITS:    3616181 MISSES:     993718
LLC LOAD ACCESSES:    2319143 HITS:    1966035 MISSES:     353108
LLC RFO ACCESSES:     468782 HITS:     353218 MISSES:     115564
LLC PREFETCH ACCESSES:     941713 HITS:     567326 MISSES:     374387
LLC WRITEBACK ACCESSES:     880261 HITS:     729602 MISSES:     150659
LLC 0 RQ ACCESS:    2787925
LLC 0 RQ TO_CACHE:    2787909
LLC 0 RQ MERGED:          0
LLC 0 RQ FORWARD:          0
LLC WQ ACCESS:     880261
LLC WQ TO_CACHE:     880261
LLC WQ MERGED:          0
LLC WQ FORWARD:         24
Major fault: 0 Minor fault: 12862
CPU 0 L1D next line prefetcher final stats
CPU 0 L2C PC-based stride prefetcher final stats
All Misses: 1137611
All Hits: 4289153
SD Algo Stats - Switches: 42 SRR-Repls: 382586 BRR-Repls: 13430

DRAM Statistics
 CHANNEL 0
 RQ ROW_BUFFER_HIT:     150055  ROW_BUFFER_MISS:     688815
 DBUS_CONGESTED:     553000
 WQ ROW_BUFFER_HIT:      37908  ROW_BUFFER_MISS:     324044  FULL:          0

 AVG_CONGESTED_CYCLE: 13
LOADS RETIRED: 136549171
INSTR RETIRED: 500000000
