
*** ChampSim Multicore Out-of-Order Simulator ***

Warmup Instructions: 100000000
Simulation Instructions: 500000000
Number of CPUs: 1
LLC sets: 2048
LLC ways: 16
Clean RRIP Policies: 2213230222132302 Dirty RRIP Policies: 1203130212031302 PSEL Width: 10 Track Set: 4294967295 PSEL Mask: 1 Demote Mask: 1040104010401040DS Algo: 0Window size: 0
Off-chip DRAM Size: 4096 MB Channels: 1 Width: 64-bit Data Rate: 1600 MT/s

CPU 0 runs /mnt/beegfs/iconst01/spec2017/Cam4.trace.gz
NOT SORTED
TRACE STRING: /mnt/beegfs/iconst01/spec2017/Cam4.trace.gz
SORTED
TRACE STRING: /mnt/beegfs/iconst01/spec2017/Cam4.trace.gz
INITIAL
TRACE STRING: /mnt/beegfs/iconst01/spec2017/Cam4.trace.gz

champsim_seed used: 325

CPU 0 L1D next line prefetcher
CPU 0 L2C IP-based stride prefetcher
Initialize DRRIP state
Assign rand_sets[0]: 454  LLC: 2048
rand_sets[0]: 454
Assign rand_sets[1]: 1662  LLC: 2048
rand_sets[1]: 1662
Assign rand_sets[2]: 1921  LLC: 2048
rand_sets[2]: 1921
Assign rand_sets[3]: 1131  LLC: 2048
rand_sets[3]: 1131
Assign rand_sets[4]: 331  LLC: 2048
rand_sets[4]: 331
Assign rand_sets[5]: 1531  LLC: 2048
rand_sets[5]: 1531
Assign rand_sets[6]: 482  LLC: 2048
rand_sets[6]: 482
Assign rand_sets[7]: 1275  LLC: 2048
rand_sets[7]: 1275
Assign rand_sets[8]: 1876  LLC: 2048
rand_sets[8]: 1876
Assign rand_sets[9]: 2038  LLC: 2048
rand_sets[9]: 2038
Assign rand_sets[10]: 701  LLC: 2048
rand_sets[10]: 701
Assign rand_sets[11]: 479  LLC: 2048
rand_sets[11]: 479
Assign rand_sets[12]: 892  LLC: 2048
rand_sets[12]: 892
Assign rand_sets[13]: 1820  LLC: 2048
rand_sets[13]: 1820
Assign rand_sets[14]: 1505  LLC: 2048
rand_sets[14]: 1505
Assign rand_sets[15]: 1159  LLC: 2048
rand_sets[15]: 1159
Assign rand_sets[16]: 513  LLC: 2048
rand_sets[16]: 513
Assign rand_sets[17]: 703  LLC: 2048
rand_sets[17]: 703
Assign rand_sets[18]: 561  LLC: 2048
rand_sets[18]: 561
Assign rand_sets[19]: 990  LLC: 2048
rand_sets[19]: 990
Assign rand_sets[20]: 342  LLC: 2048
rand_sets[20]: 342
Assign rand_sets[21]: 882  LLC: 2048
rand_sets[21]: 882
Assign rand_sets[22]: 15  LLC: 2048
rand_sets[22]: 15
Assign rand_sets[23]: 71  LLC: 2048
rand_sets[23]: 71
Assign rand_sets[24]: 1127  LLC: 2048
rand_sets[24]: 1127
Assign rand_sets[25]: 1382  LLC: 2048
rand_sets[25]: 1382
Assign rand_sets[26]: 647  LLC: 2048
rand_sets[26]: 647
Assign rand_sets[27]: 857  LLC: 2048
rand_sets[27]: 857
Assign rand_sets[28]: 1450  LLC: 2048
rand_sets[28]: 1450
Assign rand_sets[29]: 1160  LLC: 2048
rand_sets[29]: 1160
Assign rand_sets[30]: 1852  LLC: 2048
rand_sets[30]: 1852
Assign rand_sets[31]: 1881  LLC: 2048
rand_sets[31]: 1881
Assign rand_sets[32]: 1770  LLC: 2048
rand_sets[32]: 1770
Assign rand_sets[33]: 1622  LLC: 2048
rand_sets[33]: 1622
Assign rand_sets[34]: 275  LLC: 2048
rand_sets[34]: 275
Assign rand_sets[35]: 635  LLC: 2048
rand_sets[35]: 635
Assign rand_sets[36]: 466  LLC: 2048
rand_sets[36]: 466
Assign rand_sets[37]: 1413  LLC: 2048
rand_sets[37]: 1413
Assign rand_sets[38]: 417  LLC: 2048
rand_sets[38]: 417
Assign rand_sets[39]: 472  LLC: 2048
rand_sets[39]: 472
Assign rand_sets[40]: 1340  LLC: 2048
rand_sets[40]: 1340
Assign rand_sets[41]: 852  LLC: 2048
rand_sets[41]: 852
Assign rand_sets[42]: 1365  LLC: 2048
rand_sets[42]: 1365
Assign rand_sets[43]: 47  LLC: 2048
rand_sets[43]: 47
Assign rand_sets[44]: 823  LLC: 2048
rand_sets[44]: 823
Assign rand_sets[45]: 686  LLC: 2048
rand_sets[45]: 686
Assign rand_sets[46]: 1637  LLC: 2048
rand_sets[46]: 1637
Assign rand_sets[47]: 1115  LLC: 2048
rand_sets[47]: 1115
Assign rand_sets[48]: 986  LLC: 2048
rand_sets[48]: 986
Assign rand_sets[49]: 258  LLC: 2048
rand_sets[49]: 258
Assign rand_sets[50]: 633  LLC: 2048
rand_sets[50]: 633
Assign rand_sets[51]: 920  LLC: 2048
rand_sets[51]: 920
Assign rand_sets[52]: 204  LLC: 2048
rand_sets[52]: 204
Assign rand_sets[53]: 227  LLC: 2048
rand_sets[53]: 227
Assign rand_sets[54]: 1818  LLC: 2048
rand_sets[54]: 1818
Assign rand_sets[55]: 886  LLC: 2048
rand_sets[55]: 886
Assign rand_sets[56]: 1422  LLC: 2048
rand_sets[56]: 1422
Assign rand_sets[57]: 607  LLC: 2048
rand_sets[57]: 607
Assign rand_sets[58]: 217  LLC: 2048
rand_sets[58]: 217
Assign rand_sets[59]: 1945  LLC: 2048
rand_sets[59]: 1945
Assign rand_sets[60]: 143  LLC: 2048
rand_sets[60]: 143
Assign rand_sets[61]: 1311  LLC: 2048
rand_sets[61]: 1311
Assign rand_sets[62]: 319  LLC: 2048
rand_sets[62]: 319
Assign rand_sets[63]: 1846  LLC: 2048
rand_sets[63]: 1846
 CLEAN-RRIP-POLICY-1: 2-2-1-3-2-3-0-2- CLEAN-RRIP-POLICY-2: 2-2-1-3-2-3-0-2-
 DIRTY-RRIP-POLICY-1: 1-2-0-3-1-3-0-2- DIRTY-RRIP-POLICY-2: 1-2-0-3-1-3-0-2-
 PSEL width: 10
Heartbeat CPU 0 instructions: 10000000 cycles: 4859184 heartbeat IPC: 2.05796 cumulative IPC: 2.05796 (Simulation time: 0 hr 0 min 17 sec) 
Heartbeat CPU 0 instructions: 20000000 cycles: 9790786 heartbeat IPC: 2.02774 cumulative IPC: 2.04274 (Simulation time: 0 hr 0 min 33 sec) 
Heartbeat CPU 0 instructions: 30000001 cycles: 14562953 heartbeat IPC: 2.09548 cumulative IPC: 2.06002 (Simulation time: 0 hr 0 min 47 sec) 
Heartbeat CPU 0 instructions: 40000000 cycles: 19399976 heartbeat IPC: 2.06739 cumulative IPC: 2.06186 (Simulation time: 0 hr 1 min 4 sec) 
Heartbeat CPU 0 instructions: 50000000 cycles: 24256507 heartbeat IPC: 2.05908 cumulative IPC: 2.0613 (Simulation time: 0 hr 1 min 20 sec) 
Heartbeat CPU 0 instructions: 60000000 cycles: 29181905 heartbeat IPC: 2.03029 cumulative IPC: 2.05607 (Simulation time: 0 hr 1 min 37 sec) 
Heartbeat CPU 0 instructions: 70000001 cycles: 33956886 heartbeat IPC: 2.09425 cumulative IPC: 2.06144 (Simulation time: 0 hr 1 min 52 sec) 
Heartbeat CPU 0 instructions: 80000000 cycles: 38793137 heartbeat IPC: 2.06772 cumulative IPC: 2.06222 (Simulation time: 0 hr 2 min 9 sec) 
Heartbeat CPU 0 instructions: 90000002 cycles: 43647157 heartbeat IPC: 2.06015 cumulative IPC: 2.06199 (Simulation time: 0 hr 2 min 26 sec) 
Heartbeat CPU 0 instructions: 100000000 cycles: 48565917 heartbeat IPC: 2.03303 cumulative IPC: 2.05906 (Simulation time: 0 hr 2 min 42 sec) 

Warmup complete CPU 0 instructions: 100000001 cycles: 48565918 (Simulation time: 0 hr 2 min 42 sec) 

Heartbeat CPU 0 instructions: 110000000 cycles: 61633897 heartbeat IPC: 0.765229 cumulative IPC: 0.765229 (Simulation time: 0 hr 3 min 5 sec) 
Heartbeat CPU 0 instructions: 120000000 cycles: 75377372 heartbeat IPC: 0.727618 cumulative IPC: 0.74595 (Simulation time: 0 hr 3 min 30 sec) 
Heartbeat CPU 0 instructions: 130000000 cycles: 89120455 heartbeat IPC: 0.727639 cumulative IPC: 0.739745 (Simulation time: 0 hr 3 min 54 sec) 
Heartbeat CPU 0 instructions: 140000000 cycles: 103363957 heartbeat IPC: 0.702075 cumulative IPC: 0.729953 (Simulation time: 0 hr 4 min 19 sec) 
Heartbeat CPU 0 instructions: 150000003 cycles: 116522884 heartbeat IPC: 0.759941 cumulative IPC: 0.73576 (Simulation time: 0 hr 4 min 42 sec) 
Heartbeat CPU 0 instructions: 160000000 cycles: 130265703 heartbeat IPC: 0.727653 cumulative IPC: 0.734396 (Simulation time: 0 hr 5 min 7 sec) 
Heartbeat CPU 0 instructions: 170000001 cycles: 144041838 heartbeat IPC: 0.725893 cumulative IPC: 0.733169 (Simulation time: 0 hr 5 min 32 sec) 
Heartbeat CPU 0 instructions: 180000000 cycles: 158268066 heartbeat IPC: 0.702927 cumulative IPC: 0.729247 (Simulation time: 0 hr 5 min 57 sec) 
Heartbeat CPU 0 instructions: 190000003 cycles: 171388464 heartbeat IPC: 0.762172 cumulative IPC: 0.732764 (Simulation time: 0 hr 6 min 19 sec) 
Heartbeat CPU 0 instructions: 200000000 cycles: 185122510 heartbeat IPC: 0.728117 cumulative IPC: 0.732297 (Simulation time: 0 hr 6 min 44 sec) 
Heartbeat CPU 0 instructions: 210000002 cycles: 198897605 heartbeat IPC: 0.725948 cumulative IPC: 0.731715 (Simulation time: 0 hr 7 min 9 sec) 
Heartbeat CPU 0 instructions: 220000000 cycles: 213124433 heartbeat IPC: 0.702897 cumulative IPC: 0.729224 (Simulation time: 0 hr 7 min 34 sec) 
Heartbeat CPU 0 instructions: 230000001 cycles: 226181598 heartbeat IPC: 0.765863 cumulative IPC: 0.731917 (Simulation time: 0 hr 7 min 56 sec) 
Heartbeat CPU 0 instructions: 240000000 cycles: 239902824 heartbeat IPC: 0.728798 cumulative IPC: 0.731694 (Simulation time: 0 hr 8 min 21 sec) 
Heartbeat CPU 0 instructions: 250000001 cycles: 253623905 heartbeat IPC: 0.728806 cumulative IPC: 0.7315 (Simulation time: 0 hr 8 min 47 sec) 
Heartbeat CPU 0 instructions: 260000000 cycles: 267749486 heartbeat IPC: 0.707935 cumulative IPC: 0.729982 (Simulation time: 0 hr 9 min 12 sec) 
Heartbeat CPU 0 instructions: 270000003 cycles: 280925477 heartbeat IPC: 0.758956 cumulative IPC: 0.731625 (Simulation time: 0 hr 9 min 35 sec) 
Heartbeat CPU 0 instructions: 280000000 cycles: 294660042 heartbeat IPC: 0.72809 cumulative IPC: 0.731427 (Simulation time: 0 hr 10 min 0 sec) 
Heartbeat CPU 0 instructions: 290000001 cycles: 308424870 heartbeat IPC: 0.726489 cumulative IPC: 0.731166 (Simulation time: 0 hr 10 min 25 sec) 
Heartbeat CPU 0 instructions: 300000000 cycles: 322500665 heartbeat IPC: 0.710439 cumulative IPC: 0.730101 (Simulation time: 0 hr 10 min 50 sec) 
Heartbeat CPU 0 instructions: 310000000 cycles: 335685377 heartbeat IPC: 0.758454 cumulative IPC: 0.731403 (Simulation time: 0 hr 11 min 13 sec) 
Heartbeat CPU 0 instructions: 320000000 cycles: 349459536 heartbeat IPC: 0.725997 cumulative IPC: 0.731155 (Simulation time: 0 hr 11 min 38 sec) 
Heartbeat CPU 0 instructions: 330000000 cycles: 363241564 heartbeat IPC: 0.725583 cumulative IPC: 0.730911 (Simulation time: 0 hr 12 min 3 sec) 
Heartbeat CPU 0 instructions: 340000000 cycles: 377297824 heartbeat IPC: 0.711427 cumulative IPC: 0.730078 (Simulation time: 0 hr 12 min 27 sec) 
Heartbeat CPU 0 instructions: 350000000 cycles: 390521158 heartbeat IPC: 0.756239 cumulative IPC: 0.73109 (Simulation time: 0 hr 12 min 49 sec) 
Heartbeat CPU 0 instructions: 360000000 cycles: 404328018 heartbeat IPC: 0.724278 cumulative IPC: 0.730825 (Simulation time: 0 hr 13 min 14 sec) 
Heartbeat CPU 0 instructions: 370000003 cycles: 418112077 heartbeat IPC: 0.725476 cumulative IPC: 0.730626 (Simulation time: 0 hr 13 min 38 sec) 
Heartbeat CPU 0 instructions: 380000000 cycles: 432129215 heartbeat IPC: 0.713412 cumulative IPC: 0.729997 (Simulation time: 0 hr 14 min 3 sec) 
Heartbeat CPU 0 instructions: 390000003 cycles: 445353083 heartbeat IPC: 0.756209 cumulative IPC: 0.73087 (Simulation time: 0 hr 14 min 25 sec) 
Heartbeat CPU 0 instructions: 400000000 cycles: 459149746 heartbeat IPC: 0.724813 cumulative IPC: 0.730667 (Simulation time: 0 hr 14 min 49 sec) 
Heartbeat CPU 0 instructions: 410000000 cycles: 472904805 heartbeat IPC: 0.727005 cumulative IPC: 0.730548 (Simulation time: 0 hr 15 min 14 sec) 
Heartbeat CPU 0 instructions: 420000000 cycles: 486911510 heartbeat IPC: 0.713944 cumulative IPC: 0.730018 (Simulation time: 0 hr 15 min 38 sec) 
Heartbeat CPU 0 instructions: 430000003 cycles: 500157278 heartbeat IPC: 0.754958 cumulative IPC: 0.730749 (Simulation time: 0 hr 16 min 0 sec) 
Heartbeat CPU 0 instructions: 440000000 cycles: 513960537 heartbeat IPC: 0.724466 cumulative IPC: 0.730563 (Simulation time: 0 hr 16 min 24 sec) 
Heartbeat CPU 0 instructions: 450000000 cycles: 527734396 heartbeat IPC: 0.726013 cumulative IPC: 0.730432 (Simulation time: 0 hr 16 min 49 sec) 
Heartbeat CPU 0 instructions: 460000000 cycles: 541718819 heartbeat IPC: 0.715081 cumulative IPC: 0.729997 (Simulation time: 0 hr 17 min 13 sec) 
Heartbeat CPU 0 instructions: 470000001 cycles: 554945030 heartbeat IPC: 0.756074 cumulative IPC: 0.730678 (Simulation time: 0 hr 17 min 34 sec) 
Heartbeat CPU 0 instructions: 480000000 cycles: 568720147 heartbeat IPC: 0.725947 cumulative IPC: 0.730553 (Simulation time: 0 hr 17 min 58 sec) 
Heartbeat CPU 0 instructions: 490000002 cycles: 582468669 heartbeat IPC: 0.727351 cumulative IPC: 0.73047 (Simulation time: 0 hr 18 min 22 sec) 
Heartbeat CPU 0 instructions: 500000000 cycles: 596453953 heartbeat IPC: 0.715037 cumulative IPC: 0.730076 (Simulation time: 0 hr 18 min 47 sec) 
Heartbeat CPU 0 instructions: 510000002 cycles: 609726399 heartbeat IPC: 0.753441 cumulative IPC: 0.730629 (Simulation time: 0 hr 19 min 8 sec) 
Heartbeat CPU 0 instructions: 520000000 cycles: 623491982 heartbeat IPC: 0.726449 cumulative IPC: 0.730529 (Simulation time: 0 hr 19 min 32 sec) 
Heartbeat CPU 0 instructions: 530000003 cycles: 637222804 heartbeat IPC: 0.728289 cumulative IPC: 0.730476 (Simulation time: 0 hr 19 min 56 sec) 
Heartbeat CPU 0 instructions: 540000000 cycles: 651228805 heartbeat IPC: 0.713979 cumulative IPC: 0.730093 (Simulation time: 0 hr 20 min 21 sec) 
Heartbeat CPU 0 instructions: 550000003 cycles: 664487156 heartbeat IPC: 0.754242 cumulative IPC: 0.730613 (Simulation time: 0 hr 20 min 42 sec) 
Heartbeat CPU 0 instructions: 560000000 cycles: 678231122 heartbeat IPC: 0.727592 cumulative IPC: 0.730547 (Simulation time: 0 hr 21 min 6 sec) 
Heartbeat CPU 0 instructions: 570000001 cycles: 691991327 heartbeat IPC: 0.726733 cumulative IPC: 0.730465 (Simulation time: 0 hr 21 min 30 sec) 
Heartbeat CPU 0 instructions: 580000000 cycles: 706022890 heartbeat IPC: 0.712679 cumulative IPC: 0.730086 (Simulation time: 0 hr 21 min 55 sec) 
Heartbeat CPU 0 instructions: 590000000 cycles: 719223884 heartbeat IPC: 0.757519 cumulative IPC: 0.730626 (Simulation time: 0 hr 22 min 16 sec) 
Heartbeat CPU 0 instructions: 600000000 cycles: 732968373 heartbeat IPC: 0.727564 cumulative IPC: 0.730564 (Simulation time: 0 hr 22 min 40 sec) 
Finished CPU 0 instructions: 500000001 cycles: 684402463 cumulative IPC: 0.730564 (Simulation time: 0 hr 22 min 40 sec) 

CPU 0 Branch Prediction Accuracy: 97.5275% MPKI: 2.1997
Number of Branches: 44482865 Number of Mispredictions: 1099852
Number of LOAD Instructions: 144955155
Number of LOAD Instructions (ROI): 144955155
Number of STORE Instructions: 55921098
Number of STORE Instructions (ROI): 55921098
Total Destination Memory Operands: 57111147
Total Destination Memory Operands (ROI): 57111147
Total Source Memory Operands: 144955155
Total Source Memory Operands (ROI): 144955155
Number of DEPENDED LOADS: 13454713
Number of DEPENDED LOADS (ROI): 13454713
Number of SQ_ADDED: 57111126
Number of SQ_ADDED (ROI): 57111126
Number of LQ_ADDED: 174216854
Number of LQ_ADDED (ROI): 174216854
Number of Instructions read from trace: 600000256

ChampSim completed all CPUs

Region of Interest Statistics

CPU 0 cumulative IPC: 0.730564 instructions: 500000001 cycles: 684402463
ITLB TOTAL     ACCESS:  136063400  HIT:  136060847  MISS:       2553
ITLB LOAD      ACCESS:  136063400  HIT:  136060847  MISS:       2553
ITLB RFO       ACCESS:          0  HIT:          0  MISS:          0
ITLB PREFETCH  ACCESS:          0  HIT:          0  MISS:          0
ITLB WRITEBACK ACCESS:          0  HIT:          0  MISS:          0
ITLB PREFETCH  REQUESTED:          0  ISSUED:          0  USEFUL:          0  USELESS:          0
ITLB TOTAL MSHR MERGED:       4351
ITLB LOAD MSHR MERGED:       4351
ITLB RFO MSHR MERGED:          0
ITLB PREFETCH MSHR MERGED:          0
ITLB WRITEBACK MSHR MERGED:          0
ITLB TOTAL ACCESSES:  136067751 HITS:  136060847 MISSES:       6904
ITLB LOAD ACCESSES:  136067751 HITS:  136060847 MISSES:       6904
ITLB RFO ACCESSES:          0 HITS:          0 MISSES:          0
ITLB PREFETCH ACCESSES:          0 HITS:          0 MISSES:          0
ITLB WRITEBACK ACCESSES:          0 HITS:          0 MISSES:          0
ITLB RQ ACCESS:  500000202
ITLB RQ TO_CACHE:  136067751
ITLB RQ MERGED:  363932451
ITLB RQ FORWARD:          0
ITLB WQ ACCESS:          0
ITLB WQ TO_CACHE:          0
ITLB WQ MERGED:          0
ITLB WQ FORWARD:          0
DTLB TOTAL     ACCESS:  111546196  HIT:  111410003  MISS:     136193
DTLB LOAD      ACCESS:   78948988  HIT:   78823363  MISS:     125625
DTLB RFO       ACCESS:   32597208  HIT:   32586640  MISS:      10568
DTLB PREFETCH  ACCESS:          0  HIT:          0  MISS:          0
DTLB WRITEBACK ACCESS:          0  HIT:          0  MISS:          0
DTLB PREFETCH  REQUESTED:          0  ISSUED:          0  USEFUL:          0  USELESS:          0
DTLB TOTAL MSHR MERGED:      63604
DTLB LOAD MSHR MERGED:      50961
DTLB RFO MSHR MERGED:      12643
DTLB PREFETCH MSHR MERGED:          0
DTLB WRITEBACK MSHR MERGED:          0
DTLB TOTAL ACCESSES:  111609800 HITS:  111410003 MISSES:     199797
DTLB LOAD ACCESSES:   78999949 HITS:   78823363 MISSES:     176586
DTLB RFO ACCESSES:   32609851 HITS:   32586640 MISSES:      23211
DTLB PREFETCH ACCESSES:          0 HITS:          0 MISSES:          0
DTLB WRITEBACK ACCESSES:          0 HITS:          0 MISSES:          0
DTLB RQ ACCESS:  157180707
DTLB RQ TO_CACHE:  111609800
DTLB RQ MERGED:   45570907
DTLB RQ FORWARD:          0
DTLB WQ ACCESS:          0
DTLB WQ TO_CACHE:          0
DTLB WQ MERGED:          0
DTLB WQ FORWARD:          0
L1D TOTAL     ACCESS:  198233994  HIT:  188392922  MISS:    9841072
L1D LOAD      ACCESS:   79949557  HIT:   75686640  MISS:    4262917
L1D RFO       ACCESS:   44532606  HIT:   43632241  MISS:     900365
L1D PREFETCH  ACCESS:   73751831  HIT:   69074041  MISS:    4677790
L1D WRITEBACK ACCESS:          0  HIT:          0  MISS:          0
L1D PREFETCH  REQUESTED:   80345205  ISSUED:   79889528  USEFUL:    1819533  USELESS:    2858166
L1D TOTAL MSHR MERGED:    2494388
L1D LOAD MSHR MERGED:     520031
L1D RFO MSHR MERGED:    1420223
L1D PREFETCH MSHR MERGED:     554134
L1D WRITEBACK MSHR MERGED:          0
L1D TOTAL ACCESSES:  200749633 HITS:  188414173 MISSES:   12335460
L1D LOAD ACCESSES:   80357797 HITS:   75699232 MISSES:    4658565
L1D RFO ACCESSES:   45949822 HITS:   43632241 MISSES:    2317581
L1D PREFETCH ACCESSES:   74442014 HITS:   69082700 MISSES:    5359314
L1D WRITEBACK ACCESSES:          0 HITS:          0 MISSES:          0
L1D RQ ACCESS:  109538737
L1D RQ TO_CACHE:   80345205
L1D RQ MERGED:   29180940
L1D RQ FORWARD:          0
L1D WQ ACCESS:   47641970
L1D WQ TO_CACHE:   45949822
L1D WQ MERGED:    1692148
L1D WQ FORWARD:      21251
L1I TOTAL     ACCESS:  161534705  HIT:  161270730  MISS:     263975
L1I LOAD      ACCESS:  161534705  HIT:  161270730  MISS:     263975
L1I RFO       ACCESS:          0  HIT:          0  MISS:          0
L1I PREFETCH  ACCESS:          0  HIT:          0  MISS:          0
L1I WRITEBACK ACCESS:          0  HIT:          0  MISS:          0
L1I PREFETCH  REQUESTED:          0  ISSUED:          0  USEFUL:          0  USELESS:          0
L1I TOTAL MSHR MERGED:     260917
L1I LOAD MSHR MERGED:     260917
L1I RFO MSHR MERGED:          0
L1I PREFETCH MSHR MERGED:          0
L1I WRITEBACK MSHR MERGED:          0
L1I TOTAL ACCESSES:  161795622 HITS:  161270730 MISSES:     524892
L1I LOAD ACCESSES:  161795622 HITS:  161270730 MISSES:     524892
L1I RFO ACCESSES:          0 HITS:          0 MISSES:          0
L1I PREFETCH ACCESSES:          0 HITS:          0 MISSES:          0
L1I WRITEBACK ACCESSES:          0 HITS:          0 MISSES:          0
L1I RQ ACCESS:  500000202
L1I RQ TO_CACHE:  161795622
L1I RQ MERGED:  338204580
L1I RQ FORWARD:          0
L1I WQ ACCESS:          0
L1I WQ TO_CACHE:          0
L1I WQ MERGED:          0
L1I WQ FORWARD:          0
L2C TOTAL     ACCESS:   11771930  HIT:   10382616  MISS:    1389314
L2C LOAD      ACCESS:    4402443  HIT:    3905857  MISS:     496586
L2C RFO       ACCESS:     897292  HIT:     536258  MISS:     361034
L2C PREFETCH  ACCESS:    5284652  HIT:    4755902  MISS:     528750
L2C WRITEBACK ACCESS:    1187543  HIT:    1184599  MISS:       2944
L2C PREFETCH  REQUESTED:     504756  ISSUED:     504756  USEFUL:     114997  USELESS:     413947
L2C TOTAL MSHR MERGED:       1976
L2C LOAD MSHR MERGED:        394
L2C RFO MSHR MERGED:          0
L2C PREFETCH MSHR MERGED:       1582
L2C WRITEBACK MSHR MERGED:          0
L2C TOTAL ACCESSES:   11776609 HITS:   10382835 MISSES:    1393774
L2C LOAD ACCESSES:    4402509 HITS:    3905923 MISSES:     496586
L2C RFO ACCESSES:     897358 HITS:     536324 MISSES:     361034
L2C PREFETCH ACCESSES:    5289199 HITS:    4755989 MISSES:     533210
L2C WRITEBACK ACCESSES:    1187543 HITS:    1184599 MISSES:       2944
L2C RQ ACCESS:    5299867
L2C RQ TO_CACHE:    5299735
L2C RQ MERGED:          0
L2C RQ FORWARD:          0
L2C WQ ACCESS:    1187543
L2C WQ TO_CACHE:    1187543
L2C WQ MERGED:          0
L2C WQ FORWARD:        219
LLC TOTAL     ACCESS:    1849497  HIT:    1157520  MISS:     691977
LLC LOAD      ACCESS:     496190  HIT:     253985  MISS:     242205
LLC RFO       ACCESS:     361030  HIT:     231434  MISS:     129596
LLC PREFETCH  ACCESS:     531537  HIT:     320262  MISS:     211275
LLC WRITEBACK ACCESS:     460740  HIT:     351839  MISS:     108901
LLC PREFETCH  REQUESTED:          0  ISSUED:          0  USEFUL:       2481  USELESS:     208856
LLC TOTAL MSHR MERGED:         66
LLC LOAD MSHR MERGED:         24
LLC RFO MSHR MERGED:          0
LLC PREFETCH MSHR MERGED:         42
LLC WRITEBACK MSHR MERGED:          0
LLC TOTAL ACCESSES:    1849587 HITS:    1157544 MISSES:     692043
LLC LOAD ACCESSES:     496192 HITS:     253987 MISSES:     242205
LLC RFO ACCESSES:     361034 HITS:     231438 MISSES:     129596
LLC PREFETCH ACCESSES:     531621 HITS:     320280 MISSES:     211341
LLC WRITEBACK ACCESSES:     460740 HITS:     351839 MISSES:     108901
LLC 0 RQ ACCESS:     857226
LLC 0 RQ TO_CACHE:     857220
LLC 0 RQ MERGED:          0
LLC 0 RQ FORWARD:          0
LLC WQ ACCESS:     460740
LLC WQ TO_CACHE:     460740
LLC WQ MERGED:          0
LLC WQ FORWARD:         24
Major fault: 0 Minor fault: 3073
CPU 0 L1D next line prefetcher final stats
CPU 0 L2C PC-based stride prefetcher final stats
All Misses: 849388
All Hits: 1326801
SD Algo Stats - Switches: 0 SRR-Repls: 280455 BRR-Repls: 0

DRAM Statistics
 CHANNEL 0
 RQ ROW_BUFFER_HIT:     402911  ROW_BUFFER_MISS:     179970
 DBUS_CONGESTED:     435898
 WQ ROW_BUFFER_HIT:      25949  ROW_BUFFER_MISS:     110851  FULL:          0

 AVG_CONGESTED_CYCLE: 13
LOADS RETIRED: 120673965
INSTR RETIRED: 500000000
