
*** ChampSim Multicore Out-of-Order Simulator ***

Warmup Instructions: 100000000
Simulation Instructions: 500000000
Number of CPUs: 1
LLC sets: 2048
LLC ways: 16
Clean RRIP Policies: 1213230112132301 Dirty RRIP Policies: 2213130122131301 PSEL Width: 10 Track Set: 4294967295 PSEL Mask: 1 Demote Mask: 3044100030441000DS Algo: 0Window size: 0
Off-chip DRAM Size: 4096 MB Channels: 1 Width: 64-bit Data Rate: 1600 MT/s

CPU 0 runs /mnt/beegfs/iconst01/spec2017/Cam4.trace.gz
NOT SORTED
TRACE STRING: /mnt/beegfs/iconst01/spec2017/Cam4.trace.gz
SORTED
TRACE STRING: /mnt/beegfs/iconst01/spec2017/Cam4.trace.gz
INITIAL
TRACE STRING: /mnt/beegfs/iconst01/spec2017/Cam4.trace.gz

champsim_seed used: 325

CPU 0 L1D next line prefetcher
CPU 0 L2C IP-based stride prefetcher
Initialize DRRIP state
Assign rand_sets[0]: 454  LLC: 2048
rand_sets[0]: 454
Assign rand_sets[1]: 1662  LLC: 2048
rand_sets[1]: 1662
Assign rand_sets[2]: 1921  LLC: 2048
rand_sets[2]: 1921
Assign rand_sets[3]: 1131  LLC: 2048
rand_sets[3]: 1131
Assign rand_sets[4]: 331  LLC: 2048
rand_sets[4]: 331
Assign rand_sets[5]: 1531  LLC: 2048
rand_sets[5]: 1531
Assign rand_sets[6]: 482  LLC: 2048
rand_sets[6]: 482
Assign rand_sets[7]: 1275  LLC: 2048
rand_sets[7]: 1275
Assign rand_sets[8]: 1876  LLC: 2048
rand_sets[8]: 1876
Assign rand_sets[9]: 2038  LLC: 2048
rand_sets[9]: 2038
Assign rand_sets[10]: 701  LLC: 2048
rand_sets[10]: 701
Assign rand_sets[11]: 479  LLC: 2048
rand_sets[11]: 479
Assign rand_sets[12]: 892  LLC: 2048
rand_sets[12]: 892
Assign rand_sets[13]: 1820  LLC: 2048
rand_sets[13]: 1820
Assign rand_sets[14]: 1505  LLC: 2048
rand_sets[14]: 1505
Assign rand_sets[15]: 1159  LLC: 2048
rand_sets[15]: 1159
Assign rand_sets[16]: 513  LLC: 2048
rand_sets[16]: 513
Assign rand_sets[17]: 703  LLC: 2048
rand_sets[17]: 703
Assign rand_sets[18]: 561  LLC: 2048
rand_sets[18]: 561
Assign rand_sets[19]: 990  LLC: 2048
rand_sets[19]: 990
Assign rand_sets[20]: 342  LLC: 2048
rand_sets[20]: 342
Assign rand_sets[21]: 882  LLC: 2048
rand_sets[21]: 882
Assign rand_sets[22]: 15  LLC: 2048
rand_sets[22]: 15
Assign rand_sets[23]: 71  LLC: 2048
rand_sets[23]: 71
Assign rand_sets[24]: 1127  LLC: 2048
rand_sets[24]: 1127
Assign rand_sets[25]: 1382  LLC: 2048
rand_sets[25]: 1382
Assign rand_sets[26]: 647  LLC: 2048
rand_sets[26]: 647
Assign rand_sets[27]: 857  LLC: 2048
rand_sets[27]: 857
Assign rand_sets[28]: 1450  LLC: 2048
rand_sets[28]: 1450
Assign rand_sets[29]: 1160  LLC: 2048
rand_sets[29]: 1160
Assign rand_sets[30]: 1852  LLC: 2048
rand_sets[30]: 1852
Assign rand_sets[31]: 1881  LLC: 2048
rand_sets[31]: 1881
Assign rand_sets[32]: 1770  LLC: 2048
rand_sets[32]: 1770
Assign rand_sets[33]: 1622  LLC: 2048
rand_sets[33]: 1622
Assign rand_sets[34]: 275  LLC: 2048
rand_sets[34]: 275
Assign rand_sets[35]: 635  LLC: 2048
rand_sets[35]: 635
Assign rand_sets[36]: 466  LLC: 2048
rand_sets[36]: 466
Assign rand_sets[37]: 1413  LLC: 2048
rand_sets[37]: 1413
Assign rand_sets[38]: 417  LLC: 2048
rand_sets[38]: 417
Assign rand_sets[39]: 472  LLC: 2048
rand_sets[39]: 472
Assign rand_sets[40]: 1340  LLC: 2048
rand_sets[40]: 1340
Assign rand_sets[41]: 852  LLC: 2048
rand_sets[41]: 852
Assign rand_sets[42]: 1365  LLC: 2048
rand_sets[42]: 1365
Assign rand_sets[43]: 47  LLC: 2048
rand_sets[43]: 47
Assign rand_sets[44]: 823  LLC: 2048
rand_sets[44]: 823
Assign rand_sets[45]: 686  LLC: 2048
rand_sets[45]: 686
Assign rand_sets[46]: 1637  LLC: 2048
rand_sets[46]: 1637
Assign rand_sets[47]: 1115  LLC: 2048
rand_sets[47]: 1115
Assign rand_sets[48]: 986  LLC: 2048
rand_sets[48]: 986
Assign rand_sets[49]: 258  LLC: 2048
rand_sets[49]: 258
Assign rand_sets[50]: 633  LLC: 2048
rand_sets[50]: 633
Assign rand_sets[51]: 920  LLC: 2048
rand_sets[51]: 920
Assign rand_sets[52]: 204  LLC: 2048
rand_sets[52]: 204
Assign rand_sets[53]: 227  LLC: 2048
rand_sets[53]: 227
Assign rand_sets[54]: 1818  LLC: 2048
rand_sets[54]: 1818
Assign rand_sets[55]: 886  LLC: 2048
rand_sets[55]: 886
Assign rand_sets[56]: 1422  LLC: 2048
rand_sets[56]: 1422
Assign rand_sets[57]: 607  LLC: 2048
rand_sets[57]: 607
Assign rand_sets[58]: 217  LLC: 2048
rand_sets[58]: 217
Assign rand_sets[59]: 1945  LLC: 2048
rand_sets[59]: 1945
Assign rand_sets[60]: 143  LLC: 2048
rand_sets[60]: 143
Assign rand_sets[61]: 1311  LLC: 2048
rand_sets[61]: 1311
Assign rand_sets[62]: 319  LLC: 2048
rand_sets[62]: 319
Assign rand_sets[63]: 1846  LLC: 2048
rand_sets[63]: 1846
 CLEAN-RRIP-POLICY-1: 1-2-1-3-2-3-0-1- CLEAN-RRIP-POLICY-2: 1-2-1-3-2-3-0-1-
 DIRTY-RRIP-POLICY-1: 2-2-1-3-1-3-0-1- DIRTY-RRIP-POLICY-2: 2-2-1-3-1-3-0-1-
 PSEL width: 10
Heartbeat CPU 0 instructions: 10000000 cycles: 4859184 heartbeat IPC: 2.05796 cumulative IPC: 2.05796 (Simulation time: 0 hr 0 min 17 sec) 
Heartbeat CPU 0 instructions: 20000000 cycles: 9790786 heartbeat IPC: 2.02774 cumulative IPC: 2.04274 (Simulation time: 0 hr 0 min 33 sec) 
Heartbeat CPU 0 instructions: 30000001 cycles: 14562982 heartbeat IPC: 2.09547 cumulative IPC: 2.06002 (Simulation time: 0 hr 0 min 48 sec) 
Heartbeat CPU 0 instructions: 40000000 cycles: 19399969 heartbeat IPC: 2.0674 cumulative IPC: 2.06186 (Simulation time: 0 hr 1 min 5 sec) 
Heartbeat CPU 0 instructions: 50000000 cycles: 24256477 heartbeat IPC: 2.05909 cumulative IPC: 2.06131 (Simulation time: 0 hr 1 min 22 sec) 
Heartbeat CPU 0 instructions: 60000000 cycles: 29181920 heartbeat IPC: 2.03027 cumulative IPC: 2.05607 (Simulation time: 0 hr 1 min 39 sec) 
Heartbeat CPU 0 instructions: 70000001 cycles: 33956878 heartbeat IPC: 2.09426 cumulative IPC: 2.06144 (Simulation time: 0 hr 1 min 54 sec) 
Heartbeat CPU 0 instructions: 80000000 cycles: 38793147 heartbeat IPC: 2.06771 cumulative IPC: 2.06222 (Simulation time: 0 hr 2 min 12 sec) 
Heartbeat CPU 0 instructions: 90000002 cycles: 43647215 heartbeat IPC: 2.06013 cumulative IPC: 2.06199 (Simulation time: 0 hr 2 min 29 sec) 
Heartbeat CPU 0 instructions: 100000000 cycles: 48566035 heartbeat IPC: 2.03301 cumulative IPC: 2.05905 (Simulation time: 0 hr 2 min 46 sec) 

Warmup complete CPU 0 instructions: 100000001 cycles: 48566036 (Simulation time: 0 hr 2 min 46 sec) 

Heartbeat CPU 0 instructions: 110000000 cycles: 61737131 heartbeat IPC: 0.759238 cumulative IPC: 0.759238 (Simulation time: 0 hr 3 min 10 sec) 
Heartbeat CPU 0 instructions: 120000000 cycles: 75506557 heartbeat IPC: 0.726247 cumulative IPC: 0.742376 (Simulation time: 0 hr 3 min 35 sec) 
Heartbeat CPU 0 instructions: 130000000 cycles: 89260621 heartbeat IPC: 0.727058 cumulative IPC: 0.737199 (Simulation time: 0 hr 4 min 1 sec) 
Heartbeat CPU 0 instructions: 140000000 cycles: 103542498 heartbeat IPC: 0.700188 cumulative IPC: 0.727584 (Simulation time: 0 hr 4 min 27 sec) 
Heartbeat CPU 0 instructions: 150000003 cycles: 116782860 heartbeat IPC: 0.755267 cumulative IPC: 0.732957 (Simulation time: 0 hr 4 min 50 sec) 
Heartbeat CPU 0 instructions: 160000000 cycles: 130552505 heartbeat IPC: 0.726235 cumulative IPC: 0.731828 (Simulation time: 0 hr 5 min 16 sec) 
Heartbeat CPU 0 instructions: 170000001 cycles: 144345104 heartbeat IPC: 0.725027 cumulative IPC: 0.730849 (Simulation time: 0 hr 5 min 42 sec) 
Heartbeat CPU 0 instructions: 180000000 cycles: 158612290 heartbeat IPC: 0.700909 cumulative IPC: 0.726967 (Simulation time: 0 hr 6 min 8 sec) 
Heartbeat CPU 0 instructions: 190000003 cycles: 171815466 heartbeat IPC: 0.757394 cumulative IPC: 0.730227 (Simulation time: 0 hr 6 min 31 sec) 
Heartbeat CPU 0 instructions: 200000000 cycles: 185588248 heartbeat IPC: 0.72607 cumulative IPC: 0.729809 (Simulation time: 0 hr 6 min 57 sec) 
Heartbeat CPU 0 instructions: 210000002 cycles: 199382775 heartbeat IPC: 0.724925 cumulative IPC: 0.729362 (Simulation time: 0 hr 7 min 23 sec) 
Heartbeat CPU 0 instructions: 220000000 cycles: 213655712 heartbeat IPC: 0.700626 cumulative IPC: 0.726878 (Simulation time: 0 hr 7 min 49 sec) 
Heartbeat CPU 0 instructions: 230000001 cycles: 226789645 heartbeat IPC: 0.761387 cumulative IPC: 0.729421 (Simulation time: 0 hr 8 min 12 sec) 
Heartbeat CPU 0 instructions: 240000000 cycles: 240551285 heartbeat IPC: 0.726658 cumulative IPC: 0.729223 (Simulation time: 0 hr 8 min 38 sec) 
Heartbeat CPU 0 instructions: 250000001 cycles: 254295895 heartbeat IPC: 0.727558 cumulative IPC: 0.729111 (Simulation time: 0 hr 9 min 3 sec) 
Heartbeat CPU 0 instructions: 260000000 cycles: 268450702 heartbeat IPC: 0.706474 cumulative IPC: 0.727654 (Simulation time: 0 hr 9 min 29 sec) 
Heartbeat CPU 0 instructions: 270000003 cycles: 281694784 heartbeat IPC: 0.755054 cumulative IPC: 0.729211 (Simulation time: 0 hr 9 min 53 sec) 
Heartbeat CPU 0 instructions: 280000000 cycles: 295472360 heartbeat IPC: 0.725817 cumulative IPC: 0.729021 (Simulation time: 0 hr 10 min 18 sec) 
Heartbeat CPU 0 instructions: 290000001 cycles: 309261216 heartbeat IPC: 0.725223 cumulative IPC: 0.728821 (Simulation time: 0 hr 10 min 44 sec) 
Heartbeat CPU 0 instructions: 300000000 cycles: 323360122 heartbeat IPC: 0.709275 cumulative IPC: 0.727818 (Simulation time: 0 hr 11 min 10 sec) 
Heartbeat CPU 0 instructions: 310000000 cycles: 336657140 heartbeat IPC: 0.752048 cumulative IPC: 0.728936 (Simulation time: 0 hr 11 min 33 sec) 
Heartbeat CPU 0 instructions: 320000000 cycles: 350477233 heartbeat IPC: 0.723584 cumulative IPC: 0.728691 (Simulation time: 0 hr 11 min 59 sec) 
Heartbeat CPU 0 instructions: 330000000 cycles: 364280634 heartbeat IPC: 0.724459 cumulative IPC: 0.728506 (Simulation time: 0 hr 12 min 24 sec) 
Heartbeat CPU 0 instructions: 340000000 cycles: 378346165 heartbeat IPC: 0.710958 cumulative IPC: 0.727758 (Simulation time: 0 hr 12 min 50 sec) 
Heartbeat CPU 0 instructions: 350000000 cycles: 391685376 heartbeat IPC: 0.74967 cumulative IPC: 0.728609 (Simulation time: 0 hr 13 min 13 sec) 
Heartbeat CPU 0 instructions: 360000000 cycles: 405538968 heartbeat IPC: 0.721834 cumulative IPC: 0.728347 (Simulation time: 0 hr 13 min 38 sec) 
Heartbeat CPU 0 instructions: 370000003 cycles: 419347815 heartbeat IPC: 0.724174 cumulative IPC: 0.728191 (Simulation time: 0 hr 14 min 3 sec) 
Heartbeat CPU 0 instructions: 380000000 cycles: 433381371 heartbeat IPC: 0.712578 cumulative IPC: 0.727622 (Simulation time: 0 hr 14 min 29 sec) 
Heartbeat CPU 0 instructions: 390000003 cycles: 446732950 heartbeat IPC: 0.748975 cumulative IPC: 0.728338 (Simulation time: 0 hr 14 min 52 sec) 
Heartbeat CPU 0 instructions: 400000000 cycles: 460575187 heartbeat IPC: 0.722426 cumulative IPC: 0.728139 (Simulation time: 0 hr 15 min 17 sec) 
Heartbeat CPU 0 instructions: 410000000 cycles: 474353715 heartbeat IPC: 0.725767 cumulative IPC: 0.728062 (Simulation time: 0 hr 15 min 42 sec) 
Heartbeat CPU 0 instructions: 420000000 cycles: 488372467 heartbeat IPC: 0.71333 cumulative IPC: 0.727593 (Simulation time: 0 hr 16 min 8 sec) 
Heartbeat CPU 0 instructions: 430000003 cycles: 501744553 heartbeat IPC: 0.747827 cumulative IPC: 0.72819 (Simulation time: 0 hr 16 min 31 sec) 
Heartbeat CPU 0 instructions: 440000000 cycles: 515586444 heartbeat IPC: 0.722444 cumulative IPC: 0.72802 (Simulation time: 0 hr 16 min 56 sec) 
Heartbeat CPU 0 instructions: 450000000 cycles: 529386251 heartbeat IPC: 0.724648 cumulative IPC: 0.727923 (Simulation time: 0 hr 17 min 21 sec) 
Heartbeat CPU 0 instructions: 460000000 cycles: 543387084 heartbeat IPC: 0.714243 cumulative IPC: 0.727536 (Simulation time: 0 hr 17 min 46 sec) 
Heartbeat CPU 0 instructions: 470000001 cycles: 556759603 heartbeat IPC: 0.747802 cumulative IPC: 0.728069 (Simulation time: 0 hr 18 min 8 sec) 
Heartbeat CPU 0 instructions: 480000000 cycles: 570579194 heartbeat IPC: 0.72361 cumulative IPC: 0.727951 (Simulation time: 0 hr 18 min 33 sec) 
Heartbeat CPU 0 instructions: 490000002 cycles: 584349735 heartbeat IPC: 0.726188 cumulative IPC: 0.727906 (Simulation time: 0 hr 18 min 58 sec) 
Heartbeat CPU 0 instructions: 500000000 cycles: 598350677 heartbeat IPC: 0.714238 cumulative IPC: 0.727558 (Simulation time: 0 hr 19 min 23 sec) 
Heartbeat CPU 0 instructions: 510000002 cycles: 611738328 heartbeat IPC: 0.746957 cumulative IPC: 0.728019 (Simulation time: 0 hr 19 min 46 sec) 
Heartbeat CPU 0 instructions: 520000000 cycles: 625550932 heartbeat IPC: 0.723976 cumulative IPC: 0.727922 (Simulation time: 0 hr 20 min 11 sec) 
Heartbeat CPU 0 instructions: 530000003 cycles: 639300951 heartbeat IPC: 0.727272 cumulative IPC: 0.727907 (Simulation time: 0 hr 20 min 36 sec) 
Heartbeat CPU 0 instructions: 540000000 cycles: 653322454 heartbeat IPC: 0.71319 cumulative IPC: 0.727566 (Simulation time: 0 hr 21 min 1 sec) 
Heartbeat CPU 0 instructions: 550000003 cycles: 666709493 heartbeat IPC: 0.746991 cumulative IPC: 0.727986 (Simulation time: 0 hr 21 min 24 sec) 
Heartbeat CPU 0 instructions: 560000000 cycles: 680498809 heartbeat IPC: 0.725199 cumulative IPC: 0.727926 (Simulation time: 0 hr 21 min 49 sec) 
Heartbeat CPU 0 instructions: 570000001 cycles: 694279848 heartbeat IPC: 0.725635 cumulative IPC: 0.727877 (Simulation time: 0 hr 22 min 14 sec) 
Heartbeat CPU 0 instructions: 580000000 cycles: 708323092 heartbeat IPC: 0.712086 cumulative IPC: 0.727541 (Simulation time: 0 hr 22 min 39 sec) 
Heartbeat CPU 0 instructions: 590000000 cycles: 721645540 heartbeat IPC: 0.750613 cumulative IPC: 0.727997 (Simulation time: 0 hr 23 min 1 sec) 
Heartbeat CPU 0 instructions: 600000000 cycles: 735437925 heartbeat IPC: 0.725038 cumulative IPC: 0.727938 (Simulation time: 0 hr 23 min 26 sec) 
Finished CPU 0 instructions: 500000001 cycles: 686871897 cumulative IPC: 0.727938 (Simulation time: 0 hr 23 min 26 sec) 

CPU 0 Branch Prediction Accuracy: 97.5275% MPKI: 2.1997
Number of Branches: 44482865 Number of Mispredictions: 1099852
Number of LOAD Instructions: 144955155
Number of LOAD Instructions (ROI): 144955155
Number of STORE Instructions: 55921098
Number of STORE Instructions (ROI): 55921098
Total Destination Memory Operands: 57111147
Total Destination Memory Operands (ROI): 57111147
Total Source Memory Operands: 144955155
Total Source Memory Operands (ROI): 144955155
Number of DEPENDED LOADS: 13454791
Number of DEPENDED LOADS (ROI): 13454791
Number of SQ_ADDED: 57111126
Number of SQ_ADDED (ROI): 57111126
Number of LQ_ADDED: 174370237
Number of LQ_ADDED (ROI): 174370237
Number of Instructions read from trace: 600000256

ChampSim completed all CPUs

Region of Interest Statistics

CPU 0 cumulative IPC: 0.727938 instructions: 500000001 cycles: 686871897
ITLB TOTAL     ACCESS:  136067837  HIT:  136065284  MISS:       2553
ITLB LOAD      ACCESS:  136067837  HIT:  136065284  MISS:       2553
ITLB RFO       ACCESS:          0  HIT:          0  MISS:          0
ITLB PREFETCH  ACCESS:          0  HIT:          0  MISS:          0
ITLB WRITEBACK ACCESS:          0  HIT:          0  MISS:          0
ITLB PREFETCH  REQUESTED:          0  ISSUED:          0  USEFUL:          0  USELESS:          0
ITLB TOTAL MSHR MERGED:       4382
ITLB LOAD MSHR MERGED:       4382
ITLB RFO MSHR MERGED:          0
ITLB PREFETCH MSHR MERGED:          0
ITLB WRITEBACK MSHR MERGED:          0
ITLB TOTAL ACCESSES:  136072219 HITS:  136065284 MISSES:       6935
ITLB LOAD ACCESSES:  136072219 HITS:  136065284 MISSES:       6935
ITLB RFO ACCESSES:          0 HITS:          0 MISSES:          0
ITLB PREFETCH ACCESSES:          0 HITS:          0 MISSES:          0
ITLB WRITEBACK ACCESSES:          0 HITS:          0 MISSES:          0
ITLB RQ ACCESS:  500000202
ITLB RQ TO_CACHE:  136072219
ITLB RQ MERGED:  363927983
ITLB RQ FORWARD:          0
ITLB WQ ACCESS:          0
ITLB WQ TO_CACHE:          0
ITLB WQ MERGED:          0
ITLB WQ FORWARD:          0
DTLB TOTAL     ACCESS:  111550618  HIT:  111414423  MISS:     136195
DTLB LOAD      ACCESS:   78951440  HIT:   78825814  MISS:     125626
DTLB RFO       ACCESS:   32599178  HIT:   32588609  MISS:      10569
DTLB PREFETCH  ACCESS:          0  HIT:          0  MISS:          0
DTLB WRITEBACK ACCESS:          0  HIT:          0  MISS:          0
DTLB PREFETCH  REQUESTED:          0  ISSUED:          0  USEFUL:          0  USELESS:          0
DTLB TOTAL MSHR MERGED:      63554
DTLB LOAD MSHR MERGED:      50925
DTLB RFO MSHR MERGED:      12629
DTLB PREFETCH MSHR MERGED:          0
DTLB WRITEBACK MSHR MERGED:          0
DTLB TOTAL ACCESSES:  111614172 HITS:  111414423 MISSES:     199749
DTLB LOAD ACCESSES:   79002365 HITS:   78825814 MISSES:     176551
DTLB RFO ACCESSES:   32611807 HITS:   32588609 MISSES:      23198
DTLB PREFETCH ACCESSES:          0 HITS:          0 MISSES:          0
DTLB WRITEBACK ACCESSES:          0 HITS:          0 MISSES:          0
DTLB RQ ACCESS:  157180645
DTLB RQ TO_CACHE:  111614172
DTLB RQ MERGED:   45566473
DTLB RQ FORWARD:          0
DTLB WQ ACCESS:          0
DTLB WQ TO_CACHE:          0
DTLB WQ MERGED:          0
DTLB WQ FORWARD:          0
L1D TOTAL     ACCESS:  198220827  HIT:  188379773  MISS:    9841054
L1D LOAD      ACCESS:   79947571  HIT:   75684102  MISS:    4263469
L1D RFO       ACCESS:   44526499  HIT:   43626037  MISS:     900462
L1D PREFETCH  ACCESS:   73746757  HIT:   69069634  MISS:    4677123
L1D WRITEBACK ACCESS:          0  HIT:          0  MISS:          0
L1D PREFETCH  REQUESTED:   80346879  ISSUED:   79891183  USEFUL:    1818861  USELESS:    2858171
L1D TOTAL MSHR MERGED:    2511606
L1D LOAD MSHR MERGED:     524177
L1D RFO MSHR MERGED:    1426224
L1D PREFETCH MSHR MERGED:     561205
L1D WRITEBACK MSHR MERGED:          0
L1D TOTAL ACCESSES:  200753765 HITS:  188401105 MISSES:   12352660
L1D LOAD ACCESSES:   80359591 HITS:   75696814 MISSES:    4662777
L1D RFO ACCESSES:   45949670 HITS:   43626037 MISSES:    2323633
L1D PREFETCH ACCESSES:   74444504 HITS:   69078254 MISSES:    5366250
L1D WRITEBACK ACCESSES:          0 HITS:          0 MISSES:          0
L1D RQ ACCESS:  109538675
L1D RQ TO_CACHE:   80346879
L1D RQ MERGED:   29179084
L1D RQ FORWARD:          0
L1D WQ ACCESS:   47641970
L1D WQ TO_CACHE:   45949670
L1D WQ MERGED:    1692300
L1D WQ FORWARD:      21332
L1I TOTAL     ACCESS:  161537638  HIT:  161273671  MISS:     263967
L1I LOAD      ACCESS:  161537638  HIT:  161273671  MISS:     263967
L1I RFO       ACCESS:          0  HIT:          0  MISS:          0
L1I PREFETCH  ACCESS:          0  HIT:          0  MISS:          0
L1I WRITEBACK ACCESS:          0  HIT:          0  MISS:          0
L1I PREFETCH  REQUESTED:          0  ISSUED:          0  USEFUL:          0  USELESS:          0
L1I TOTAL MSHR MERGED:     261127
L1I LOAD MSHR MERGED:     261127
L1I RFO MSHR MERGED:          0
L1I PREFETCH MSHR MERGED:          0
L1I WRITEBACK MSHR MERGED:          0
L1I TOTAL ACCESSES:  161798765 HITS:  161273671 MISSES:     525094
L1I LOAD ACCESSES:  161798765 HITS:  161273671 MISSES:     525094
L1I RFO ACCESSES:          0 HITS:          0 MISSES:          0
L1I PREFETCH ACCESSES:          0 HITS:          0 MISSES:          0
L1I WRITEBACK ACCESSES:          0 HITS:          0 MISSES:          0
L1I RQ ACCESS:  500000202
L1I RQ TO_CACHE:  161798765
L1I RQ MERGED:  338201437
L1I RQ FORWARD:          0
L1I WQ ACCESS:          0
L1I WQ TO_CACHE:          0
L1I WQ MERGED:          0
L1I WQ FORWARD:          0
L2C TOTAL     ACCESS:   11771469  HIT:   10382205  MISS:    1389264
L2C LOAD      ACCESS:    4402503  HIT:    3905837  MISS:     496666
L2C RFO       ACCESS:     897341  HIT:     536315  MISS:     361026
L2C PREFETCH  ACCESS:    5284093  HIT:    4755469  MISS:     528624
L2C WRITEBACK ACCESS:    1187532  HIT:    1184584  MISS:       2948
L2C PREFETCH  REQUESTED:     504451  ISSUED:     504451  USEFUL:     114915  USELESS:     413901
L2C TOTAL MSHR MERGED:       2188
L2C LOAD MSHR MERGED:        426
L2C RFO MSHR MERGED:          0
L2C PREFETCH MSHR MERGED:       1762
L2C WRITEBACK MSHR MERGED:          0
L2C TOTAL ACCESSES:   11776345 HITS:   10382425 MISSES:    1393920
L2C LOAD ACCESSES:    4402567 HITS:    3905901 MISSES:     496666
L2C RFO ACCESSES:     897409 HITS:     536383 MISSES:     361026
L2C PREFETCH ACCESSES:    5288837 HITS:    4755557 MISSES:     533280
L2C WRITEBACK ACCESSES:    1187532 HITS:    1184584 MISSES:       2948
L2C RQ ACCESS:    5299976
L2C RQ TO_CACHE:    5299844
L2C RQ MERGED:          0
L2C RQ FORWARD:          0
L2C WQ ACCESS:    1187532
L2C WQ TO_CACHE:    1187532
L2C WQ MERGED:          0
L2C WQ FORWARD:        220
LLC TOTAL     ACCESS:    1849399  HIT:    1079447  MISS:     769952
LLC LOAD      ACCESS:     496238  HIT:     219991  MISS:     276247
LLC RFO       ACCESS:     361021  HIT:     221981  MISS:     139040
LLC PREFETCH  ACCESS:     531414  HIT:     300661  MISS:     230753
LLC WRITEBACK ACCESS:     460726  HIT:     336814  MISS:     123912
LLC PREFETCH  REQUESTED:          0  ISSUED:          0  USEFUL:       4265  USELESS:     226798
LLC TOTAL MSHR MERGED:         74
LLC LOAD MSHR MERGED:         32
LLC RFO MSHR MERGED:          0
LLC PREFETCH MSHR MERGED:         42
LLC WRITEBACK MSHR MERGED:          0
LLC TOTAL ACCESSES:    1849499 HITS:    1079473 MISSES:     770026
LLC LOAD ACCESSES:     496240 HITS:     219993 MISSES:     276247
LLC RFO ACCESSES:     361026 HITS:     221986 MISSES:     139040
LLC PREFETCH ACCESSES:     531507 HITS:     300680 MISSES:     230827
LLC WRITEBACK ACCESSES:     460726 HITS:     336814 MISSES:     123912
LLC 0 RQ ACCESS:     857266
LLC 0 RQ TO_CACHE:     857259
LLC 0 RQ MERGED:          0
LLC 0 RQ FORWARD:          0
LLC WQ ACCESS:     460726
LLC WQ TO_CACHE:     460726
LLC WQ MERGED:          0
LLC WQ FORWARD:         26
Major fault: 0 Minor fault: 3073
CPU 0 L1D next line prefetcher final stats
CPU 0 L2C PC-based stride prefetcher final stats
All Misses: 932723
All Hits: 1243368
SD Algo Stats - Switches: 0 SRR-Repls: 314671 BRR-Repls: 0

DRAM Statistics
 CHANNEL 0
 RQ ROW_BUFFER_HIT:     421602  ROW_BUFFER_MISS:     224174
 DBUS_CONGESTED:     463947
 WQ ROW_BUFFER_HIT:      16235  ROW_BUFFER_MISS:     131917  FULL:          0

 AVG_CONGESTED_CYCLE: 13
LOADS RETIRED: 120673965
INSTR RETIRED: 500000000
