
*** ChampSim Multicore Out-of-Order Simulator ***

Warmup Instructions: 100000000
Simulation Instructions: 500000000
Number of CPUs: 1
LLC sets: 2048
LLC ways: 16
Clean RRIP Policies: 2322031023220310 Dirty RRIP Policies: 302030003020300 PSEL Width: 10 Track Set: 4294967295 PSEL Mask: 1 Demote Mask: 22210400222104DS Algo: 0Window size: 0
Off-chip DRAM Size: 4096 MB Channels: 1 Width: 64-bit Data Rate: 1600 MT/s

CPU 0 runs /mnt/beegfs/iconst01/spec2017/Mcf.trace.gz
NOT SORTED
TRACE STRING: /mnt/beegfs/iconst01/spec2017/Mcf.trace.gz
SORTED
TRACE STRING: /mnt/beegfs/iconst01/spec2017/Mcf.trace.gz
INITIAL
TRACE STRING: /mnt/beegfs/iconst01/spec2017/Mcf.trace.gz

champsim_seed used: 278

CPU 0 L1D next line prefetcher
CPU 0 L2C IP-based stride prefetcher
Initialize DRRIP state
Assign rand_sets[0]: 454  LLC: 2048
rand_sets[0]: 454
Assign rand_sets[1]: 1662  LLC: 2048
rand_sets[1]: 1662
Assign rand_sets[2]: 1921  LLC: 2048
rand_sets[2]: 1921
Assign rand_sets[3]: 1131  LLC: 2048
rand_sets[3]: 1131
Assign rand_sets[4]: 331  LLC: 2048
rand_sets[4]: 331
Assign rand_sets[5]: 1531  LLC: 2048
rand_sets[5]: 1531
Assign rand_sets[6]: 482  LLC: 2048
rand_sets[6]: 482
Assign rand_sets[7]: 1275  LLC: 2048
rand_sets[7]: 1275
Assign rand_sets[8]: 1876  LLC: 2048
rand_sets[8]: 1876
Assign rand_sets[9]: 2038  LLC: 2048
rand_sets[9]: 2038
Assign rand_sets[10]: 701  LLC: 2048
rand_sets[10]: 701
Assign rand_sets[11]: 479  LLC: 2048
rand_sets[11]: 479
Assign rand_sets[12]: 892  LLC: 2048
rand_sets[12]: 892
Assign rand_sets[13]: 1820  LLC: 2048
rand_sets[13]: 1820
Assign rand_sets[14]: 1505  LLC: 2048
rand_sets[14]: 1505
Assign rand_sets[15]: 1159  LLC: 2048
rand_sets[15]: 1159
Assign rand_sets[16]: 513  LLC: 2048
rand_sets[16]: 513
Assign rand_sets[17]: 703  LLC: 2048
rand_sets[17]: 703
Assign rand_sets[18]: 561  LLC: 2048
rand_sets[18]: 561
Assign rand_sets[19]: 990  LLC: 2048
rand_sets[19]: 990
Assign rand_sets[20]: 342  LLC: 2048
rand_sets[20]: 342
Assign rand_sets[21]: 882  LLC: 2048
rand_sets[21]: 882
Assign rand_sets[22]: 15  LLC: 2048
rand_sets[22]: 15
Assign rand_sets[23]: 71  LLC: 2048
rand_sets[23]: 71
Assign rand_sets[24]: 1127  LLC: 2048
rand_sets[24]: 1127
Assign rand_sets[25]: 1382  LLC: 2048
rand_sets[25]: 1382
Assign rand_sets[26]: 647  LLC: 2048
rand_sets[26]: 647
Assign rand_sets[27]: 857  LLC: 2048
rand_sets[27]: 857
Assign rand_sets[28]: 1450  LLC: 2048
rand_sets[28]: 1450
Assign rand_sets[29]: 1160  LLC: 2048
rand_sets[29]: 1160
Assign rand_sets[30]: 1852  LLC: 2048
rand_sets[30]: 1852
Assign rand_sets[31]: 1881  LLC: 2048
rand_sets[31]: 1881
Assign rand_sets[32]: 1770  LLC: 2048
rand_sets[32]: 1770
Assign rand_sets[33]: 1622  LLC: 2048
rand_sets[33]: 1622
Assign rand_sets[34]: 275  LLC: 2048
rand_sets[34]: 275
Assign rand_sets[35]: 635  LLC: 2048
rand_sets[35]: 635
Assign rand_sets[36]: 466  LLC: 2048
rand_sets[36]: 466
Assign rand_sets[37]: 1413  LLC: 2048
rand_sets[37]: 1413
Assign rand_sets[38]: 417  LLC: 2048
rand_sets[38]: 417
Assign rand_sets[39]: 472  LLC: 2048
rand_sets[39]: 472
Assign rand_sets[40]: 1340  LLC: 2048
rand_sets[40]: 1340
Assign rand_sets[41]: 852  LLC: 2048
rand_sets[41]: 852
Assign rand_sets[42]: 1365  LLC: 2048
rand_sets[42]: 1365
Assign rand_sets[43]: 47  LLC: 2048
rand_sets[43]: 47
Assign rand_sets[44]: 823  LLC: 2048
rand_sets[44]: 823
Assign rand_sets[45]: 686  LLC: 2048
rand_sets[45]: 686
Assign rand_sets[46]: 1637  LLC: 2048
rand_sets[46]: 1637
Assign rand_sets[47]: 1115  LLC: 2048
rand_sets[47]: 1115
Assign rand_sets[48]: 986  LLC: 2048
rand_sets[48]: 986
Assign rand_sets[49]: 258  LLC: 2048
rand_sets[49]: 258
Assign rand_sets[50]: 633  LLC: 2048
rand_sets[50]: 633
Assign rand_sets[51]: 920  LLC: 2048
rand_sets[51]: 920
Assign rand_sets[52]: 204  LLC: 2048
rand_sets[52]: 204
Assign rand_sets[53]: 227  LLC: 2048
rand_sets[53]: 227
Assign rand_sets[54]: 1818  LLC: 2048
rand_sets[54]: 1818
Assign rand_sets[55]: 886  LLC: 2048
rand_sets[55]: 886
Assign rand_sets[56]: 1422  LLC: 2048
rand_sets[56]: 1422
Assign rand_sets[57]: 607  LLC: 2048
rand_sets[57]: 607
Assign rand_sets[58]: 217  LLC: 2048
rand_sets[58]: 217
Assign rand_sets[59]: 1945  LLC: 2048
rand_sets[59]: 1945
Assign rand_sets[60]: 143  LLC: 2048
rand_sets[60]: 143
Assign rand_sets[61]: 1311  LLC: 2048
rand_sets[61]: 1311
Assign rand_sets[62]: 319  LLC: 2048
rand_sets[62]: 319
Assign rand_sets[63]: 1846  LLC: 2048
rand_sets[63]: 1846
 CLEAN-RRIP-POLICY-1: 2-3-2-2-0-3-1-0- CLEAN-RRIP-POLICY-2: 2-3-2-2-0-3-1-0-
 DIRTY-RRIP-POLICY-1: 0-3-0-2-0-3-0-0- DIRTY-RRIP-POLICY-2: 0-3-0-2-0-3-0-0-
 PSEL width: 10
Heartbeat CPU 0 instructions: 10000002 cycles: 6248812 heartbeat IPC: 1.6003 cumulative IPC: 1.6003 (Simulation time: 0 hr 0 min 13 sec) 
Heartbeat CPU 0 instructions: 20000000 cycles: 12471122 heartbeat IPC: 1.60712 cumulative IPC: 1.6037 (Simulation time: 0 hr 0 min 26 sec) 
Heartbeat CPU 0 instructions: 30000000 cycles: 18683408 heartbeat IPC: 1.60971 cumulative IPC: 1.6057 (Simulation time: 0 hr 0 min 39 sec) 
Heartbeat CPU 0 instructions: 40000000 cycles: 24895693 heartbeat IPC: 1.60971 cumulative IPC: 1.6067 (Simulation time: 0 hr 0 min 52 sec) 
Heartbeat CPU 0 instructions: 50000003 cycles: 31109876 heartbeat IPC: 1.60922 cumulative IPC: 1.60721 (Simulation time: 0 hr 1 min 5 sec) 
Heartbeat CPU 0 instructions: 60000000 cycles: 37307433 heartbeat IPC: 1.61354 cumulative IPC: 1.60826 (Simulation time: 0 hr 1 min 19 sec) 
Heartbeat CPU 0 instructions: 70000003 cycles: 43527488 heartbeat IPC: 1.6077 cumulative IPC: 1.60818 (Simulation time: 0 hr 1 min 32 sec) 
Heartbeat CPU 0 instructions: 80000000 cycles: 49759442 heartbeat IPC: 1.60463 cumulative IPC: 1.60774 (Simulation time: 0 hr 1 min 45 sec) 
Heartbeat CPU 0 instructions: 90000000 cycles: 55990032 heartbeat IPC: 1.60498 cumulative IPC: 1.60743 (Simulation time: 0 hr 1 min 58 sec) 
Heartbeat CPU 0 instructions: 100000000 cycles: 62210572 heartbeat IPC: 1.60758 cumulative IPC: 1.60744 (Simulation time: 0 hr 2 min 12 sec) 

Warmup complete CPU 0 instructions: 100000001 cycles: 62210573 (Simulation time: 0 hr 2 min 12 sec) 

Heartbeat CPU 0 instructions: 110000000 cycles: 87660082 heartbeat IPC: 0.392935 cumulative IPC: 0.392935 (Simulation time: 0 hr 2 min 37 sec) 
Heartbeat CPU 0 instructions: 120000000 cycles: 113229424 heartbeat IPC: 0.391093 cumulative IPC: 0.392012 (Simulation time: 0 hr 3 min 3 sec) 
Heartbeat CPU 0 instructions: 130000000 cycles: 138927715 heartbeat IPC: 0.389131 cumulative IPC: 0.391047 (Simulation time: 0 hr 3 min 29 sec) 
Heartbeat CPU 0 instructions: 140000000 cycles: 164553596 heartbeat IPC: 0.39023 cumulative IPC: 0.390842 (Simulation time: 0 hr 3 min 55 sec) 
Heartbeat CPU 0 instructions: 150000003 cycles: 190087846 heartbeat IPC: 0.391631 cumulative IPC: 0.391 (Simulation time: 0 hr 4 min 21 sec) 
Heartbeat CPU 0 instructions: 160000000 cycles: 215943140 heartbeat IPC: 0.386768 cumulative IPC: 0.390288 (Simulation time: 0 hr 4 min 47 sec) 
Heartbeat CPU 0 instructions: 170000001 cycles: 241680106 heartbeat IPC: 0.388546 cumulative IPC: 0.390038 (Simulation time: 0 hr 5 min 13 sec) 
Heartbeat CPU 0 instructions: 180000000 cycles: 267433723 heartbeat IPC: 0.388295 cumulative IPC: 0.38982 (Simulation time: 0 hr 5 min 39 sec) 
Heartbeat CPU 0 instructions: 190000003 cycles: 293123415 heartbeat IPC: 0.389261 cumulative IPC: 0.389757 (Simulation time: 0 hr 6 min 5 sec) 
Heartbeat CPU 0 instructions: 200000000 cycles: 318852824 heartbeat IPC: 0.38866 cumulative IPC: 0.389647 (Simulation time: 0 hr 6 min 32 sec) 
Heartbeat CPU 0 instructions: 210000003 cycles: 344617275 heartbeat IPC: 0.388132 cumulative IPC: 0.389509 (Simulation time: 0 hr 6 min 58 sec) 
Heartbeat CPU 0 instructions: 220000000 cycles: 370662252 heartbeat IPC: 0.383951 cumulative IPC: 0.38904 (Simulation time: 0 hr 7 min 24 sec) 
Heartbeat CPU 0 instructions: 230000002 cycles: 396270926 heartbeat IPC: 0.390493 cumulative IPC: 0.389151 (Simulation time: 0 hr 7 min 50 sec) 
Heartbeat CPU 0 instructions: 240000000 cycles: 422289934 heartbeat IPC: 0.384334 cumulative IPC: 0.388803 (Simulation time: 0 hr 8 min 16 sec) 
Heartbeat CPU 0 instructions: 250000000 cycles: 448083233 heartbeat IPC: 0.387698 cumulative IPC: 0.388729 (Simulation time: 0 hr 8 min 42 sec) 
Heartbeat CPU 0 instructions: 260000000 cycles: 473934174 heartbeat IPC: 0.386833 cumulative IPC: 0.38861 (Simulation time: 0 hr 9 min 9 sec) 
Heartbeat CPU 0 instructions: 270000001 cycles: 499865299 heartbeat IPC: 0.385637 cumulative IPC: 0.388434 (Simulation time: 0 hr 9 min 35 sec) 
Heartbeat CPU 0 instructions: 280000000 cycles: 525732045 heartbeat IPC: 0.386597 cumulative IPC: 0.388332 (Simulation time: 0 hr 10 min 1 sec) 
Heartbeat CPU 0 instructions: 290000001 cycles: 551650678 heartbeat IPC: 0.385823 cumulative IPC: 0.388199 (Simulation time: 0 hr 10 min 28 sec) 
Heartbeat CPU 0 instructions: 300000000 cycles: 577835091 heartbeat IPC: 0.381907 cumulative IPC: 0.387879 (Simulation time: 0 hr 10 min 54 sec) 
Heartbeat CPU 0 instructions: 310000003 cycles: 603595041 heartbeat IPC: 0.3882 cumulative IPC: 0.387894 (Simulation time: 0 hr 11 min 20 sec) 
Heartbeat CPU 0 instructions: 320000000 cycles: 629755767 heartbeat IPC: 0.382252 cumulative IPC: 0.387634 (Simulation time: 0 hr 11 min 47 sec) 
Heartbeat CPU 0 instructions: 330000003 cycles: 655610066 heartbeat IPC: 0.386783 cumulative IPC: 0.387597 (Simulation time: 0 hr 12 min 13 sec) 
Heartbeat CPU 0 instructions: 340000000 cycles: 681802628 heartbeat IPC: 0.381788 cumulative IPC: 0.387352 (Simulation time: 0 hr 12 min 39 sec) 
Heartbeat CPU 0 instructions: 350000002 cycles: 708002775 heartbeat IPC: 0.381677 cumulative IPC: 0.387121 (Simulation time: 0 hr 13 min 5 sec) 
Heartbeat CPU 0 instructions: 360000000 cycles: 734403404 heartbeat IPC: 0.378779 cumulative IPC: 0.386794 (Simulation time: 0 hr 13 min 31 sec) 
Heartbeat CPU 0 instructions: 370000000 cycles: 760540540 heartbeat IPC: 0.382597 cumulative IPC: 0.386637 (Simulation time: 0 hr 13 min 57 sec) 
Heartbeat CPU 0 instructions: 380000000 cycles: 786494861 heartbeat IPC: 0.385292 cumulative IPC: 0.386589 (Simulation time: 0 hr 14 min 23 sec) 
Heartbeat CPU 0 instructions: 390000002 cycles: 812472181 heartbeat IPC: 0.384951 cumulative IPC: 0.386532 (Simulation time: 0 hr 14 min 49 sec) 
Heartbeat CPU 0 instructions: 400000000 cycles: 838681306 heartbeat IPC: 0.381546 cumulative IPC: 0.386364 (Simulation time: 0 hr 15 min 15 sec) 
Heartbeat CPU 0 instructions: 410000002 cycles: 864736393 heartbeat IPC: 0.383802 cumulative IPC: 0.38628 (Simulation time: 0 hr 15 min 41 sec) 
Heartbeat CPU 0 instructions: 420000000 cycles: 890590496 heartbeat IPC: 0.386786 cumulative IPC: 0.386296 (Simulation time: 0 hr 16 min 7 sec) 
Heartbeat CPU 0 instructions: 430000000 cycles: 916800618 heartbeat IPC: 0.381532 cumulative IPC: 0.38615 (Simulation time: 0 hr 16 min 33 sec) 
Heartbeat CPU 0 instructions: 440000000 cycles: 942643711 heartbeat IPC: 0.386951 cumulative IPC: 0.386174 (Simulation time: 0 hr 16 min 58 sec) 
Heartbeat CPU 0 instructions: 450000000 cycles: 969461135 heartbeat IPC: 0.372892 cumulative IPC: 0.385781 (Simulation time: 0 hr 17 min 25 sec) 
Heartbeat CPU 0 instructions: 460000000 cycles: 996208147 heartbeat IPC: 0.373874 cumulative IPC: 0.38544 (Simulation time: 0 hr 17 min 52 sec) 
Heartbeat CPU 0 instructions: 470000001 cycles: 1022676745 heartbeat IPC: 0.377806 cumulative IPC: 0.38523 (Simulation time: 0 hr 18 min 19 sec) 
Heartbeat CPU 0 instructions: 480000000 cycles: 1049399246 heartbeat IPC: 0.374216 cumulative IPC: 0.384931 (Simulation time: 0 hr 18 min 46 sec) 
Heartbeat CPU 0 instructions: 490000000 cycles: 1076191786 heartbeat IPC: 0.373238 cumulative IPC: 0.384623 (Simulation time: 0 hr 19 min 12 sec) 
Heartbeat CPU 0 instructions: 500000000 cycles: 1103331221 heartbeat IPC: 0.368468 cumulative IPC: 0.384201 (Simulation time: 0 hr 19 min 39 sec) 
Heartbeat CPU 0 instructions: 510000003 cycles: 1130336528 heartbeat IPC: 0.370298 cumulative IPC: 0.38385 (Simulation time: 0 hr 20 min 6 sec) 
Heartbeat CPU 0 instructions: 520000000 cycles: 1157611961 heartbeat IPC: 0.36663 cumulative IPC: 0.383421 (Simulation time: 0 hr 20 min 33 sec) 
Heartbeat CPU 0 instructions: 530000003 cycles: 1184864546 heartbeat IPC: 0.366938 cumulative IPC: 0.383021 (Simulation time: 0 hr 20 min 59 sec) 
Heartbeat CPU 0 instructions: 540000000 cycles: 1212055513 heartbeat IPC: 0.367769 cumulative IPC: 0.38266 (Simulation time: 0 hr 21 min 26 sec) 
Heartbeat CPU 0 instructions: 550000000 cycles: 1239214537 heartbeat IPC: 0.368202 cumulative IPC: 0.382327 (Simulation time: 0 hr 21 min 53 sec) 
Heartbeat CPU 0 instructions: 560000000 cycles: 1266778610 heartbeat IPC: 0.362791 cumulative IPC: 0.38188 (Simulation time: 0 hr 22 min 20 sec) 
Heartbeat CPU 0 instructions: 570000001 cycles: 1294284712 heartbeat IPC: 0.363556 cumulative IPC: 0.381471 (Simulation time: 0 hr 22 min 47 sec) 
Heartbeat CPU 0 instructions: 580000000 cycles: 1321826669 heartbeat IPC: 0.363082 cumulative IPC: 0.381068 (Simulation time: 0 hr 23 min 14 sec) 
Heartbeat CPU 0 instructions: 590000000 cycles: 1349583650 heartbeat IPC: 0.36027 cumulative IPC: 0.38062 (Simulation time: 0 hr 23 min 41 sec) 
Heartbeat CPU 0 instructions: 600000000 cycles: 1377472023 heartbeat IPC: 0.358572 cumulative IPC: 0.380153 (Simulation time: 0 hr 24 min 8 sec) 
Finished CPU 0 instructions: 500000003 cycles: 1315261464 cumulative IPC: 0.380153 (Simulation time: 0 hr 24 min 8 sec) 

CPU 0 Branch Prediction Accuracy: 91.1342% MPKI: 18.7968
Number of Branches: 106006945 Number of Mispredictions: 9398408
Number of LOAD Instructions: 207894007
Number of LOAD Instructions (ROI): 207894007
Number of STORE Instructions: 54285997
Number of STORE Instructions (ROI): 54285997
Total Destination Memory Operands: 57463404
Total Destination Memory Operands (ROI): 57463404
Total Source Memory Operands: 207894007
Total Source Memory Operands (ROI): 207894007
Number of DEPENDED LOADS: 18116394
Number of DEPENDED LOADS (ROI): 18116394
Number of SQ_ADDED: 57463404
Number of SQ_ADDED (ROI): 57463404
Number of LQ_ADDED: 209649453
Number of LQ_ADDED (ROI): 209649453
Number of Instructions read from trace: 600000039

ChampSim completed all CPUs

Region of Interest Statistics

CPU 0 cumulative IPC: 0.380153 instructions: 500000003 cycles: 1315261464
ITLB TOTAL     ACCESS:   96334135  HIT:   96334135  MISS:          0
ITLB LOAD      ACCESS:   96334135  HIT:   96334135  MISS:          0
ITLB RFO       ACCESS:          0  HIT:          0  MISS:          0
ITLB PREFETCH  ACCESS:          0  HIT:          0  MISS:          0
ITLB WRITEBACK ACCESS:          0  HIT:          0  MISS:          0
ITLB PREFETCH  REQUESTED:          0  ISSUED:          0  USEFUL:          0  USELESS:          0
ITLB TOTAL MSHR MERGED:          0
ITLB LOAD MSHR MERGED:          0
ITLB RFO MSHR MERGED:          0
ITLB PREFETCH MSHR MERGED:          0
ITLB WRITEBACK MSHR MERGED:          0
ITLB TOTAL ACCESSES:   96334135 HITS:   96334135 MISSES:          0
ITLB LOAD ACCESSES:   96334135 HITS:   96334135 MISSES:          0
ITLB RFO ACCESSES:          0 HITS:          0 MISSES:          0
ITLB PREFETCH ACCESSES:          0 HITS:          0 MISSES:          0
ITLB WRITEBACK ACCESSES:          0 HITS:          0 MISSES:          0
ITLB RQ ACCESS:  499999980
ITLB RQ TO_CACHE:   96334135
ITLB RQ MERGED:  403665845
ITLB RQ FORWARD:          0
ITLB WQ ACCESS:          0
ITLB WQ TO_CACHE:          0
ITLB WQ MERGED:          0
ITLB WQ FORWARD:          0
DTLB TOTAL     ACCESS:  155150910  HIT:  150238862  MISS:    4912048
DTLB LOAD      ACCESS:  117701876  HIT:  113311455  MISS:    4390421
DTLB RFO       ACCESS:   37449034  HIT:   36927407  MISS:     521627
DTLB PREFETCH  ACCESS:          0  HIT:          0  MISS:          0
DTLB WRITEBACK ACCESS:          0  HIT:          0  MISS:          0
DTLB PREFETCH  REQUESTED:          0  ISSUED:          0  USEFUL:          0  USELESS:          0
DTLB TOTAL MSHR MERGED:     448040
DTLB LOAD MSHR MERGED:     156843
DTLB RFO MSHR MERGED:     291197
DTLB PREFETCH MSHR MERGED:          0
DTLB WRITEBACK MSHR MERGED:          0
DTLB TOTAL ACCESSES:  155598950 HITS:  150238862 MISSES:    5360088
DTLB LOAD ACCESSES:  117858719 HITS:  113311455 MISSES:    4547264
DTLB RFO ACCESSES:   37740231 HITS:   36927407 MISSES:     812824
DTLB PREFETCH ACCESSES:          0 HITS:          0 MISSES:          0
DTLB WRITEBACK ACCESSES:          0 HITS:          0 MISSES:          0
DTLB RQ ACCESS:  205965675
DTLB RQ TO_CACHE:  155598950
DTLB RQ MERGED:   50366725
DTLB RQ FORWARD:          0
DTLB WQ ACCESS:          0
DTLB WQ TO_CACHE:          0
DTLB WQ MERGED:          0
DTLB WQ FORWARD:          0
L1D TOTAL     ACCESS:  276998694  HIT:  242178831  MISS:   34819863
L1D LOAD      ACCESS:  125420253  HIT:  107800398  MISS:   17619855
L1D RFO       ACCESS:   41117383  HIT:   38805662  MISS:    2311721
L1D PREFETCH  ACCESS:  110461058  HIT:   95572771  MISS:   14888287
L1D WRITEBACK ACCESS:          0  HIT:          0  MISS:          0
L1D PREFETCH  REQUESTED:  126236887  ISSUED:  124718003  USEFUL:    2723433  USELESS:   12164880
L1D TOTAL MSHR MERGED:    8571090
L1D LOAD MSHR MERGED:    1478548
L1D RFO MSHR MERGED:    3785812
L1D PREFETCH MSHR MERGED:    3306730
L1D WRITEBACK MSHR MERGED:          0
L1D TOTAL ACCESSES:  285657234 HITS:  242266279 MISSES:   43390955
L1D LOAD ACCESSES:  126236959 HITS:  107800470 MISSES:   18436489
L1D RFO ACCESSES:   44902701 HITS:   38805662 MISSES:    6097039
L1D PREFETCH ACCESSES:  114517574 HITS:   95660147 MISSES:   18857427
L1D WRITEBACK ACCESSES:          0 HITS:          0 MISSES:          0
L1D RQ ACCESS:  158418794
L1D RQ TO_CACHE:  126236887
L1D RQ MERGED:   32181835
L1D RQ FORWARD:          0
L1D WQ ACCESS:   47546882
L1D WQ TO_CACHE:   44902701
L1D WQ MERGED:    2644181
L1D WQ FORWARD:      87448
L1I TOTAL     ACCESS:  132722085  HIT:  132722085  MISS:          0
L1I LOAD      ACCESS:  132722085  HIT:  132722085  MISS:          0
L1I RFO       ACCESS:          0  HIT:          0  MISS:          0
L1I PREFETCH  ACCESS:          0  HIT:          0  MISS:          0
L1I WRITEBACK ACCESS:          0  HIT:          0  MISS:          0
L1I PREFETCH  REQUESTED:          0  ISSUED:          0  USEFUL:          0  USELESS:          0
L1I TOTAL MSHR MERGED:          0
L1I LOAD MSHR MERGED:          0
L1I RFO MSHR MERGED:          0
L1I PREFETCH MSHR MERGED:          0
L1I WRITEBACK MSHR MERGED:          0
L1I TOTAL ACCESSES:  132722085 HITS:  132722085 MISSES:          0
L1I LOAD ACCESSES:  132722085 HITS:  132722085 MISSES:          0
L1I RFO ACCESSES:          0 HITS:          0 MISSES:          0
L1I PREFETCH ACCESSES:          0 HITS:          0 MISSES:          0
L1I WRITEBACK ACCESSES:          0 HITS:          0 MISSES:          0
L1I RQ ACCESS:  499999980
L1I RQ TO_CACHE:  132722085
L1I RQ MERGED:  367277895
L1I RQ FORWARD:          0
L1I WQ ACCESS:          0
L1I WQ TO_CACHE:          0
L1I WQ MERGED:          0
L1I WQ FORWARD:          0
L2C TOTAL     ACCESS:   39599134  HIT:   20631122  MISS:   18968012
L2C LOAD      ACCESS:   16957886  HIT:    8566615  MISS:    8391271
L2C RFO       ACCESS:    2311177  HIT:     630806  MISS:    1680371
L2C PREFETCH  ACCESS:   17107771  HIT:    8215147  MISS:    8892624
L2C WRITEBACK ACCESS:    3222300  HIT:    3218554  MISS:       3746
L2C PREFETCH  REQUESTED:    2914313  ISSUED:    2914313  USEFUL:    1306818  USELESS:    7585555
L2C TOTAL MSHR MERGED:     530529
L2C LOAD MSHR MERGED:      92608
L2C RFO MSHR MERGED:          0
L2C PREFETCH MSHR MERGED:     437921
L2C WRITEBACK MSHR MERGED:          0
L2C TOTAL ACCESSES:   40299991 HITS:   20631274 MISSES:   19668717
L2C LOAD ACCESSES:   16957941 HITS:    8566670 MISSES:    8391271
L2C RFO ACCESSES:    2311227 HITS:     630856 MISSES:    1680371
L2C PREFETCH ACCESSES:   17808523 HITS:    8215194 MISSES:    9593329
L2C WRITEBACK ACCESSES:    3222300 HITS:    3218554 MISSES:       3746
L2C RQ ACCESS:   19269168
L2C RQ TO_CACHE:   19269063
L2C RQ MERGED:          0
L2C RQ FORWARD:          0
L2C WQ ACCESS:    3222300
L2C WQ TO_CACHE:    3222300
L2C WQ MERGED:          0
L2C WQ FORWARD:        152
LLC TOTAL     ACCESS:   21224076  HIT:   11899003  MISS:    9325073
LLC LOAD      ACCESS:    8298639  HIT:    5352542  MISS:    2946097
LLC RFO       ACCESS:    1680297  HIT:    1361872  MISS:     318425
LLC PREFETCH  ACCESS:    9069586  HIT:    3343160  MISS:    5726426
LLC WRITEBACK ACCESS:    2175554  HIT:    1841429  MISS:     334125
LLC PREFETCH  REQUESTED:          0  ISSUED:          0  USEFUL:     296660  USELESS:    5434951
LLC TOTAL MSHR MERGED:      72239
LLC LOAD MSHR MERGED:      23543
LLC RFO MSHR MERGED:          0
LLC PREFETCH MSHR MERGED:      48696
LLC WRITEBACK MSHR MERGED:          0
LLC TOTAL ACCESSES:   21296453 HITS:   11899139 MISSES:    9397314
LLC LOAD ACCESSES:    8298663 HITS:    5352566 MISSES:    2946097
LLC RFO ACCESSES:    1680371 HITS:    1361946 MISSES:     318425
LLC PREFETCH ACCESSES:    9141865 HITS:    3343198 MISSES:    5798667
LLC WRITEBACK ACCESSES:    2175554 HITS:    1841429 MISSES:     334125
LLC 0 RQ ACCESS:    9979034
LLC 0 RQ TO_CACHE:    9978936
LLC 0 RQ MERGED:          0
LLC 0 RQ FORWARD:          0
LLC WQ ACCESS:    2175555
LLC WQ TO_CACHE:    2175555
LLC WQ MERGED:          0
LLC WQ FORWARD:        136
Major fault: 0 Minor fault: 56391
CPU 0 L1D next line prefetcher final stats
CPU 0 L2C PC-based stride prefetcher final stats
All Misses: 10680646
All Hits: 13920259
SD Algo Stats - Switches: 0 SRR-Repls: 3075114 BRR-Repls: 0

DRAM Statistics
 CHANNEL 0
 RQ ROW_BUFFER_HIT:    4548605  ROW_BUFFER_MISS:    4389059
 DBUS_CONGESTED:    4583868
 WQ ROW_BUFFER_HIT:     117502  ROW_BUFFER_MISS:     544435  FULL:          0

 AVG_CONGESTED_CYCLE: 12
LOADS RETIRED: 173631671
INSTR RETIRED: 500000000
