
*** ChampSim Multicore Out-of-Order Simulator ***

Warmup Instructions: 100000000
Simulation Instructions: 500000000
Number of CPUs: 1
LLC sets: 2048
LLC ways: 16
Clean RRIP Policies: 2322031023220310 Dirty RRIP Policies: 302030003020300 PSEL Width: 10 Track Set: 4294967295 PSEL Mask: 1 Demote Mask: 22210400222104DS Algo: 0Window size: 0
Off-chip DRAM Size: 4096 MB Channels: 1 Width: 64-bit Data Rate: 1600 MT/s

CPU 0 runs /mnt/beegfs/iconst01/spec2017/Omnetpp.trace.gz
NOT SORTED
TRACE STRING: /mnt/beegfs/iconst01/spec2017/Omnetpp.trace.gz
SORTED
TRACE STRING: /mnt/beegfs/iconst01/spec2017/Omnetpp.trace.gz
INITIAL
TRACE STRING: /mnt/beegfs/iconst01/spec2017/Omnetpp.trace.gz

champsim_seed used: 739

CPU 0 L1D next line prefetcher
CPU 0 L2C IP-based stride prefetcher
Initialize DRRIP state
Assign rand_sets[0]: 454  LLC: 2048
rand_sets[0]: 454
Assign rand_sets[1]: 1662  LLC: 2048
rand_sets[1]: 1662
Assign rand_sets[2]: 1921  LLC: 2048
rand_sets[2]: 1921
Assign rand_sets[3]: 1131  LLC: 2048
rand_sets[3]: 1131
Assign rand_sets[4]: 331  LLC: 2048
rand_sets[4]: 331
Assign rand_sets[5]: 1531  LLC: 2048
rand_sets[5]: 1531
Assign rand_sets[6]: 482  LLC: 2048
rand_sets[6]: 482
Assign rand_sets[7]: 1275  LLC: 2048
rand_sets[7]: 1275
Assign rand_sets[8]: 1876  LLC: 2048
rand_sets[8]: 1876
Assign rand_sets[9]: 2038  LLC: 2048
rand_sets[9]: 2038
Assign rand_sets[10]: 701  LLC: 2048
rand_sets[10]: 701
Assign rand_sets[11]: 479  LLC: 2048
rand_sets[11]: 479
Assign rand_sets[12]: 892  LLC: 2048
rand_sets[12]: 892
Assign rand_sets[13]: 1820  LLC: 2048
rand_sets[13]: 1820
Assign rand_sets[14]: 1505  LLC: 2048
rand_sets[14]: 1505
Assign rand_sets[15]: 1159  LLC: 2048
rand_sets[15]: 1159
Assign rand_sets[16]: 513  LLC: 2048
rand_sets[16]: 513
Assign rand_sets[17]: 703  LLC: 2048
rand_sets[17]: 703
Assign rand_sets[18]: 561  LLC: 2048
rand_sets[18]: 561
Assign rand_sets[19]: 990  LLC: 2048
rand_sets[19]: 990
Assign rand_sets[20]: 342  LLC: 2048
rand_sets[20]: 342
Assign rand_sets[21]: 882  LLC: 2048
rand_sets[21]: 882
Assign rand_sets[22]: 15  LLC: 2048
rand_sets[22]: 15
Assign rand_sets[23]: 71  LLC: 2048
rand_sets[23]: 71
Assign rand_sets[24]: 1127  LLC: 2048
rand_sets[24]: 1127
Assign rand_sets[25]: 1382  LLC: 2048
rand_sets[25]: 1382
Assign rand_sets[26]: 647  LLC: 2048
rand_sets[26]: 647
Assign rand_sets[27]: 857  LLC: 2048
rand_sets[27]: 857
Assign rand_sets[28]: 1450  LLC: 2048
rand_sets[28]: 1450
Assign rand_sets[29]: 1160  LLC: 2048
rand_sets[29]: 1160
Assign rand_sets[30]: 1852  LLC: 2048
rand_sets[30]: 1852
Assign rand_sets[31]: 1881  LLC: 2048
rand_sets[31]: 1881
Assign rand_sets[32]: 1770  LLC: 2048
rand_sets[32]: 1770
Assign rand_sets[33]: 1622  LLC: 2048
rand_sets[33]: 1622
Assign rand_sets[34]: 275  LLC: 2048
rand_sets[34]: 275
Assign rand_sets[35]: 635  LLC: 2048
rand_sets[35]: 635
Assign rand_sets[36]: 466  LLC: 2048
rand_sets[36]: 466
Assign rand_sets[37]: 1413  LLC: 2048
rand_sets[37]: 1413
Assign rand_sets[38]: 417  LLC: 2048
rand_sets[38]: 417
Assign rand_sets[39]: 472  LLC: 2048
rand_sets[39]: 472
Assign rand_sets[40]: 1340  LLC: 2048
rand_sets[40]: 1340
Assign rand_sets[41]: 852  LLC: 2048
rand_sets[41]: 852
Assign rand_sets[42]: 1365  LLC: 2048
rand_sets[42]: 1365
Assign rand_sets[43]: 47  LLC: 2048
rand_sets[43]: 47
Assign rand_sets[44]: 823  LLC: 2048
rand_sets[44]: 823
Assign rand_sets[45]: 686  LLC: 2048
rand_sets[45]: 686
Assign rand_sets[46]: 1637  LLC: 2048
rand_sets[46]: 1637
Assign rand_sets[47]: 1115  LLC: 2048
rand_sets[47]: 1115
Assign rand_sets[48]: 986  LLC: 2048
rand_sets[48]: 986
Assign rand_sets[49]: 258  LLC: 2048
rand_sets[49]: 258
Assign rand_sets[50]: 633  LLC: 2048
rand_sets[50]: 633
Assign rand_sets[51]: 920  LLC: 2048
rand_sets[51]: 920
Assign rand_sets[52]: 204  LLC: 2048
rand_sets[52]: 204
Assign rand_sets[53]: 227  LLC: 2048
rand_sets[53]: 227
Assign rand_sets[54]: 1818  LLC: 2048
rand_sets[54]: 1818
Assign rand_sets[55]: 886  LLC: 2048
rand_sets[55]: 886
Assign rand_sets[56]: 1422  LLC: 2048
rand_sets[56]: 1422
Assign rand_sets[57]: 607  LLC: 2048
rand_sets[57]: 607
Assign rand_sets[58]: 217  LLC: 2048
rand_sets[58]: 217
Assign rand_sets[59]: 1945  LLC: 2048
rand_sets[59]: 1945
Assign rand_sets[60]: 143  LLC: 2048
rand_sets[60]: 143
Assign rand_sets[61]: 1311  LLC: 2048
rand_sets[61]: 1311
Assign rand_sets[62]: 319  LLC: 2048
rand_sets[62]: 319
Assign rand_sets[63]: 1846  LLC: 2048
rand_sets[63]: 1846
 CLEAN-RRIP-POLICY-1: 2-3-2-2-0-3-1-0- CLEAN-RRIP-POLICY-2: 2-3-2-2-0-3-1-0-
 DIRTY-RRIP-POLICY-1: 0-3-0-2-0-3-0-0- DIRTY-RRIP-POLICY-2: 0-3-0-2-0-3-0-0-
 PSEL width: 10
Heartbeat CPU 0 instructions: 10000000 cycles: 7321871 heartbeat IPC: 1.36577 cumulative IPC: 1.36577 (Simulation time: 0 hr 0 min 20 sec) 
Heartbeat CPU 0 instructions: 20000000 cycles: 14628319 heartbeat IPC: 1.36865 cumulative IPC: 1.36721 (Simulation time: 0 hr 0 min 40 sec) 
Heartbeat CPU 0 instructions: 30000003 cycles: 21932496 heartbeat IPC: 1.36908 cumulative IPC: 1.36783 (Simulation time: 0 hr 1 min 0 sec) 
Heartbeat CPU 0 instructions: 40000000 cycles: 29223498 heartbeat IPC: 1.37155 cumulative IPC: 1.36876 (Simulation time: 0 hr 1 min 20 sec) 
Heartbeat CPU 0 instructions: 50000000 cycles: 36502799 heartbeat IPC: 1.37376 cumulative IPC: 1.36976 (Simulation time: 0 hr 1 min 40 sec) 
Heartbeat CPU 0 instructions: 60000000 cycles: 43785799 heartbeat IPC: 1.37306 cumulative IPC: 1.37031 (Simulation time: 0 hr 2 min 1 sec) 
Heartbeat CPU 0 instructions: 70000001 cycles: 51074221 heartbeat IPC: 1.37204 cumulative IPC: 1.37055 (Simulation time: 0 hr 2 min 21 sec) 
Heartbeat CPU 0 instructions: 80000000 cycles: 58352408 heartbeat IPC: 1.37397 cumulative IPC: 1.37098 (Simulation time: 0 hr 2 min 42 sec) 
Heartbeat CPU 0 instructions: 90000000 cycles: 65661344 heartbeat IPC: 1.36819 cumulative IPC: 1.37067 (Simulation time: 0 hr 3 min 2 sec) 
Heartbeat CPU 0 instructions: 100000000 cycles: 72956081 heartbeat IPC: 1.37085 cumulative IPC: 1.37069 (Simulation time: 0 hr 3 min 23 sec) 

Warmup complete CPU 0 instructions: 100000002 cycles: 72956082 (Simulation time: 0 hr 3 min 23 sec) 

Heartbeat CPU 0 instructions: 110000002 cycles: 114723450 heartbeat IPC: 0.239421 cumulative IPC: 0.239421 (Simulation time: 0 hr 4 min 5 sec) 
Heartbeat CPU 0 instructions: 120000000 cycles: 156233792 heartbeat IPC: 0.240904 cumulative IPC: 0.24016 (Simulation time: 0 hr 4 min 47 sec) 
Heartbeat CPU 0 instructions: 130000002 cycles: 197905745 heartbeat IPC: 0.23997 cumulative IPC: 0.240097 (Simulation time: 0 hr 5 min 28 sec) 
Heartbeat CPU 0 instructions: 140000000 cycles: 239791804 heartbeat IPC: 0.238743 cumulative IPC: 0.239757 (Simulation time: 0 hr 6 min 11 sec) 
Heartbeat CPU 0 instructions: 150000002 cycles: 281238721 heartbeat IPC: 0.241273 cumulative IPC: 0.240058 (Simulation time: 0 hr 6 min 53 sec) 
Heartbeat CPU 0 instructions: 160000000 cycles: 322665909 heartbeat IPC: 0.241387 cumulative IPC: 0.240279 (Simulation time: 0 hr 7 min 35 sec) 
Heartbeat CPU 0 instructions: 170000001 cycles: 363188803 heartbeat IPC: 0.246774 cumulative IPC: 0.241186 (Simulation time: 0 hr 8 min 16 sec) 
Heartbeat CPU 0 instructions: 180000000 cycles: 404533946 heartbeat IPC: 0.241866 cumulative IPC: 0.241271 (Simulation time: 0 hr 8 min 57 sec) 
Heartbeat CPU 0 instructions: 190000002 cycles: 445880403 heartbeat IPC: 0.241859 cumulative IPC: 0.241336 (Simulation time: 0 hr 9 min 39 sec) 
Heartbeat CPU 0 instructions: 200000000 cycles: 488895313 heartbeat IPC: 0.232477 cumulative IPC: 0.24042 (Simulation time: 0 hr 10 min 22 sec) 
Heartbeat CPU 0 instructions: 210000003 cycles: 530286864 heartbeat IPC: 0.241595 cumulative IPC: 0.240526 (Simulation time: 0 hr 11 min 3 sec) 
Heartbeat CPU 0 instructions: 220000000 cycles: 571984343 heartbeat IPC: 0.239823 cumulative IPC: 0.240467 (Simulation time: 0 hr 11 min 46 sec) 
Heartbeat CPU 0 instructions: 230000000 cycles: 613625095 heartbeat IPC: 0.240149 cumulative IPC: 0.240443 (Simulation time: 0 hr 12 min 27 sec) 
Heartbeat CPU 0 instructions: 240000000 cycles: 654955393 heartbeat IPC: 0.241953 cumulative IPC: 0.24055 (Simulation time: 0 hr 13 min 8 sec) 
Heartbeat CPU 0 instructions: 250000000 cycles: 696354892 heartbeat IPC: 0.241549 cumulative IPC: 0.240616 (Simulation time: 0 hr 13 min 49 sec) 
Heartbeat CPU 0 instructions: 260000000 cycles: 737890507 heartbeat IPC: 0.240757 cumulative IPC: 0.240625 (Simulation time: 0 hr 14 min 30 sec) 
Heartbeat CPU 0 instructions: 270000000 cycles: 779580124 heartbeat IPC: 0.239868 cumulative IPC: 0.240581 (Simulation time: 0 hr 15 min 12 sec) 
Heartbeat CPU 0 instructions: 280000000 cycles: 821608356 heartbeat IPC: 0.237935 cumulative IPC: 0.240432 (Simulation time: 0 hr 15 min 53 sec) 
Heartbeat CPU 0 instructions: 290000001 cycles: 862673741 heartbeat IPC: 0.243514 cumulative IPC: 0.240592 (Simulation time: 0 hr 16 min 34 sec) 
Heartbeat CPU 0 instructions: 300000000 cycles: 904528015 heartbeat IPC: 0.238924 cumulative IPC: 0.240508 (Simulation time: 0 hr 17 min 14 sec) 
Heartbeat CPU 0 instructions: 310000000 cycles: 946465932 heartbeat IPC: 0.238448 cumulative IPC: 0.240409 (Simulation time: 0 hr 17 min 54 sec) 
Heartbeat CPU 0 instructions: 320000000 cycles: 988004553 heartbeat IPC: 0.24074 cumulative IPC: 0.240424 (Simulation time: 0 hr 18 min 34 sec) 
Heartbeat CPU 0 instructions: 330000000 cycles: 1029632511 heartbeat IPC: 0.240223 cumulative IPC: 0.240416 (Simulation time: 0 hr 19 min 14 sec) 
Heartbeat CPU 0 instructions: 340000000 cycles: 1071924645 heartbeat IPC: 0.236451 cumulative IPC: 0.240248 (Simulation time: 0 hr 19 min 55 sec) 
Heartbeat CPU 0 instructions: 350000001 cycles: 1113543353 heartbeat IPC: 0.240277 cumulative IPC: 0.240249 (Simulation time: 0 hr 20 min 35 sec) 
Heartbeat CPU 0 instructions: 360000000 cycles: 1155264406 heartbeat IPC: 0.239687 cumulative IPC: 0.240227 (Simulation time: 0 hr 21 min 15 sec) 
Heartbeat CPU 0 instructions: 370000000 cycles: 1196053718 heartbeat IPC: 0.245162 cumulative IPC: 0.240407 (Simulation time: 0 hr 21 min 54 sec) 
Heartbeat CPU 0 instructions: 380000000 cycles: 1237944223 heartbeat IPC: 0.238718 cumulative IPC: 0.240346 (Simulation time: 0 hr 22 min 34 sec) 
Heartbeat CPU 0 instructions: 390000001 cycles: 1279300373 heartbeat IPC: 0.241802 cumulative IPC: 0.240396 (Simulation time: 0 hr 23 min 14 sec) 
Heartbeat CPU 0 instructions: 400000000 cycles: 1320724311 heartbeat IPC: 0.241406 cumulative IPC: 0.240429 (Simulation time: 0 hr 23 min 53 sec) 
Heartbeat CPU 0 instructions: 410000000 cycles: 1361984752 heartbeat IPC: 0.242363 cumulative IPC: 0.240491 (Simulation time: 0 hr 24 min 33 sec) 
Heartbeat CPU 0 instructions: 420000000 cycles: 1403228756 heartbeat IPC: 0.242459 cumulative IPC: 0.240552 (Simulation time: 0 hr 25 min 12 sec) 
Heartbeat CPU 0 instructions: 430000000 cycles: 1444607310 heartbeat IPC: 0.241671 cumulative IPC: 0.240586 (Simulation time: 0 hr 25 min 52 sec) 
Heartbeat CPU 0 instructions: 440000000 cycles: 1485945842 heartbeat IPC: 0.241905 cumulative IPC: 0.240625 (Simulation time: 0 hr 26 min 32 sec) 
Heartbeat CPU 0 instructions: 450000002 cycles: 1527187065 heartbeat IPC: 0.242476 cumulative IPC: 0.240677 (Simulation time: 0 hr 27 min 11 sec) 
Heartbeat CPU 0 instructions: 460000000 cycles: 1567886444 heartbeat IPC: 0.245704 cumulative IPC: 0.240814 (Simulation time: 0 hr 27 min 51 sec) 
Heartbeat CPU 0 instructions: 470000000 cycles: 1609548126 heartbeat IPC: 0.240029 cumulative IPC: 0.240793 (Simulation time: 0 hr 28 min 30 sec) 
Heartbeat CPU 0 instructions: 480000000 cycles: 1650816544 heartbeat IPC: 0.242316 cumulative IPC: 0.240832 (Simulation time: 0 hr 29 min 10 sec) 
Heartbeat CPU 0 instructions: 490000001 cycles: 1692204408 heartbeat IPC: 0.241617 cumulative IPC: 0.240852 (Simulation time: 0 hr 29 min 50 sec) 
Heartbeat CPU 0 instructions: 500000000 cycles: 1733775614 heartbeat IPC: 0.240551 cumulative IPC: 0.240845 (Simulation time: 0 hr 30 min 29 sec) 
Heartbeat CPU 0 instructions: 510000000 cycles: 1774814899 heartbeat IPC: 0.243669 cumulative IPC: 0.240913 (Simulation time: 0 hr 31 min 7 sec) 
Heartbeat CPU 0 instructions: 520000000 cycles: 1816741309 heartbeat IPC: 0.238513 cumulative IPC: 0.240855 (Simulation time: 0 hr 31 min 45 sec) 
Heartbeat CPU 0 instructions: 530000000 cycles: 1858024071 heartbeat IPC: 0.242232 cumulative IPC: 0.240887 (Simulation time: 0 hr 32 min 23 sec) 
Heartbeat CPU 0 instructions: 540000000 cycles: 1899133811 heartbeat IPC: 0.243251 cumulative IPC: 0.24094 (Simulation time: 0 hr 33 min 0 sec) 
Heartbeat CPU 0 instructions: 550000001 cycles: 1940912360 heartbeat IPC: 0.239357 cumulative IPC: 0.240905 (Simulation time: 0 hr 33 min 38 sec) 
Heartbeat CPU 0 instructions: 560000000 cycles: 1982877072 heartbeat IPC: 0.238295 cumulative IPC: 0.240848 (Simulation time: 0 hr 34 min 16 sec) 
Heartbeat CPU 0 instructions: 570000003 cycles: 2024699242 heartbeat IPC: 0.239108 cumulative IPC: 0.24081 (Simulation time: 0 hr 34 min 54 sec) 
Heartbeat CPU 0 instructions: 580000000 cycles: 2066394730 heartbeat IPC: 0.239834 cumulative IPC: 0.24079 (Simulation time: 0 hr 35 min 32 sec) 
Heartbeat CPU 0 instructions: 590000001 cycles: 2108687476 heartbeat IPC: 0.236447 cumulative IPC: 0.2407 (Simulation time: 0 hr 36 min 11 sec) 
Heartbeat CPU 0 instructions: 600000000 cycles: 2150650149 heartbeat IPC: 0.238307 cumulative IPC: 0.240651 (Simulation time: 0 hr 36 min 49 sec) 
Finished CPU 0 instructions: 500000000 cycles: 2077694075 cumulative IPC: 0.240651 (Simulation time: 0 hr 36 min 49 sec) 

CPU 0 Branch Prediction Accuracy: 96.2429% MPKI: 5.85335
Number of Branches: 77897976 Number of Mispredictions: 2926674
Number of LOAD Instructions: 193081861
Number of LOAD Instructions (ROI): 193081861
Number of STORE Instructions: 97310749
Number of STORE Instructions (ROI): 97310749
Total Destination Memory Operands: 106368027
Total Destination Memory Operands (ROI): 106368027
Total Source Memory Operands: 193081861
Total Source Memory Operands (ROI): 193081861
Number of DEPENDED LOADS: 6582559
Number of DEPENDED LOADS (ROI): 6582559
Number of SQ_ADDED: 106367982
Number of SQ_ADDED (ROI): 106367982
Number of LQ_ADDED: 433462967
Number of LQ_ADDED (ROI): 433462967
Number of Instructions read from trace: 600000256

ChampSim completed all CPUs

Region of Interest Statistics

CPU 0 cumulative IPC: 0.240651 instructions: 500000000 cycles: 2077694075
ITLB TOTAL     ACCESS:  150399926  HIT:  150384095  MISS:      15831
ITLB LOAD      ACCESS:  150399926  HIT:  150384095  MISS:      15831
ITLB RFO       ACCESS:          0  HIT:          0  MISS:          0
ITLB PREFETCH  ACCESS:          0  HIT:          0  MISS:          0
ITLB WRITEBACK ACCESS:          0  HIT:          0  MISS:          0
ITLB PREFETCH  REQUESTED:          0  ISSUED:          0  USEFUL:          0  USELESS:          0
ITLB TOTAL MSHR MERGED:      18839
ITLB LOAD MSHR MERGED:      18839
ITLB RFO MSHR MERGED:          0
ITLB PREFETCH MSHR MERGED:          0
ITLB WRITEBACK MSHR MERGED:          0
ITLB TOTAL ACCESSES:  150418765 HITS:  150384095 MISSES:      34670
ITLB LOAD ACCESSES:  150418765 HITS:  150384095 MISSES:      34670
ITLB RFO ACCESSES:          0 HITS:          0 MISSES:          0
ITLB PREFETCH ACCESSES:          0 HITS:          0 MISSES:          0
ITLB WRITEBACK ACCESSES:          0 HITS:          0 MISSES:          0
ITLB RQ ACCESS:  500000242
ITLB RQ TO_CACHE:  150418765
ITLB RQ MERGED:  349581477
ITLB RQ FORWARD:          0
ITLB WQ ACCESS:          0
ITLB WQ TO_CACHE:          0
ITLB WQ MERGED:          0
ITLB WQ FORWARD:          0
DTLB TOTAL     ACCESS:  199436982  HIT:  194058072  MISS:    5378910
DTLB LOAD      ACCESS:  123016880  HIT:  117998454  MISS:    5018426
DTLB RFO       ACCESS:   76420102  HIT:   76059618  MISS:     360484
DTLB PREFETCH  ACCESS:          0  HIT:          0  MISS:          0
DTLB WRITEBACK ACCESS:          0  HIT:          0  MISS:          0
DTLB PREFETCH  REQUESTED:          0  ISSUED:          0  USEFUL:          0  USELESS:          0
DTLB TOTAL MSHR MERGED:     913714
DTLB LOAD MSHR MERGED:     805879
DTLB RFO MSHR MERGED:     107835
DTLB PREFETCH MSHR MERGED:          0
DTLB WRITEBACK MSHR MERGED:          0
DTLB TOTAL ACCESSES:  200350696 HITS:  194058072 MISSES:    6292624
DTLB LOAD ACCESSES:  123822759 HITS:  117998454 MISSES:    5824305
DTLB RFO ACCESSES:   76527937 HITS:   76059618 MISSES:     468319
DTLB PREFETCH ACCESSES:          0 HITS:          0 MISSES:          0
DTLB WRITEBACK ACCESSES:          0 HITS:          0 MISSES:          0
DTLB RQ ACCESS:  243743450
DTLB RQ TO_CACHE:  200350696
DTLB RQ MERGED:   43392754
DTLB RQ FORWARD:          0
DTLB WQ ACCESS:          0
DTLB WQ TO_CACHE:          0
DTLB WQ MERGED:          0
DTLB WQ FORWARD:          0
L1D TOTAL     ACCESS:  335216756  HIT:  317120970  MISS:   18095786
L1D LOAD      ACCESS:  127505623  HIT:  118553989  MISS:    8951634
L1D RFO       ACCESS:   86983894  HIT:   86169412  MISS:     814482
L1D PREFETCH  ACCESS:  120727239  HIT:  112397569  MISS:    8329670
L1D WRITEBACK ACCESS:          0  HIT:          0  MISS:          0
L1D PREFETCH  REQUESTED:  128359367  ISSUED:  126761193  USEFUL:    1731516  USELESS:    6598166
L1D TOTAL MSHR MERGED:    3972611
L1D LOAD MSHR MERGED:    1025148
L1D RFO MSHR MERGED:    1159047
L1D PREFETCH MSHR MERGED:    1788416
L1D WRITEBACK MSHR MERGED:          0
L1D TOTAL ACCESSES:  339281051 HITS:  317212654 MISSES:   22068397
L1D LOAD ACCESSES:  128359941 HITS:  118554563 MISSES:    9805378
L1D RFO ACCESSES:   88047567 HITS:   86169412 MISSES:    1878155
L1D PREFETCH ACCESSES:  122873543 HITS:  112488679 MISSES:   10384864
L1D WRITEBACK ACCESSES:          0 HITS:          0 MISSES:          0
L1D RQ ACCESS:  155112065
L1D RQ TO_CACHE:  128359367
L1D RQ MERGED:   26752124
L1D RQ FORWARD:          0
L1D WQ ACCESS:   88631385
L1D WQ TO_CACHE:   88047566
L1D WQ MERGED:     583819
L1D WQ FORWARD:      91684
L1I TOTAL     ACCESS:  174751358  HIT:  174484928  MISS:     266430
L1I LOAD      ACCESS:  174751358  HIT:  174484928  MISS:     266430
L1I RFO       ACCESS:          0  HIT:          0  MISS:          0
L1I PREFETCH  ACCESS:          0  HIT:          0  MISS:          0
L1I WRITEBACK ACCESS:          0  HIT:          0  MISS:          0
L1I PREFETCH  REQUESTED:          0  ISSUED:          0  USEFUL:          0  USELESS:          0
L1I TOTAL MSHR MERGED:     214232
L1I LOAD MSHR MERGED:     214232
L1I RFO MSHR MERGED:          0
L1I PREFETCH MSHR MERGED:          0
L1I WRITEBACK MSHR MERGED:          0
L1I TOTAL ACCESSES:  174965590 HITS:  174484928 MISSES:     480662
L1I LOAD ACCESSES:  174965590 HITS:  174484928 MISSES:     480662
L1I RFO ACCESSES:          0 HITS:          0 MISSES:          0
L1I PREFETCH ACCESSES:          0 HITS:          0 MISSES:          0
L1I WRITEBACK ACCESSES:          0 HITS:          0 MISSES:          0
L1I RQ ACCESS:  500000242
L1I RQ TO_CACHE:  174965590
L1I RQ MERGED:  325034652
L1I RQ FORWARD:          0
L1I WQ ACCESS:          0
L1I WQ TO_CACHE:          0
L1I WQ MERGED:          0
L1I WQ FORWARD:          0
L2C TOTAL     ACCESS:   23738140  HIT:   12112267  MISS:   11625873
L2C LOAD      ACCESS:    9045486  HIT:    3565276  MISS:    5480210
L2C RFO       ACCESS:     719050  HIT:     129401  MISS:     589649
L2C PREFETCH  ACCESS:    8613471  HIT:    3086175  MISS:    5527296
L2C WRITEBACK ACCESS:    5360133  HIT:    5331415  MISS:      28718
L2C PREFETCH  REQUESTED:      18063  ISSUED:      18063  USEFUL:     322869  USELESS:    5204602
L2C TOTAL MSHR MERGED:         24
L2C LOAD MSHR MERGED:          4
L2C RFO MSHR MERGED:          0
L2C PREFETCH MSHR MERGED:         20
L2C WRITEBACK MSHR MERGED:          0
L2C TOTAL ACCESSES:   23739951 HITS:   12114048 MISSES:   11625903
L2C LOAD ACCESSES:    9046660 HITS:    3566450 MISSES:    5480210
L2C RFO ACCESSES:     719108 HITS:     129459 MISSES:     589649
L2C PREFETCH ACCESSES:    8614050 HITS:    3086724 MISSES:    5527326
L2C WRITEBACK ACCESSES:    5360133 HITS:    5331415 MISSES:      28718
L2C RQ ACCESS:    9765768
L2C RQ TO_CACHE:    9764536
L2C RQ MERGED:          0
L2C RQ FORWARD:          0
L2C WQ ACCESS:    5360133
L2C WQ TO_CACHE:    5360133
L2C WQ MERGED:          0
L2C WQ FORWARD:       1781
LLC TOTAL     ACCESS:   15448855  HIT:    5659155  MISS:    9789700
LLC LOAD      ACCESS:    5480179  HIT:    1448988  MISS:    4031191
LLC RFO       ACCESS:     589648  HIT:     106049  MISS:     483599
LLC PREFETCH  ACCESS:    5527295  HIT:    1067918  MISS:    4459377
LLC WRITEBACK ACCESS:    3851733  HIT:    3036200  MISS:     815533
LLC PREFETCH  REQUESTED:          0  ISSUED:          0  USEFUL:     111320  USELESS:    4350166
LLC TOTAL MSHR MERGED:          0
LLC LOAD MSHR MERGED:          0
LLC RFO MSHR MERGED:          0
LLC PREFETCH MSHR MERGED:          0
LLC WRITEBACK MSHR MERGED:          0
LLC TOTAL ACCESSES:   15448894 HITS:    5659194 MISSES:    9789700
LLC LOAD ACCESSES:    5480206 HITS:    1449015 MISSES:    4031191
LLC RFO ACCESSES:     589649 HITS:     106050 MISSES:     483599
LLC PREFETCH ACCESSES:    5527306 HITS:    1067929 MISSES:    4459377
LLC WRITEBACK ACCESSES:    3851733 HITS:    3036200 MISSES:     815533
LLC 0 RQ ACCESS:    6069855
LLC 0 RQ TO_CACHE:    6069827
LLC 0 RQ MERGED:          0
LLC 0 RQ FORWARD:          0
LLC WQ ACCESS:    3851733
LLC WQ TO_CACHE:    3851733
LLC WQ MERGED:          0
LLC WQ FORWARD:         39
Major fault: 0 Minor fault: 44814
CPU 0 L1D next line prefetcher final stats
CPU 0 L2C PC-based stride prefetcher final stats
All Misses: 11807165
All Hits: 6814211
SD Algo Stats - Switches: 0 SRR-Repls: 4610971 BRR-Repls: 0

DRAM Statistics
 CHANNEL 0
 RQ ROW_BUFFER_HIT:    1500022  ROW_BUFFER_MISS:    7468838
 DBUS_CONGESTED:    6893096
 WQ ROW_BUFFER_HIT:     336411  ROW_BUFFER_MISS:    2978678  FULL:          0

 AVG_CONGESTED_CYCLE: 13
LOADS RETIRED: 160808997
INSTR RETIRED: 500000000
