
*** ChampSim Multicore Out-of-Order Simulator ***

Warmup Instructions: 100000000
Simulation Instructions: 500000000
Number of CPUs: 1
LLC sets: 2048
LLC ways: 16
Clean RRIP Policies: 1213230112132301 Dirty RRIP Policies: 2213031122130311 PSEL Width: 10 Track Set: 4294967295 PSEL Mask: 1 Demote Mask: 3343011033430110DS Algo: 0Window size: 0
Off-chip DRAM Size: 4096 MB Channels: 1 Width: 64-bit Data Rate: 1600 MT/s

CPU 0 runs /mnt/beegfs/iconst01/spec2017/Roms.trace.gz
NOT SORTED
TRACE STRING: /mnt/beegfs/iconst01/spec2017/Roms.trace.gz
SORTED
TRACE STRING: /mnt/beegfs/iconst01/spec2017/Roms.trace.gz
INITIAL
TRACE STRING: /mnt/beegfs/iconst01/spec2017/Roms.trace.gz

champsim_seed used: 417

CPU 0 L1D next line prefetcher
CPU 0 L2C IP-based stride prefetcher
Initialize DRRIP state
Assign rand_sets[0]: 454  LLC: 2048
rand_sets[0]: 454
Assign rand_sets[1]: 1662  LLC: 2048
rand_sets[1]: 1662
Assign rand_sets[2]: 1921  LLC: 2048
rand_sets[2]: 1921
Assign rand_sets[3]: 1131  LLC: 2048
rand_sets[3]: 1131
Assign rand_sets[4]: 331  LLC: 2048
rand_sets[4]: 331
Assign rand_sets[5]: 1531  LLC: 2048
rand_sets[5]: 1531
Assign rand_sets[6]: 482  LLC: 2048
rand_sets[6]: 482
Assign rand_sets[7]: 1275  LLC: 2048
rand_sets[7]: 1275
Assign rand_sets[8]: 1876  LLC: 2048
rand_sets[8]: 1876
Assign rand_sets[9]: 2038  LLC: 2048
rand_sets[9]: 2038
Assign rand_sets[10]: 701  LLC: 2048
rand_sets[10]: 701
Assign rand_sets[11]: 479  LLC: 2048
rand_sets[11]: 479
Assign rand_sets[12]: 892  LLC: 2048
rand_sets[12]: 892
Assign rand_sets[13]: 1820  LLC: 2048
rand_sets[13]: 1820
Assign rand_sets[14]: 1505  LLC: 2048
rand_sets[14]: 1505
Assign rand_sets[15]: 1159  LLC: 2048
rand_sets[15]: 1159
Assign rand_sets[16]: 513  LLC: 2048
rand_sets[16]: 513
Assign rand_sets[17]: 703  LLC: 2048
rand_sets[17]: 703
Assign rand_sets[18]: 561  LLC: 2048
rand_sets[18]: 561
Assign rand_sets[19]: 990  LLC: 2048
rand_sets[19]: 990
Assign rand_sets[20]: 342  LLC: 2048
rand_sets[20]: 342
Assign rand_sets[21]: 882  LLC: 2048
rand_sets[21]: 882
Assign rand_sets[22]: 15  LLC: 2048
rand_sets[22]: 15
Assign rand_sets[23]: 71  LLC: 2048
rand_sets[23]: 71
Assign rand_sets[24]: 1127  LLC: 2048
rand_sets[24]: 1127
Assign rand_sets[25]: 1382  LLC: 2048
rand_sets[25]: 1382
Assign rand_sets[26]: 647  LLC: 2048
rand_sets[26]: 647
Assign rand_sets[27]: 857  LLC: 2048
rand_sets[27]: 857
Assign rand_sets[28]: 1450  LLC: 2048
rand_sets[28]: 1450
Assign rand_sets[29]: 1160  LLC: 2048
rand_sets[29]: 1160
Assign rand_sets[30]: 1852  LLC: 2048
rand_sets[30]: 1852
Assign rand_sets[31]: 1881  LLC: 2048
rand_sets[31]: 1881
Assign rand_sets[32]: 1770  LLC: 2048
rand_sets[32]: 1770
Assign rand_sets[33]: 1622  LLC: 2048
rand_sets[33]: 1622
Assign rand_sets[34]: 275  LLC: 2048
rand_sets[34]: 275
Assign rand_sets[35]: 635  LLC: 2048
rand_sets[35]: 635
Assign rand_sets[36]: 466  LLC: 2048
rand_sets[36]: 466
Assign rand_sets[37]: 1413  LLC: 2048
rand_sets[37]: 1413
Assign rand_sets[38]: 417  LLC: 2048
rand_sets[38]: 417
Assign rand_sets[39]: 472  LLC: 2048
rand_sets[39]: 472
Assign rand_sets[40]: 1340  LLC: 2048
rand_sets[40]: 1340
Assign rand_sets[41]: 852  LLC: 2048
rand_sets[41]: 852
Assign rand_sets[42]: 1365  LLC: 2048
rand_sets[42]: 1365
Assign rand_sets[43]: 47  LLC: 2048
rand_sets[43]: 47
Assign rand_sets[44]: 823  LLC: 2048
rand_sets[44]: 823
Assign rand_sets[45]: 686  LLC: 2048
rand_sets[45]: 686
Assign rand_sets[46]: 1637  LLC: 2048
rand_sets[46]: 1637
Assign rand_sets[47]: 1115  LLC: 2048
rand_sets[47]: 1115
Assign rand_sets[48]: 986  LLC: 2048
rand_sets[48]: 986
Assign rand_sets[49]: 258  LLC: 2048
rand_sets[49]: 258
Assign rand_sets[50]: 633  LLC: 2048
rand_sets[50]: 633
Assign rand_sets[51]: 920  LLC: 2048
rand_sets[51]: 920
Assign rand_sets[52]: 204  LLC: 2048
rand_sets[52]: 204
Assign rand_sets[53]: 227  LLC: 2048
rand_sets[53]: 227
Assign rand_sets[54]: 1818  LLC: 2048
rand_sets[54]: 1818
Assign rand_sets[55]: 886  LLC: 2048
rand_sets[55]: 886
Assign rand_sets[56]: 1422  LLC: 2048
rand_sets[56]: 1422
Assign rand_sets[57]: 607  LLC: 2048
rand_sets[57]: 607
Assign rand_sets[58]: 217  LLC: 2048
rand_sets[58]: 217
Assign rand_sets[59]: 1945  LLC: 2048
rand_sets[59]: 1945
Assign rand_sets[60]: 143  LLC: 2048
rand_sets[60]: 143
Assign rand_sets[61]: 1311  LLC: 2048
rand_sets[61]: 1311
Assign rand_sets[62]: 319  LLC: 2048
rand_sets[62]: 319
Assign rand_sets[63]: 1846  LLC: 2048
rand_sets[63]: 1846
 CLEAN-RRIP-POLICY-1: 1-2-1-3-2-3-0-1- CLEAN-RRIP-POLICY-2: 1-2-1-3-2-3-0-1-
 DIRTY-RRIP-POLICY-1: 2-2-1-3-0-3-1-1- DIRTY-RRIP-POLICY-2: 2-2-1-3-0-3-1-1-
 PSEL width: 10
Heartbeat CPU 0 instructions: 10000000 cycles: 4688066 heartbeat IPC: 2.13308 cumulative IPC: 2.13308 (Simulation time: 0 hr 0 min 17 sec) 
Heartbeat CPU 0 instructions: 20000000 cycles: 9325334 heartbeat IPC: 2.15644 cumulative IPC: 2.1447 (Simulation time: 0 hr 0 min 33 sec) 
Heartbeat CPU 0 instructions: 30000003 cycles: 14019727 heartbeat IPC: 2.1302 cumulative IPC: 2.13984 (Simulation time: 0 hr 0 min 50 sec) 
Heartbeat CPU 0 instructions: 40000000 cycles: 18670144 heartbeat IPC: 2.15034 cumulative IPC: 2.14246 (Simulation time: 0 hr 1 min 6 sec) 
Heartbeat CPU 0 instructions: 50000003 cycles: 23323508 heartbeat IPC: 2.14898 cumulative IPC: 2.14376 (Simulation time: 0 hr 1 min 23 sec) 
Heartbeat CPU 0 instructions: 60000000 cycles: 27976113 heartbeat IPC: 2.14933 cumulative IPC: 2.14469 (Simulation time: 0 hr 1 min 39 sec) 
Heartbeat CPU 0 instructions: 70000002 cycles: 32367412 heartbeat IPC: 2.27723 cumulative IPC: 2.16267 (Simulation time: 0 hr 1 min 54 sec) 
Heartbeat CPU 0 instructions: 80000000 cycles: 36304244 heartbeat IPC: 2.54011 cumulative IPC: 2.2036 (Simulation time: 0 hr 2 min 5 sec) 
Heartbeat CPU 0 instructions: 90000000 cycles: 40249665 heartbeat IPC: 2.53458 cumulative IPC: 2.23604 (Simulation time: 0 hr 2 min 17 sec) 
Heartbeat CPU 0 instructions: 100000000 cycles: 44212132 heartbeat IPC: 2.52368 cumulative IPC: 2.26182 (Simulation time: 0 hr 2 min 28 sec) 

Warmup complete CPU 0 instructions: 100000002 cycles: 44212133 (Simulation time: 0 hr 2 min 28 sec) 

Heartbeat CPU 0 instructions: 110000000 cycles: 53569386 heartbeat IPC: 1.06869 cumulative IPC: 1.06869 (Simulation time: 0 hr 2 min 47 sec) 
Heartbeat CPU 0 instructions: 120000000 cycles: 62908843 heartbeat IPC: 1.07073 cumulative IPC: 1.06971 (Simulation time: 0 hr 3 min 6 sec) 
Heartbeat CPU 0 instructions: 130000002 cycles: 72262609 heartbeat IPC: 1.06909 cumulative IPC: 1.0695 (Simulation time: 0 hr 3 min 24 sec) 
Heartbeat CPU 0 instructions: 140000000 cycles: 81439768 heartbeat IPC: 1.08966 cumulative IPC: 1.07447 (Simulation time: 0 hr 3 min 43 sec) 
Heartbeat CPU 0 instructions: 150000003 cycles: 90777829 heartbeat IPC: 1.07089 cumulative IPC: 1.07375 (Simulation time: 0 hr 4 min 2 sec) 
Heartbeat CPU 0 instructions: 160000000 cycles: 101586446 heartbeat IPC: 0.925187 cumulative IPC: 1.04576 (Simulation time: 0 hr 4 min 22 sec) 
Heartbeat CPU 0 instructions: 170000000 cycles: 114222105 heartbeat IPC: 0.791411 cumulative IPC: 0.999858 (Simulation time: 0 hr 4 min 45 sec) 
Heartbeat CPU 0 instructions: 180000000 cycles: 126845220 heartbeat IPC: 0.792197 cumulative IPC: 0.968135 (Simulation time: 0 hr 5 min 8 sec) 
Heartbeat CPU 0 instructions: 190000000 cycles: 139719286 heartbeat IPC: 0.776755 cumulative IPC: 0.942338 (Simulation time: 0 hr 5 min 31 sec) 
Heartbeat CPU 0 instructions: 200000000 cycles: 153610418 heartbeat IPC: 0.719884 cumulative IPC: 0.914091 (Simulation time: 0 hr 5 min 54 sec) 
Heartbeat CPU 0 instructions: 210000001 cycles: 167536948 heartbeat IPC: 0.718054 cumulative IPC: 0.891953 (Simulation time: 0 hr 6 min 16 sec) 
Heartbeat CPU 0 instructions: 220000000 cycles: 181308481 heartbeat IPC: 0.726135 cumulative IPC: 0.875297 (Simulation time: 0 hr 6 min 40 sec) 
Heartbeat CPU 0 instructions: 230000000 cycles: 194995704 heartbeat IPC: 0.730608 cumulative IPC: 0.862163 (Simulation time: 0 hr 7 min 3 sec) 
Heartbeat CPU 0 instructions: 240000000 cycles: 208727781 heartbeat IPC: 0.728222 cumulative IPC: 0.850983 (Simulation time: 0 hr 7 min 27 sec) 
Heartbeat CPU 0 instructions: 250000003 cycles: 219804060 heartbeat IPC: 0.902831 cumulative IPC: 0.854253 (Simulation time: 0 hr 7 min 49 sec) 
Heartbeat CPU 0 instructions: 260000000 cycles: 227637541 heartbeat IPC: 1.27657 cumulative IPC: 0.872289 (Simulation time: 0 hr 8 min 8 sec) 
Heartbeat CPU 0 instructions: 270000003 cycles: 236086174 heartbeat IPC: 1.18362 cumulative IPC: 0.885998 (Simulation time: 0 hr 8 min 27 sec) 
Heartbeat CPU 0 instructions: 280000000 cycles: 245547050 heartbeat IPC: 1.05698 cumulative IPC: 0.894033 (Simulation time: 0 hr 8 min 48 sec) 
Heartbeat CPU 0 instructions: 290000000 cycles: 254887543 heartbeat IPC: 1.07061 cumulative IPC: 0.901861 (Simulation time: 0 hr 9 min 8 sec) 
Heartbeat CPU 0 instructions: 300000000 cycles: 264192127 heartbeat IPC: 1.07474 cumulative IPC: 0.909174 (Simulation time: 0 hr 9 min 29 sec) 
Heartbeat CPU 0 instructions: 310000000 cycles: 273552468 heartbeat IPC: 1.06834 cumulative IPC: 0.91567 (Simulation time: 0 hr 9 min 50 sec) 
Heartbeat CPU 0 instructions: 320000000 cycles: 282842847 heartbeat IPC: 1.07638 cumulative IPC: 0.921927 (Simulation time: 0 hr 10 min 11 sec) 
Heartbeat CPU 0 instructions: 330000002 cycles: 292107617 heartbeat IPC: 1.07936 cumulative IPC: 0.92781 (Simulation time: 0 hr 10 min 32 sec) 
Heartbeat CPU 0 instructions: 340000000 cycles: 302639951 heartbeat IPC: 0.949457 cumulative IPC: 0.928693 (Simulation time: 0 hr 10 min 55 sec) 
Heartbeat CPU 0 instructions: 350000001 cycles: 311840202 heartbeat IPC: 1.08693 cumulative IPC: 0.934132 (Simulation time: 0 hr 11 min 15 sec) 
Heartbeat CPU 0 instructions: 360000000 cycles: 321067759 heartbeat IPC: 1.08371 cumulative IPC: 0.939118 (Simulation time: 0 hr 11 min 36 sec) 
Heartbeat CPU 0 instructions: 370000001 cycles: 330308135 heartbeat IPC: 1.08221 cumulative IPC: 0.943739 (Simulation time: 0 hr 11 min 56 sec) 
Heartbeat CPU 0 instructions: 380000000 cycles: 339484573 heartbeat IPC: 1.08975 cumulative IPC: 0.948277 (Simulation time: 0 hr 12 min 17 sec) 
Heartbeat CPU 0 instructions: 390000001 cycles: 348487088 heartbeat IPC: 1.1108 cumulative IPC: 0.953085 (Simulation time: 0 hr 12 min 37 sec) 
Heartbeat CPU 0 instructions: 400000000 cycles: 357583870 heartbeat IPC: 1.09929 cumulative IPC: 0.957329 (Simulation time: 0 hr 12 min 58 sec) 
Heartbeat CPU 0 instructions: 410000003 cycles: 366584011 heartbeat IPC: 1.11109 cumulative IPC: 0.961622 (Simulation time: 0 hr 13 min 18 sec) 
Heartbeat CPU 0 instructions: 420000000 cycles: 375665914 heartbeat IPC: 1.10109 cumulative IPC: 0.965444 (Simulation time: 0 hr 13 min 38 sec) 
Heartbeat CPU 0 instructions: 430000001 cycles: 384638555 heartbeat IPC: 1.1145 cumulative IPC: 0.969372 (Simulation time: 0 hr 13 min 59 sec) 
Heartbeat CPU 0 instructions: 440000000 cycles: 393588723 heartbeat IPC: 1.1173 cumulative IPC: 0.973162 (Simulation time: 0 hr 14 min 19 sec) 
Heartbeat CPU 0 instructions: 450000000 cycles: 404162960 heartbeat IPC: 0.945695 cumulative IPC: 0.972355 (Simulation time: 0 hr 14 min 41 sec) 
Heartbeat CPU 0 instructions: 460000000 cycles: 413131402 heartbeat IPC: 1.11502 cumulative IPC: 0.975823 (Simulation time: 0 hr 15 min 1 sec) 
Heartbeat CPU 0 instructions: 470000003 cycles: 421961280 heartbeat IPC: 1.13252 cumulative IPC: 0.979486 (Simulation time: 0 hr 15 min 22 sec) 
Heartbeat CPU 0 instructions: 480000000 cycles: 430823935 heartbeat IPC: 1.12833 cumulative IPC: 0.982898 (Simulation time: 0 hr 15 min 42 sec) 
Heartbeat CPU 0 instructions: 490000000 cycles: 439645101 heartbeat IPC: 1.13364 cumulative IPC: 0.986261 (Simulation time: 0 hr 16 min 2 sec) 
Heartbeat CPU 0 instructions: 500000000 cycles: 448479330 heartbeat IPC: 1.13196 cumulative IPC: 0.989445 (Simulation time: 0 hr 16 min 22 sec) 
Heartbeat CPU 0 instructions: 510000001 cycles: 457264259 heartbeat IPC: 1.13831 cumulative IPC: 0.992611 (Simulation time: 0 hr 16 min 42 sec) 
Heartbeat CPU 0 instructions: 520000000 cycles: 466093994 heartbeat IPC: 1.13254 cumulative IPC: 0.995539 (Simulation time: 0 hr 17 min 2 sec) 
Heartbeat CPU 0 instructions: 530000001 cycles: 474918641 heartbeat IPC: 1.13319 cumulative IPC: 0.99836 (Simulation time: 0 hr 17 min 22 sec) 
Heartbeat CPU 0 instructions: 540000000 cycles: 483936254 heartbeat IPC: 1.10894 cumulative IPC: 1.00063 (Simulation time: 0 hr 17 min 43 sec) 
Heartbeat CPU 0 instructions: 550000001 cycles: 492991691 heartbeat IPC: 1.10431 cumulative IPC: 1.00272 (Simulation time: 0 hr 18 min 3 sec) 
Heartbeat CPU 0 instructions: 560000000 cycles: 501893050 heartbeat IPC: 1.12342 cumulative IPC: 1.00507 (Simulation time: 0 hr 18 min 23 sec) 
Heartbeat CPU 0 instructions: 570000001 cycles: 514707945 heartbeat IPC: 0.780342 cumulative IPC: 0.998946 (Simulation time: 0 hr 18 min 46 sec) 
Heartbeat CPU 0 instructions: 580000000 cycles: 527419785 heartbeat IPC: 0.786668 cumulative IPC: 0.993362 (Simulation time: 0 hr 19 min 8 sec) 
Heartbeat CPU 0 instructions: 590000001 cycles: 540392517 heartbeat IPC: 0.770848 cumulative IPC: 0.987544 (Simulation time: 0 hr 19 min 31 sec) 
Heartbeat CPU 0 instructions: 600000000 cycles: 553124148 heartbeat IPC: 0.785445 cumulative IPC: 0.982488 (Simulation time: 0 hr 19 min 53 sec) 
Finished CPU 0 instructions: 500000001 cycles: 508912028 cumulative IPC: 0.982488 (Simulation time: 0 hr 19 min 53 sec) 

CPU 0 Branch Prediction Accuracy: 99.7422% MPKI: 0.173296
Number of Branches: 33608403 Number of Mispredictions: 86648
Number of LOAD Instructions: 180215231
Number of LOAD Instructions (ROI): 180215231
Number of STORE Instructions: 36067263
Number of STORE Instructions (ROI): 36067263
Total Destination Memory Operands: 38428915
Total Destination Memory Operands (ROI): 38428915
Total Source Memory Operands: 180215231
Total Source Memory Operands (ROI): 180215231
Number of DEPENDED LOADS: 3042090
Number of DEPENDED LOADS (ROI): 3042090
Number of SQ_ADDED: 38428892
Number of SQ_ADDED (ROI): 38428892
Number of LQ_ADDED: 208230967
Number of LQ_ADDED (ROI): 208230967
Number of Instructions read from trace: 600000257

ChampSim completed all CPUs

Region of Interest Statistics

CPU 0 cumulative IPC: 0.982488 instructions: 500000001 cycles: 508912028
ITLB TOTAL     ACCESS:   92201113  HIT:   92201094  MISS:         19
ITLB LOAD      ACCESS:   92201113  HIT:   92201094  MISS:         19
ITLB RFO       ACCESS:          0  HIT:          0  MISS:          0
ITLB PREFETCH  ACCESS:          0  HIT:          0  MISS:          0
ITLB WRITEBACK ACCESS:          0  HIT:          0  MISS:          0
ITLB PREFETCH  REQUESTED:          0  ISSUED:          0  USEFUL:          0  USELESS:          0
ITLB TOTAL MSHR MERGED:         40
ITLB LOAD MSHR MERGED:         40
ITLB RFO MSHR MERGED:          0
ITLB PREFETCH MSHR MERGED:          0
ITLB WRITEBACK MSHR MERGED:          0
ITLB TOTAL ACCESSES:   92201153 HITS:   92201094 MISSES:         59
ITLB LOAD ACCESSES:   92201153 HITS:   92201094 MISSES:         59
ITLB RFO ACCESSES:          0 HITS:          0 MISSES:          0
ITLB PREFETCH ACCESSES:          0 HITS:          0 MISSES:          0
ITLB WRITEBACK ACCESSES:          0 HITS:          0 MISSES:          0
ITLB RQ ACCESS:  500000003
ITLB RQ TO_CACHE:   92201153
ITLB RQ MERGED:  407798850
ITLB RQ FORWARD:          0
ITLB WQ ACCESS:          0
ITLB WQ TO_CACHE:          0
ITLB WQ MERGED:          0
ITLB WQ FORWARD:          0
DTLB TOTAL     ACCESS:  141871298  HIT:  141504836  MISS:     366462
DTLB LOAD      ACCESS:  119268324  HIT:  118954738  MISS:     313586
DTLB RFO       ACCESS:   22602974  HIT:   22550098  MISS:      52876
DTLB PREFETCH  ACCESS:          0  HIT:          0  MISS:          0
DTLB WRITEBACK ACCESS:          0  HIT:          0  MISS:          0
DTLB PREFETCH  REQUESTED:          0  ISSUED:          0  USEFUL:          0  USELESS:          0
DTLB TOTAL MSHR MERGED:     286181
DTLB LOAD MSHR MERGED:     237912
DTLB RFO MSHR MERGED:      48269
DTLB PREFETCH MSHR MERGED:          0
DTLB WRITEBACK MSHR MERGED:          0
DTLB TOTAL ACCESSES:  142157479 HITS:  141504836 MISSES:     652643
DTLB LOAD ACCESSES:  119506236 HITS:  118954738 MISSES:     551498
DTLB RFO ACCESSES:   22651243 HITS:   22550098 MISSES:     101145
DTLB PREFETCH ACCESSES:          0 HITS:          0 MISSES:          0
DTLB WRITEBACK ACCESSES:          0 HITS:          0 MISSES:          0
DTLB RQ ACCESS:  184790887
DTLB RQ TO_CACHE:  142157479
DTLB RQ MERGED:   42633408
DTLB RQ FORWARD:          0
DTLB WQ ACCESS:          0
DTLB WQ TO_CACHE:          0
DTLB WQ MERGED:          0
DTLB WQ FORWARD:          0
L1D TOTAL     ACCESS:  185132491  HIT:  171694884  MISS:   13437607
L1D LOAD      ACCESS:  111363498  HIT:  107710740  MISS:    3652758
L1D RFO       ACCESS:   17037400  HIT:   14255659  MISS:    2781741
L1D PREFETCH  ACCESS:   56731593  HIT:   49728485  MISS:    7003108
L1D WRITEBACK ACCESS:          0  HIT:          0  MISS:          0
L1D PREFETCH  REQUESTED:  116421113  ISSUED:  115064853  USEFUL:    6793957  USELESS:     209152
L1D TOTAL MSHR MERGED:   36856087
L1D LOAD MSHR MERGED:    8154642
L1D RFO MSHR MERGED:   11215158
L1D PREFETCH MSHR MERGED:   17486287
L1D WRITEBACK MSHR MERGED:          0
L1D TOTAL ACCESSES:  221989705 HITS:  171696009 MISSES:   50293696
L1D LOAD ACCESSES:  116421868 HITS:  107711495 MISSES:    8710373
L1D RFO ACCESSES:   28252493 HITS:   14255659 MISSES:   13996834
L1D PREFETCH ACCESSES:   77315344 HITS:   49728855 MISSES:   27586489
L1D WRITEBACK ACCESSES:          0 HITS:          0 MISSES:          0
L1D RQ ACCESS:  156534821
L1D RQ TO_CACHE:  116421116
L1D RQ MERGED:   40112950
L1D RQ FORWARD:          0
L1D WQ ACCESS:   28256066
L1D WQ TO_CACHE:   28252493
L1D WQ MERGED:       3573
L1D WQ FORWARD:       1125
L1I TOTAL     ACCESS:  116198219  HIT:  116197271  MISS:        948
L1I LOAD      ACCESS:  116198219  HIT:  116197271  MISS:        948
L1I RFO       ACCESS:          0  HIT:          0  MISS:          0
L1I PREFETCH  ACCESS:          0  HIT:          0  MISS:          0
L1I WRITEBACK ACCESS:          0  HIT:          0  MISS:          0
L1I PREFETCH  REQUESTED:          0  ISSUED:          0  USEFUL:          0  USELESS:          0
L1I TOTAL MSHR MERGED:       1576
L1I LOAD MSHR MERGED:       1576
L1I RFO MSHR MERGED:          0
L1I PREFETCH MSHR MERGED:          0
L1I WRITEBACK MSHR MERGED:          0
L1I TOTAL ACCESSES:  116199795 HITS:  116197271 MISSES:       2524
L1I LOAD ACCESSES:  116199795 HITS:  116197271 MISSES:       2524
L1I RFO ACCESSES:          0 HITS:          0 MISSES:          0
L1I PREFETCH ACCESSES:          0 HITS:          0 MISSES:          0
L1I WRITEBACK ACCESSES:          0 HITS:          0 MISSES:          0
L1I RQ ACCESS:  500000007
L1I RQ TO_CACHE:  116199795
L1I RQ MERGED:  383800212
L1I RQ FORWARD:          0
L1I WQ ACCESS:          0
L1I WQ TO_CACHE:          0
L1I WQ MERGED:          0
L1I WQ FORWARD:          0
L2C TOTAL     ACCESS:   16682682  HIT:    4838526  MISS:   11844156
L2C LOAD      ACCESS:     556646  HIT:      95313  MISS:     461333
L2C RFO       ACCESS:    2781676  HIT:     266803  MISS:    2514873
L2C PREFETCH  ACCESS:   10123757  HIT:    1258080  MISS:    8865677
L2C WRITEBACK ACCESS:    3220603  HIT:    3218330  MISS:       2273
L2C PREFETCH  REQUESTED:      25781  ISSUED:      25781  USEFUL:      92709  USELESS:    8771042
L2C TOTAL MSHR MERGED:        570
L2C LOAD MSHR MERGED:         16
L2C RFO MSHR MERGED:          0
L2C PREFETCH MSHR MERGED:        554
L2C WRITEBACK MSHR MERGED:          0
L2C TOTAL ACCESSES:   16683490 HITS:    4838579 MISSES:   11844911
L2C LOAD ACCESSES:     556679 HITS:      95346 MISSES:     461333
L2C RFO ACCESSES:    2781676 HITS:     266803 MISSES:    2514873
L2C PREFETCH ACCESSES:   10124532 HITS:    1258100 MISSES:    8866432
L2C WRITEBACK ACCESSES:    3220603 HITS:    3218330 MISSES:       2273
L2C RQ ACCESS:    3338355
L2C RQ TO_CACHE:    3338322
L2C RQ MERGED:          0
L2C RQ FORWARD:          0
L2C WQ ACCESS:    3220603
L2C WQ TO_CACHE:    3220603
L2C WQ MERGED:          0
L2C WQ FORWARD:         53
LLC TOTAL     ACCESS:   14742362  HIT:    5019052  MISS:    9723310
LLC LOAD      ACCESS:     461313  HIT:     209221  MISS:     252092
LLC RFO       ACCESS:    2514847  HIT:    1215917  MISS:    1298930
LLC PREFETCH  ACCESS:    8865799  HIT:    2017199  MISS:    6848600
LLC WRITEBACK ACCESS:    2900403  HIT:    1576715  MISS:    1323688
LLC PREFETCH  REQUESTED:          0  ISSUED:          0  USEFUL:       4380  USELESS:    6845443
LLC TOTAL MSHR MERGED:         13
LLC LOAD MSHR MERGED:          0
LLC RFO MSHR MERGED:          0
LLC PREFETCH MSHR MERGED:         13
LLC WRITEBACK MSHR MERGED:          0
LLC TOTAL ACCESSES:   14742461 HITS:    5019137 MISSES:    9723324
LLC LOAD ACCESSES:     461317 HITS:     209225 MISSES:     252092
LLC RFO ACCESSES:    2514873 HITS:    1215943 MISSES:    1298930
LLC PREFETCH ACCESSES:    8865868 HITS:    2017254 MISSES:    6848614
LLC WRITEBACK ACCESSES:    2900403 HITS:    1576715 MISSES:    1323688
LLC 0 RQ ACCESS:    2976190
LLC 0 RQ TO_CACHE:    2976160
LLC 0 RQ MERGED:          0
LLC 0 RQ FORWARD:          0
LLC WQ ACCESS:    2900404
LLC WQ TO_CACHE:    2900404
LLC WQ MERGED:          0
LLC WQ FORWARD:         85
Major fault: 0 Minor fault: 57518
CPU 0 L1D next line prefetcher final stats
CPU 0 L2C PC-based stride prefetcher final stats
All Misses: 10458620
All Hits: 5779923
SD Algo Stats - Switches: 0 SRR-Repls: 260034 BRR-Repls: 0

DRAM Statistics
 CHANNEL 0
 RQ ROW_BUFFER_HIT:    4147474  ROW_BUFFER_MISS:    4245383
 DBUS_CONGESTED:    4499671
 WQ ROW_BUFFER_HIT:     238057  ROW_BUFFER_MISS:    1350846  FULL:          0

 AVG_CONGESTED_CYCLE: 12
LOADS RETIRED: 157818985
INSTR RETIRED: 500000000
