
*** ChampSim Multicore Out-of-Order Simulator ***

Warmup Instructions: 100000000
Simulation Instructions: 500000000
Number of CPUs: 1
LLC sets: 2048
LLC ways: 16
Clean RRIP Policies: 1213230112132301 Dirty RRIP Policies: 2213130122131301 PSEL Width: 10 Track Set: 4294967295 PSEL Mask: 1 Demote Mask: 1040100010401000DS Algo: 0Window size: 0
Off-chip DRAM Size: 4096 MB Channels: 1 Width: 64-bit Data Rate: 1600 MT/s

CPU 0 runs /mnt/beegfs/iconst01/spec2017/Blender.trace.gz
NOT SORTED
TRACE STRING: /mnt/beegfs/iconst01/spec2017/Blender.trace.gz
SORTED
TRACE STRING: /mnt/beegfs/iconst01/spec2017/Blender.trace.gz
INITIAL
TRACE STRING: /mnt/beegfs/iconst01/spec2017/Blender.trace.gz

champsim_seed used: 700

CPU 0 L1D next line prefetcher
CPU 0 L2C IP-based stride prefetcher
Initialize DRRIP state
Assign rand_sets[0]: 454  LLC: 2048
rand_sets[0]: 454
Assign rand_sets[1]: 1662  LLC: 2048
rand_sets[1]: 1662
Assign rand_sets[2]: 1921  LLC: 2048
rand_sets[2]: 1921
Assign rand_sets[3]: 1131  LLC: 2048
rand_sets[3]: 1131
Assign rand_sets[4]: 331  LLC: 2048
rand_sets[4]: 331
Assign rand_sets[5]: 1531  LLC: 2048
rand_sets[5]: 1531
Assign rand_sets[6]: 482  LLC: 2048
rand_sets[6]: 482
Assign rand_sets[7]: 1275  LLC: 2048
rand_sets[7]: 1275
Assign rand_sets[8]: 1876  LLC: 2048
rand_sets[8]: 1876
Assign rand_sets[9]: 2038  LLC: 2048
rand_sets[9]: 2038
Assign rand_sets[10]: 701  LLC: 2048
rand_sets[10]: 701
Assign rand_sets[11]: 479  LLC: 2048
rand_sets[11]: 479
Assign rand_sets[12]: 892  LLC: 2048
rand_sets[12]: 892
Assign rand_sets[13]: 1820  LLC: 2048
rand_sets[13]: 1820
Assign rand_sets[14]: 1505  LLC: 2048
rand_sets[14]: 1505
Assign rand_sets[15]: 1159  LLC: 2048
rand_sets[15]: 1159
Assign rand_sets[16]: 513  LLC: 2048
rand_sets[16]: 513
Assign rand_sets[17]: 703  LLC: 2048
rand_sets[17]: 703
Assign rand_sets[18]: 561  LLC: 2048
rand_sets[18]: 561
Assign rand_sets[19]: 990  LLC: 2048
rand_sets[19]: 990
Assign rand_sets[20]: 342  LLC: 2048
rand_sets[20]: 342
Assign rand_sets[21]: 882  LLC: 2048
rand_sets[21]: 882
Assign rand_sets[22]: 15  LLC: 2048
rand_sets[22]: 15
Assign rand_sets[23]: 71  LLC: 2048
rand_sets[23]: 71
Assign rand_sets[24]: 1127  LLC: 2048
rand_sets[24]: 1127
Assign rand_sets[25]: 1382  LLC: 2048
rand_sets[25]: 1382
Assign rand_sets[26]: 647  LLC: 2048
rand_sets[26]: 647
Assign rand_sets[27]: 857  LLC: 2048
rand_sets[27]: 857
Assign rand_sets[28]: 1450  LLC: 2048
rand_sets[28]: 1450
Assign rand_sets[29]: 1160  LLC: 2048
rand_sets[29]: 1160
Assign rand_sets[30]: 1852  LLC: 2048
rand_sets[30]: 1852
Assign rand_sets[31]: 1881  LLC: 2048
rand_sets[31]: 1881
Assign rand_sets[32]: 1770  LLC: 2048
rand_sets[32]: 1770
Assign rand_sets[33]: 1622  LLC: 2048
rand_sets[33]: 1622
Assign rand_sets[34]: 275  LLC: 2048
rand_sets[34]: 275
Assign rand_sets[35]: 635  LLC: 2048
rand_sets[35]: 635
Assign rand_sets[36]: 466  LLC: 2048
rand_sets[36]: 466
Assign rand_sets[37]: 1413  LLC: 2048
rand_sets[37]: 1413
Assign rand_sets[38]: 417  LLC: 2048
rand_sets[38]: 417
Assign rand_sets[39]: 472  LLC: 2048
rand_sets[39]: 472
Assign rand_sets[40]: 1340  LLC: 2048
rand_sets[40]: 1340
Assign rand_sets[41]: 852  LLC: 2048
rand_sets[41]: 852
Assign rand_sets[42]: 1365  LLC: 2048
rand_sets[42]: 1365
Assign rand_sets[43]: 47  LLC: 2048
rand_sets[43]: 47
Assign rand_sets[44]: 823  LLC: 2048
rand_sets[44]: 823
Assign rand_sets[45]: 686  LLC: 2048
rand_sets[45]: 686
Assign rand_sets[46]: 1637  LLC: 2048
rand_sets[46]: 1637
Assign rand_sets[47]: 1115  LLC: 2048
rand_sets[47]: 1115
Assign rand_sets[48]: 986  LLC: 2048
rand_sets[48]: 986
Assign rand_sets[49]: 258  LLC: 2048
rand_sets[49]: 258
Assign rand_sets[50]: 633  LLC: 2048
rand_sets[50]: 633
Assign rand_sets[51]: 920  LLC: 2048
rand_sets[51]: 920
Assign rand_sets[52]: 204  LLC: 2048
rand_sets[52]: 204
Assign rand_sets[53]: 227  LLC: 2048
rand_sets[53]: 227
Assign rand_sets[54]: 1818  LLC: 2048
rand_sets[54]: 1818
Assign rand_sets[55]: 886  LLC: 2048
rand_sets[55]: 886
Assign rand_sets[56]: 1422  LLC: 2048
rand_sets[56]: 1422
Assign rand_sets[57]: 607  LLC: 2048
rand_sets[57]: 607
Assign rand_sets[58]: 217  LLC: 2048
rand_sets[58]: 217
Assign rand_sets[59]: 1945  LLC: 2048
rand_sets[59]: 1945
Assign rand_sets[60]: 143  LLC: 2048
rand_sets[60]: 143
Assign rand_sets[61]: 1311  LLC: 2048
rand_sets[61]: 1311
Assign rand_sets[62]: 319  LLC: 2048
rand_sets[62]: 319
Assign rand_sets[63]: 1846  LLC: 2048
rand_sets[63]: 1846
 CLEAN-RRIP-POLICY-1: 1-2-1-3-2-3-0-1- CLEAN-RRIP-POLICY-2: 1-2-1-3-2-3-0-1-
 DIRTY-RRIP-POLICY-1: 2-2-1-3-1-3-0-1- DIRTY-RRIP-POLICY-2: 2-2-1-3-1-3-0-1-
 PSEL width: 10
Heartbeat CPU 0 instructions: 10000002 cycles: 5480930 heartbeat IPC: 1.82451 cumulative IPC: 1.82451 (Simulation time: 0 hr 0 min 13 sec) 
Heartbeat CPU 0 instructions: 20000000 cycles: 10913521 heartbeat IPC: 1.84074 cumulative IPC: 1.83259 (Simulation time: 0 hr 0 min 26 sec) 
Heartbeat CPU 0 instructions: 30000000 cycles: 16447389 heartbeat IPC: 1.80705 cumulative IPC: 1.824 (Simulation time: 0 hr 0 min 40 sec) 
Heartbeat CPU 0 instructions: 40000000 cycles: 21898152 heartbeat IPC: 1.83461 cumulative IPC: 1.82664 (Simulation time: 0 hr 0 min 53 sec) 
Heartbeat CPU 0 instructions: 50000000 cycles: 27400065 heartbeat IPC: 1.81755 cumulative IPC: 1.82481 (Simulation time: 0 hr 1 min 6 sec) 
Heartbeat CPU 0 instructions: 60000000 cycles: 32778899 heartbeat IPC: 1.85914 cumulative IPC: 1.83045 (Simulation time: 0 hr 1 min 20 sec) 
Heartbeat CPU 0 instructions: 70000001 cycles: 38335190 heartbeat IPC: 1.79976 cumulative IPC: 1.826 (Simulation time: 0 hr 1 min 33 sec) 
Heartbeat CPU 0 instructions: 80000000 cycles: 43795395 heartbeat IPC: 1.83143 cumulative IPC: 1.82668 (Simulation time: 0 hr 1 min 46 sec) 
Heartbeat CPU 0 instructions: 90000000 cycles: 49242152 heartbeat IPC: 1.83595 cumulative IPC: 1.8277 (Simulation time: 0 hr 2 min 0 sec) 
Heartbeat CPU 0 instructions: 100000000 cycles: 54787285 heartbeat IPC: 1.80338 cumulative IPC: 1.82524 (Simulation time: 0 hr 2 min 13 sec) 

Warmup complete CPU 0 instructions: 100000002 cycles: 54787286 (Simulation time: 0 hr 2 min 13 sec) 

Heartbeat CPU 0 instructions: 110000001 cycles: 69189650 heartbeat IPC: 0.69433 cumulative IPC: 0.69433 (Simulation time: 0 hr 2 min 32 sec) 
Heartbeat CPU 0 instructions: 120000000 cycles: 84193804 heartbeat IPC: 0.666482 cumulative IPC: 0.680121 (Simulation time: 0 hr 2 min 52 sec) 
Heartbeat CPU 0 instructions: 130000000 cycles: 98694956 heartbeat IPC: 0.6896 cumulative IPC: 0.683252 (Simulation time: 0 hr 3 min 11 sec) 
Heartbeat CPU 0 instructions: 140000000 cycles: 113039794 heartbeat IPC: 0.697115 cumulative IPC: 0.686666 (Simulation time: 0 hr 3 min 30 sec) 
Heartbeat CPU 0 instructions: 150000000 cycles: 127748565 heartbeat IPC: 0.679866 cumulative IPC: 0.685295 (Simulation time: 0 hr 3 min 49 sec) 
Heartbeat CPU 0 instructions: 160000000 cycles: 142870612 heartbeat IPC: 0.661286 cumulative IPC: 0.681173 (Simulation time: 0 hr 4 min 9 sec) 
Heartbeat CPU 0 instructions: 170000001 cycles: 157735227 heartbeat IPC: 0.672739 cumulative IPC: 0.679955 (Simulation time: 0 hr 4 min 27 sec) 
Heartbeat CPU 0 instructions: 180000000 cycles: 172666796 heartbeat IPC: 0.669722 cumulative IPC: 0.678659 (Simulation time: 0 hr 4 min 46 sec) 
Heartbeat CPU 0 instructions: 190000002 cycles: 187142805 heartbeat IPC: 0.690798 cumulative IPC: 0.679987 (Simulation time: 0 hr 5 min 5 sec) 
Heartbeat CPU 0 instructions: 200000000 cycles: 201500292 heartbeat IPC: 0.696501 cumulative IPC: 0.681603 (Simulation time: 0 hr 5 min 25 sec) 
Heartbeat CPU 0 instructions: 210000003 cycles: 216122901 heartbeat IPC: 0.683873 cumulative IPC: 0.681809 (Simulation time: 0 hr 5 min 44 sec) 
Heartbeat CPU 0 instructions: 220000000 cycles: 230818961 heartbeat IPC: 0.680454 cumulative IPC: 0.681695 (Simulation time: 0 hr 6 min 3 sec) 
Heartbeat CPU 0 instructions: 230000001 cycles: 245932681 heartbeat IPC: 0.661651 cumulative IPC: 0.680111 (Simulation time: 0 hr 6 min 22 sec) 
Heartbeat CPU 0 instructions: 240000000 cycles: 260847205 heartbeat IPC: 0.670487 cumulative IPC: 0.679414 (Simulation time: 0 hr 6 min 41 sec) 
Heartbeat CPU 0 instructions: 250000003 cycles: 275678225 heartbeat IPC: 0.674263 cumulative IPC: 0.679068 (Simulation time: 0 hr 6 min 59 sec) 
Heartbeat CPU 0 instructions: 260000000 cycles: 291167061 heartbeat IPC: 0.645626 cumulative IPC: 0.676877 (Simulation time: 0 hr 7 min 19 sec) 
Heartbeat CPU 0 instructions: 270000003 cycles: 305751505 heartbeat IPC: 0.685662 cumulative IPC: 0.677387 (Simulation time: 0 hr 7 min 38 sec) 
Heartbeat CPU 0 instructions: 280000000 cycles: 320247950 heartbeat IPC: 0.689824 cumulative IPC: 0.678067 (Simulation time: 0 hr 7 min 57 sec) 
Heartbeat CPU 0 instructions: 290000002 cycles: 334697028 heartbeat IPC: 0.692086 cumulative IPC: 0.67879 (Simulation time: 0 hr 8 min 16 sec) 
Heartbeat CPU 0 instructions: 300000000 cycles: 350089819 heartbeat IPC: 0.649655 cumulative IPC: 0.677272 (Simulation time: 0 hr 8 min 35 sec) 
Heartbeat CPU 0 instructions: 310000000 cycles: 365064103 heartbeat IPC: 0.667812 cumulative IPC: 0.676815 (Simulation time: 0 hr 8 min 54 sec) 
Heartbeat CPU 0 instructions: 320000000 cycles: 379871109 heartbeat IPC: 0.675356 cumulative IPC: 0.676749 (Simulation time: 0 hr 9 min 13 sec) 
Heartbeat CPU 0 instructions: 330000000 cycles: 395629810 heartbeat IPC: 0.63457 cumulative IPC: 0.674798 (Simulation time: 0 hr 9 min 32 sec) 
Heartbeat CPU 0 instructions: 340000000 cycles: 410266918 heartbeat IPC: 0.683195 cumulative IPC: 0.675144 (Simulation time: 0 hr 9 min 51 sec) 
Heartbeat CPU 0 instructions: 350000000 cycles: 424898450 heartbeat IPC: 0.683455 cumulative IPC: 0.675473 (Simulation time: 0 hr 10 min 9 sec) 
Heartbeat CPU 0 instructions: 360000000 cycles: 439561418 heartbeat IPC: 0.68199 cumulative IPC: 0.675721 (Simulation time: 0 hr 10 min 28 sec) 
Heartbeat CPU 0 instructions: 370000002 cycles: 454985307 heartbeat IPC: 0.648345 cumulative IPC: 0.674666 (Simulation time: 0 hr 10 min 48 sec) 
Heartbeat CPU 0 instructions: 380000000 cycles: 469840248 heartbeat IPC: 0.673177 cumulative IPC: 0.674613 (Simulation time: 0 hr 11 min 7 sec) 
Heartbeat CPU 0 instructions: 390000003 cycles: 484799152 heartbeat IPC: 0.668498 cumulative IPC: 0.6744 (Simulation time: 0 hr 11 min 25 sec) 
Heartbeat CPU 0 instructions: 400000000 cycles: 500649422 heartbeat IPC: 0.630904 cumulative IPC: 0.672854 (Simulation time: 0 hr 11 min 45 sec) 
Heartbeat CPU 0 instructions: 410000001 cycles: 515676727 heartbeat IPC: 0.665455 cumulative IPC: 0.672612 (Simulation time: 0 hr 12 min 3 sec) 
Heartbeat CPU 0 instructions: 420000000 cycles: 530409959 heartbeat IPC: 0.678738 cumulative IPC: 0.672802 (Simulation time: 0 hr 12 min 22 sec) 
Heartbeat CPU 0 instructions: 430000000 cycles: 545822489 heartbeat IPC: 0.648823 cumulative IPC: 0.67205 (Simulation time: 0 hr 12 min 41 sec) 
Heartbeat CPU 0 instructions: 440000000 cycles: 560626598 heartbeat IPC: 0.675488 cumulative IPC: 0.67215 (Simulation time: 0 hr 13 min 0 sec) 
Heartbeat CPU 0 instructions: 450000000 cycles: 575605896 heartbeat IPC: 0.667588 cumulative IPC: 0.672019 (Simulation time: 0 hr 13 min 19 sec) 
Heartbeat CPU 0 instructions: 460000000 cycles: 591342855 heartbeat IPC: 0.635447 cumulative IPC: 0.670946 (Simulation time: 0 hr 13 min 38 sec) 
Heartbeat CPU 0 instructions: 470000000 cycles: 606418751 heartbeat IPC: 0.66331 cumulative IPC: 0.670738 (Simulation time: 0 hr 13 min 56 sec) 
Heartbeat CPU 0 instructions: 480000000 cycles: 621283361 heartbeat IPC: 0.672739 cumulative IPC: 0.67079 (Simulation time: 0 hr 14 min 15 sec) 
Heartbeat CPU 0 instructions: 490000002 cycles: 636550712 heartbeat IPC: 0.654993 cumulative IPC: 0.670376 (Simulation time: 0 hr 14 min 34 sec) 
Heartbeat CPU 0 instructions: 500000000 cycles: 651420704 heartbeat IPC: 0.672495 cumulative IPC: 0.670428 (Simulation time: 0 hr 14 min 53 sec) 
Heartbeat CPU 0 instructions: 510000001 cycles: 666526623 heartbeat IPC: 0.661992 cumulative IPC: 0.67022 (Simulation time: 0 hr 15 min 12 sec) 
Heartbeat CPU 0 instructions: 520000000 cycles: 681991615 heartbeat IPC: 0.646622 cumulative IPC: 0.669638 (Simulation time: 0 hr 15 min 31 sec) 
Heartbeat CPU 0 instructions: 530000001 cycles: 697408014 heartbeat IPC: 0.64866 cumulative IPC: 0.669135 (Simulation time: 0 hr 15 min 50 sec) 
Heartbeat CPU 0 instructions: 540000000 cycles: 711992255 heartbeat IPC: 0.685672 cumulative IPC: 0.669502 (Simulation time: 0 hr 16 min 8 sec) 
Heartbeat CPU 0 instructions: 550000001 cycles: 727251282 heartbeat IPC: 0.65535 cumulative IPC: 0.669181 (Simulation time: 0 hr 16 min 27 sec) 
Heartbeat CPU 0 instructions: 560000000 cycles: 742052661 heartbeat IPC: 0.675613 cumulative IPC: 0.669319 (Simulation time: 0 hr 16 min 46 sec) 
Heartbeat CPU 0 instructions: 570000002 cycles: 757199207 heartbeat IPC: 0.660217 cumulative IPC: 0.669123 (Simulation time: 0 hr 17 min 5 sec) 
Heartbeat CPU 0 instructions: 580000000 cycles: 772208403 heartbeat IPC: 0.666258 cumulative IPC: 0.669063 (Simulation time: 0 hr 17 min 24 sec) 
Heartbeat CPU 0 instructions: 590000001 cycles: 787207253 heartbeat IPC: 0.666718 cumulative IPC: 0.669015 (Simulation time: 0 hr 17 min 42 sec) 
Heartbeat CPU 0 instructions: 600000000 cycles: 801856704 heartbeat IPC: 0.682619 cumulative IPC: 0.669282 (Simulation time: 0 hr 18 min 1 sec) 
Finished CPU 0 instructions: 500000000 cycles: 747069426 cumulative IPC: 0.669282 (Simulation time: 0 hr 18 min 1 sec) 

CPU 0 Branch Prediction Accuracy: 93.7783% MPKI: 10.0718
Number of Branches: 80940586 Number of Mispredictions: 5035908
Number of LOAD Instructions: 184238101
Number of LOAD Instructions (ROI): 184238101
Number of STORE Instructions: 33143298
Number of STORE Instructions (ROI): 33143298
Total Destination Memory Operands: 33324321
Total Destination Memory Operands (ROI): 33324321
Total Source Memory Operands: 184238101
Total Source Memory Operands (ROI): 184238101
Number of DEPENDED LOADS: 4461377
Number of DEPENDED LOADS (ROI): 4461377
Number of SQ_ADDED: 33324292
Number of SQ_ADDED (ROI): 33324292
Number of LQ_ADDED: 184867398
Number of LQ_ADDED (ROI): 184867398
Number of Instructions read from trace: 600000256

ChampSim completed all CPUs

Region of Interest Statistics

CPU 0 cumulative IPC: 0.669282 instructions: 500000000 cycles: 747069426
ITLB TOTAL     ACCESS:   77746052  HIT:   77746052  MISS:          0
ITLB LOAD      ACCESS:   77746052  HIT:   77746052  MISS:          0
ITLB RFO       ACCESS:          0  HIT:          0  MISS:          0
ITLB PREFETCH  ACCESS:          0  HIT:          0  MISS:          0
ITLB WRITEBACK ACCESS:          0  HIT:          0  MISS:          0
ITLB PREFETCH  REQUESTED:          0  ISSUED:          0  USEFUL:          0  USELESS:          0
ITLB TOTAL MSHR MERGED:          0
ITLB LOAD MSHR MERGED:          0
ITLB RFO MSHR MERGED:          0
ITLB PREFETCH MSHR MERGED:          0
ITLB WRITEBACK MSHR MERGED:          0
ITLB TOTAL ACCESSES:   77746052 HITS:   77746052 MISSES:          0
ITLB LOAD ACCESSES:   77746052 HITS:   77746052 MISSES:          0
ITLB RFO ACCESSES:          0 HITS:          0 MISSES:          0
ITLB PREFETCH ACCESSES:          0 HITS:          0 MISSES:          0
ITLB WRITEBACK ACCESSES:          0 HITS:          0 MISSES:          0
ITLB RQ ACCESS:  500000245
ITLB RQ TO_CACHE:   77746052
ITLB RQ MERGED:  422254193
ITLB RQ FORWARD:          0
ITLB WQ ACCESS:          0
ITLB WQ TO_CACHE:          0
ITLB WQ MERGED:          0
ITLB WQ FORWARD:          0
DTLB TOTAL     ACCESS:   88436819  HIT:   87299969  MISS:    1136850
DTLB LOAD      ACCESS:   66310092  HIT:   65177482  MISS:    1132610
DTLB RFO       ACCESS:   22126727  HIT:   22122487  MISS:       4240
DTLB PREFETCH  ACCESS:          0  HIT:          0  MISS:          0
DTLB WRITEBACK ACCESS:          0  HIT:          0  MISS:          0
DTLB PREFETCH  REQUESTED:          0  ISSUED:          0  USEFUL:          0  USELESS:          0
DTLB TOTAL MSHR MERGED:     135526
DTLB LOAD MSHR MERGED:     133709
DTLB RFO MSHR MERGED:       1817
DTLB PREFETCH MSHR MERGED:          0
DTLB WRITEBACK MSHR MERGED:          0
DTLB TOTAL ACCESSES:   88572345 HITS:   87299969 MISSES:    1272376
DTLB LOAD ACCESSES:   66443801 HITS:   65177482 MISSES:    1266319
DTLB RFO ACCESSES:   22128544 HITS:   22122487 MISSES:       6057
DTLB PREFETCH ACCESSES:          0 HITS:          0 MISSES:          0
DTLB WRITEBACK ACCESSES:          0 HITS:          0 MISSES:          0
DTLB RQ ACCESS:  177579362
DTLB RQ TO_CACHE:   88572345
DTLB RQ MERGED:   89007017
DTLB RQ FORWARD:          0
DTLB WQ ACCESS:          0
DTLB WQ TO_CACHE:          0
DTLB WQ MERGED:          0
DTLB WQ FORWARD:          0
L1D TOTAL     ACCESS:  142081200  HIT:  136522152  MISS:    5559048
L1D LOAD      ACCESS:   61384045  HIT:   58275640  MISS:    3108405
L1D RFO       ACCESS:   27668741  HIT:   27586930  MISS:      81811
L1D PREFETCH  ACCESS:   53028414  HIT:   50659582  MISS:    2368832
L1D WRITEBACK ACCESS:          0  HIT:          0  MISS:          0
L1D PREFETCH  REQUESTED:   61670242  ISSUED:   60752073  USEFUL:     661952  USELESS:    1706885
L1D TOTAL MSHR MERGED:    1198376
L1D LOAD MSHR MERGED:     388964
L1D RFO MSHR MERGED:     164340
L1D PREFETCH MSHR MERGED:     645072
L1D WRITEBACK MSHR MERGED:          0
L1D TOTAL ACCESSES:  143377191 HITS:  136619767 MISSES:    6757424
L1D LOAD ACCESSES:   61670252 HITS:   58275650 MISSES:    3394602
L1D RFO ACCESSES:   27829287 HITS:   27586930 MISSES:     242357
L1D PREFETCH ACCESSES:   53877652 HITS:   50757187 MISSES:    3120465
L1D WRITEBACK ACCESSES:          0 HITS:          0 MISSES:          0
L1D RQ ACCESS:  149746396
L1D RQ TO_CACHE:   61670242
L1D RQ MERGED:   88076144
L1D RQ FORWARD:          0
L1D WQ ACCESS:   27832966
L1D WQ TO_CACHE:   27829287
L1D WQ MERGED:       3679
L1D WQ FORWARD:      97615
L1I TOTAL     ACCESS:   96223387  HIT:   96064119  MISS:     159268
L1I LOAD      ACCESS:   96223387  HIT:   96064119  MISS:     159268
L1I RFO       ACCESS:          0  HIT:          0  MISS:          0
L1I PREFETCH  ACCESS:          0  HIT:          0  MISS:          0
L1I WRITEBACK ACCESS:          0  HIT:          0  MISS:          0
L1I PREFETCH  REQUESTED:          0  ISSUED:          0  USEFUL:          0  USELESS:          0
L1I TOTAL MSHR MERGED:     130253
L1I LOAD MSHR MERGED:     130253
L1I RFO MSHR MERGED:          0
L1I PREFETCH MSHR MERGED:          0
L1I WRITEBACK MSHR MERGED:          0
L1I TOTAL ACCESSES:   96353640 HITS:   96064119 MISSES:     289521
L1I LOAD ACCESSES:   96353640 HITS:   96064119 MISSES:     289521
L1I RFO ACCESSES:          0 HITS:          0 MISSES:          0
L1I PREFETCH ACCESSES:          0 HITS:          0 MISSES:          0
L1I WRITEBACK ACCESSES:          0 HITS:          0 MISSES:          0
L1I RQ ACCESS:  500000245
L1I RQ TO_CACHE:   96353640
L1I RQ MERGED:  403646605
L1I RQ FORWARD:          0
L1I WQ ACCESS:          0
L1I WQ TO_CACHE:          0
L1I WQ MERGED:          0
L1I WQ FORWARD:          0
L2C TOTAL     ACCESS:    5910960  HIT:    3062288  MISS:    2848672
L2C LOAD      ACCESS:    3164896  HIT:    1583009  MISS:    1581887
L2C RFO       ACCESS:      77941  HIT:      45087  MISS:      32854
L2C PREFETCH  ACCESS:    2524593  HIT:    1296245  MISS:    1228348
L2C WRITEBACK ACCESS:     143530  HIT:     137947  MISS:       5583
L2C PREFETCH  REQUESTED:      52724  ISSUED:      52724  USEFUL:      18666  USELESS:    1209722
L2C TOTAL MSHR MERGED:       2590
L2C LOAD MSHR MERGED:        942
L2C RFO MSHR MERGED:          0
L2C PREFETCH MSHR MERGED:       1648
L2C WRITEBACK MSHR MERGED:          0
L2C TOTAL ACCESSES:    5913644 HITS:    3062374 MISSES:    2851270
L2C LOAD ACCESSES:    3164906 HITS:    1583019 MISSES:    1581887
L2C RFO ACCESSES:      78017 HITS:      45163 MISSES:      32854
L2C PREFETCH ACCESSES:    2527191 HITS:    1296245 MISSES:    1230946
L2C WRITEBACK ACCESSES:     143530 HITS:     137947 MISSES:       5583
L2C RQ ACCESS:    3242923
L2C RQ TO_CACHE:    3242837
L2C RQ MERGED:          0
L2C RQ FORWARD:          0
L2C WQ ACCESS:     143530
L2C WQ TO_CACHE:     143530
L2C WQ MERGED:          0
L2C WQ FORWARD:         86
LLC TOTAL     ACCESS:    2892632  HIT:    1807756  MISS:    1084876
LLC LOAD      ACCESS:    1580945  HIT:    1132875  MISS:     448070
LLC RFO       ACCESS:      32844  HIT:      32362  MISS:        482
LLC PREFETCH  ACCESS:    1229298  HIT:     593775  MISS:     635523
LLC WRITEBACK ACCESS:      49545  HIT:      48744  MISS:        801
LLC PREFETCH  REQUESTED:          0  ISSUED:          0  USEFUL:       3101  USELESS:     632458
LLC TOTAL MSHR MERGED:          0
LLC LOAD MSHR MERGED:          0
LLC RFO MSHR MERGED:          0
LLC PREFETCH MSHR MERGED:          0
LLC WRITEBACK MSHR MERGED:          0
LLC TOTAL ACCESSES:    2892642 HITS:    1807766 MISSES:    1084876
LLC LOAD ACCESSES:    1580945 HITS:    1132875 MISSES:     448070
LLC RFO ACCESSES:      32854 HITS:      32372 MISSES:        482
LLC PREFETCH ACCESSES:    1229298 HITS:     593775 MISSES:     635523
LLC WRITEBACK ACCESSES:      49545 HITS:      48744 MISSES:        801
LLC 0 RQ ACCESS:    1613799
LLC 0 RQ TO_CACHE:    1613789
LLC 0 RQ MERGED:          0
LLC 0 RQ FORWARD:          0
LLC WQ ACCESS:      49545
LLC WQ TO_CACHE:      49545
LLC WQ MERGED:          0
LLC WQ FORWARD:         10
Major fault: 0 Minor fault: 8460
CPU 0 L1D next line prefetcher final stats
CPU 0 L2C PC-based stride prefetcher final stats
All Misses: 1317073
All Hits: 2112155
SD Algo Stats - Switches: 0 SRR-Repls: 519288 BRR-Repls: 0

DRAM Statistics
 CHANNEL 0
 RQ ROW_BUFFER_HIT:     370220  ROW_BUFFER_MISS:     713507
 DBUS_CONGESTED:     332825
 WQ ROW_BUFFER_HIT:        131  ROW_BUFFER_MISS:        989  FULL:          0

 AVG_CONGESTED_CYCLE: 12
LOADS RETIRED: 153532848
INSTR RETIRED: 500000000
