
*** ChampSim Multicore Out-of-Order Simulator ***

Warmup Instructions: 100000000
Simulation Instructions: 500000000
Number of CPUs: 1
LLC sets: 2048
LLC ways: 16
Clean RRIP Policies: 1313030113130301 Dirty RRIP Policies: 2313130123131301 PSEL Width: 10 Track Set: 4294967295 PSEL Mask: 1 Demote Mask: 3040201030402010DS Algo: 0Window size: 0
Off-chip DRAM Size: 4096 MB Channels: 1 Width: 64-bit Data Rate: 1600 MT/s

CPU 0 runs /mnt/beegfs/iconst01/spec2017/Blender.trace.gz
NOT SORTED
TRACE STRING: /mnt/beegfs/iconst01/spec2017/Blender.trace.gz
SORTED
TRACE STRING: /mnt/beegfs/iconst01/spec2017/Blender.trace.gz
INITIAL
TRACE STRING: /mnt/beegfs/iconst01/spec2017/Blender.trace.gz

champsim_seed used: 700

CPU 0 L1D next line prefetcher
CPU 0 L2C IP-based stride prefetcher
Initialize DRRIP state
Assign rand_sets[0]: 454  LLC: 2048
rand_sets[0]: 454
Assign rand_sets[1]: 1662  LLC: 2048
rand_sets[1]: 1662
Assign rand_sets[2]: 1921  LLC: 2048
rand_sets[2]: 1921
Assign rand_sets[3]: 1131  LLC: 2048
rand_sets[3]: 1131
Assign rand_sets[4]: 331  LLC: 2048
rand_sets[4]: 331
Assign rand_sets[5]: 1531  LLC: 2048
rand_sets[5]: 1531
Assign rand_sets[6]: 482  LLC: 2048
rand_sets[6]: 482
Assign rand_sets[7]: 1275  LLC: 2048
rand_sets[7]: 1275
Assign rand_sets[8]: 1876  LLC: 2048
rand_sets[8]: 1876
Assign rand_sets[9]: 2038  LLC: 2048
rand_sets[9]: 2038
Assign rand_sets[10]: 701  LLC: 2048
rand_sets[10]: 701
Assign rand_sets[11]: 479  LLC: 2048
rand_sets[11]: 479
Assign rand_sets[12]: 892  LLC: 2048
rand_sets[12]: 892
Assign rand_sets[13]: 1820  LLC: 2048
rand_sets[13]: 1820
Assign rand_sets[14]: 1505  LLC: 2048
rand_sets[14]: 1505
Assign rand_sets[15]: 1159  LLC: 2048
rand_sets[15]: 1159
Assign rand_sets[16]: 513  LLC: 2048
rand_sets[16]: 513
Assign rand_sets[17]: 703  LLC: 2048
rand_sets[17]: 703
Assign rand_sets[18]: 561  LLC: 2048
rand_sets[18]: 561
Assign rand_sets[19]: 990  LLC: 2048
rand_sets[19]: 990
Assign rand_sets[20]: 342  LLC: 2048
rand_sets[20]: 342
Assign rand_sets[21]: 882  LLC: 2048
rand_sets[21]: 882
Assign rand_sets[22]: 15  LLC: 2048
rand_sets[22]: 15
Assign rand_sets[23]: 71  LLC: 2048
rand_sets[23]: 71
Assign rand_sets[24]: 1127  LLC: 2048
rand_sets[24]: 1127
Assign rand_sets[25]: 1382  LLC: 2048
rand_sets[25]: 1382
Assign rand_sets[26]: 647  LLC: 2048
rand_sets[26]: 647
Assign rand_sets[27]: 857  LLC: 2048
rand_sets[27]: 857
Assign rand_sets[28]: 1450  LLC: 2048
rand_sets[28]: 1450
Assign rand_sets[29]: 1160  LLC: 2048
rand_sets[29]: 1160
Assign rand_sets[30]: 1852  LLC: 2048
rand_sets[30]: 1852
Assign rand_sets[31]: 1881  LLC: 2048
rand_sets[31]: 1881
Assign rand_sets[32]: 1770  LLC: 2048
rand_sets[32]: 1770
Assign rand_sets[33]: 1622  LLC: 2048
rand_sets[33]: 1622
Assign rand_sets[34]: 275  LLC: 2048
rand_sets[34]: 275
Assign rand_sets[35]: 635  LLC: 2048
rand_sets[35]: 635
Assign rand_sets[36]: 466  LLC: 2048
rand_sets[36]: 466
Assign rand_sets[37]: 1413  LLC: 2048
rand_sets[37]: 1413
Assign rand_sets[38]: 417  LLC: 2048
rand_sets[38]: 417
Assign rand_sets[39]: 472  LLC: 2048
rand_sets[39]: 472
Assign rand_sets[40]: 1340  LLC: 2048
rand_sets[40]: 1340
Assign rand_sets[41]: 852  LLC: 2048
rand_sets[41]: 852
Assign rand_sets[42]: 1365  LLC: 2048
rand_sets[42]: 1365
Assign rand_sets[43]: 47  LLC: 2048
rand_sets[43]: 47
Assign rand_sets[44]: 823  LLC: 2048
rand_sets[44]: 823
Assign rand_sets[45]: 686  LLC: 2048
rand_sets[45]: 686
Assign rand_sets[46]: 1637  LLC: 2048
rand_sets[46]: 1637
Assign rand_sets[47]: 1115  LLC: 2048
rand_sets[47]: 1115
Assign rand_sets[48]: 986  LLC: 2048
rand_sets[48]: 986
Assign rand_sets[49]: 258  LLC: 2048
rand_sets[49]: 258
Assign rand_sets[50]: 633  LLC: 2048
rand_sets[50]: 633
Assign rand_sets[51]: 920  LLC: 2048
rand_sets[51]: 920
Assign rand_sets[52]: 204  LLC: 2048
rand_sets[52]: 204
Assign rand_sets[53]: 227  LLC: 2048
rand_sets[53]: 227
Assign rand_sets[54]: 1818  LLC: 2048
rand_sets[54]: 1818
Assign rand_sets[55]: 886  LLC: 2048
rand_sets[55]: 886
Assign rand_sets[56]: 1422  LLC: 2048
rand_sets[56]: 1422
Assign rand_sets[57]: 607  LLC: 2048
rand_sets[57]: 607
Assign rand_sets[58]: 217  LLC: 2048
rand_sets[58]: 217
Assign rand_sets[59]: 1945  LLC: 2048
rand_sets[59]: 1945
Assign rand_sets[60]: 143  LLC: 2048
rand_sets[60]: 143
Assign rand_sets[61]: 1311  LLC: 2048
rand_sets[61]: 1311
Assign rand_sets[62]: 319  LLC: 2048
rand_sets[62]: 319
Assign rand_sets[63]: 1846  LLC: 2048
rand_sets[63]: 1846
 CLEAN-RRIP-POLICY-1: 1-3-1-3-0-3-0-1- CLEAN-RRIP-POLICY-2: 1-3-1-3-0-3-0-1-
 DIRTY-RRIP-POLICY-1: 2-3-1-3-1-3-0-1- DIRTY-RRIP-POLICY-2: 2-3-1-3-1-3-0-1-
 PSEL width: 10
Heartbeat CPU 0 instructions: 10000002 cycles: 5480934 heartbeat IPC: 1.82451 cumulative IPC: 1.82451 (Simulation time: 0 hr 0 min 13 sec) 
Heartbeat CPU 0 instructions: 20000000 cycles: 10913526 heartbeat IPC: 1.84074 cumulative IPC: 1.83259 (Simulation time: 0 hr 0 min 26 sec) 
Heartbeat CPU 0 instructions: 30000000 cycles: 16447394 heartbeat IPC: 1.80705 cumulative IPC: 1.824 (Simulation time: 0 hr 0 min 39 sec) 
Heartbeat CPU 0 instructions: 40000000 cycles: 21898163 heartbeat IPC: 1.8346 cumulative IPC: 1.82664 (Simulation time: 0 hr 0 min 52 sec) 
Heartbeat CPU 0 instructions: 50000000 cycles: 27400075 heartbeat IPC: 1.81755 cumulative IPC: 1.82481 (Simulation time: 0 hr 1 min 5 sec) 
Heartbeat CPU 0 instructions: 60000000 cycles: 32778911 heartbeat IPC: 1.85914 cumulative IPC: 1.83045 (Simulation time: 0 hr 1 min 18 sec) 
Heartbeat CPU 0 instructions: 70000001 cycles: 38335209 heartbeat IPC: 1.79976 cumulative IPC: 1.826 (Simulation time: 0 hr 1 min 31 sec) 
Heartbeat CPU 0 instructions: 80000000 cycles: 43795409 heartbeat IPC: 1.83143 cumulative IPC: 1.82668 (Simulation time: 0 hr 1 min 44 sec) 
Heartbeat CPU 0 instructions: 90000000 cycles: 49242166 heartbeat IPC: 1.83595 cumulative IPC: 1.8277 (Simulation time: 0 hr 1 min 58 sec) 
Heartbeat CPU 0 instructions: 100000000 cycles: 54787299 heartbeat IPC: 1.80338 cumulative IPC: 1.82524 (Simulation time: 0 hr 2 min 11 sec) 

Warmup complete CPU 0 instructions: 100000002 cycles: 54787300 (Simulation time: 0 hr 2 min 11 sec) 

Heartbeat CPU 0 instructions: 110000001 cycles: 69189033 heartbeat IPC: 0.694361 cumulative IPC: 0.694361 (Simulation time: 0 hr 2 min 29 sec) 
Heartbeat CPU 0 instructions: 120000000 cycles: 84194524 heartbeat IPC: 0.666423 cumulative IPC: 0.680105 (Simulation time: 0 hr 2 min 48 sec) 
Heartbeat CPU 0 instructions: 130000000 cycles: 98695572 heartbeat IPC: 0.689605 cumulative IPC: 0.683242 (Simulation time: 0 hr 3 min 7 sec) 
Heartbeat CPU 0 instructions: 140000000 cycles: 113040269 heartbeat IPC: 0.697122 cumulative IPC: 0.68666 (Simulation time: 0 hr 3 min 26 sec) 
Heartbeat CPU 0 instructions: 150000000 cycles: 127750625 heartbeat IPC: 0.679793 cumulative IPC: 0.685276 (Simulation time: 0 hr 3 min 44 sec) 
Heartbeat CPU 0 instructions: 160000000 cycles: 142871008 heartbeat IPC: 0.661359 cumulative IPC: 0.68117 (Simulation time: 0 hr 4 min 3 sec) 
Heartbeat CPU 0 instructions: 170000001 cycles: 157735932 heartbeat IPC: 0.672725 cumulative IPC: 0.679951 (Simulation time: 0 hr 4 min 22 sec) 
Heartbeat CPU 0 instructions: 180000000 cycles: 172665653 heartbeat IPC: 0.669805 cumulative IPC: 0.678666 (Simulation time: 0 hr 4 min 41 sec) 
Heartbeat CPU 0 instructions: 190000002 cycles: 187142003 heartbeat IPC: 0.690782 cumulative IPC: 0.679991 (Simulation time: 0 hr 5 min 0 sec) 
Heartbeat CPU 0 instructions: 200000000 cycles: 201499411 heartbeat IPC: 0.696504 cumulative IPC: 0.681607 (Simulation time: 0 hr 5 min 18 sec) 
Heartbeat CPU 0 instructions: 210000003 cycles: 216122610 heartbeat IPC: 0.683845 cumulative IPC: 0.68181 (Simulation time: 0 hr 5 min 37 sec) 
Heartbeat CPU 0 instructions: 220000000 cycles: 230818123 heartbeat IPC: 0.68048 cumulative IPC: 0.681699 (Simulation time: 0 hr 5 min 56 sec) 
Heartbeat CPU 0 instructions: 230000001 cycles: 245931242 heartbeat IPC: 0.661677 cumulative IPC: 0.680116 (Simulation time: 0 hr 6 min 15 sec) 
Heartbeat CPU 0 instructions: 240000000 cycles: 260846320 heartbeat IPC: 0.670462 cumulative IPC: 0.679417 (Simulation time: 0 hr 6 min 34 sec) 
Heartbeat CPU 0 instructions: 250000003 cycles: 275676718 heartbeat IPC: 0.674291 cumulative IPC: 0.679073 (Simulation time: 0 hr 6 min 52 sec) 
Heartbeat CPU 0 instructions: 260000000 cycles: 291164548 heartbeat IPC: 0.645668 cumulative IPC: 0.676884 (Simulation time: 0 hr 7 min 12 sec) 
Heartbeat CPU 0 instructions: 270000003 cycles: 305748363 heartbeat IPC: 0.685692 cumulative IPC: 0.677396 (Simulation time: 0 hr 7 min 31 sec) 
Heartbeat CPU 0 instructions: 280000000 cycles: 320246340 heartbeat IPC: 0.689751 cumulative IPC: 0.678071 (Simulation time: 0 hr 7 min 49 sec) 
Heartbeat CPU 0 instructions: 290000002 cycles: 334695479 heartbeat IPC: 0.692083 cumulative IPC: 0.678794 (Simulation time: 0 hr 8 min 8 sec) 
Heartbeat CPU 0 instructions: 300000000 cycles: 350090146 heartbeat IPC: 0.649575 cumulative IPC: 0.677271 (Simulation time: 0 hr 8 min 28 sec) 
Heartbeat CPU 0 instructions: 310000000 cycles: 365066326 heartbeat IPC: 0.667727 cumulative IPC: 0.67681 (Simulation time: 0 hr 8 min 47 sec) 
Heartbeat CPU 0 instructions: 320000000 cycles: 379874008 heartbeat IPC: 0.675325 cumulative IPC: 0.676742 (Simulation time: 0 hr 9 min 5 sec) 
Heartbeat CPU 0 instructions: 330000000 cycles: 395631809 heartbeat IPC: 0.634606 cumulative IPC: 0.674794 (Simulation time: 0 hr 9 min 24 sec) 
Heartbeat CPU 0 instructions: 340000000 cycles: 410268260 heartbeat IPC: 0.683226 cumulative IPC: 0.675142 (Simulation time: 0 hr 9 min 43 sec) 
Heartbeat CPU 0 instructions: 350000000 cycles: 424902673 heartbeat IPC: 0.683321 cumulative IPC: 0.675465 (Simulation time: 0 hr 10 min 2 sec) 
Heartbeat CPU 0 instructions: 360000000 cycles: 439566306 heartbeat IPC: 0.681959 cumulative IPC: 0.675713 (Simulation time: 0 hr 10 min 20 sec) 
Heartbeat CPU 0 instructions: 370000002 cycles: 454991012 heartbeat IPC: 0.648311 cumulative IPC: 0.674656 (Simulation time: 0 hr 10 min 40 sec) 
Heartbeat CPU 0 instructions: 380000000 cycles: 469847095 heartbeat IPC: 0.673125 cumulative IPC: 0.674602 (Simulation time: 0 hr 10 min 58 sec) 
Heartbeat CPU 0 instructions: 390000003 cycles: 484805284 heartbeat IPC: 0.66853 cumulative IPC: 0.67439 (Simulation time: 0 hr 11 min 17 sec) 
Heartbeat CPU 0 instructions: 400000000 cycles: 500656177 heartbeat IPC: 0.630879 cumulative IPC: 0.672844 (Simulation time: 0 hr 11 min 36 sec) 
Heartbeat CPU 0 instructions: 410000001 cycles: 515682225 heartbeat IPC: 0.665511 cumulative IPC: 0.672605 (Simulation time: 0 hr 11 min 55 sec) 
Heartbeat CPU 0 instructions: 420000000 cycles: 530416306 heartbeat IPC: 0.678699 cumulative IPC: 0.672793 (Simulation time: 0 hr 12 min 14 sec) 
Heartbeat CPU 0 instructions: 430000000 cycles: 545828864 heartbeat IPC: 0.648822 cumulative IPC: 0.672041 (Simulation time: 0 hr 12 min 33 sec) 
Heartbeat CPU 0 instructions: 440000000 cycles: 560632249 heartbeat IPC: 0.675521 cumulative IPC: 0.672143 (Simulation time: 0 hr 12 min 51 sec) 
Heartbeat CPU 0 instructions: 450000000 cycles: 575611244 heartbeat IPC: 0.667602 cumulative IPC: 0.672012 (Simulation time: 0 hr 13 min 10 sec) 
Heartbeat CPU 0 instructions: 460000000 cycles: 591349254 heartbeat IPC: 0.635404 cumulative IPC: 0.670938 (Simulation time: 0 hr 13 min 29 sec) 
Heartbeat CPU 0 instructions: 470000000 cycles: 606423896 heartbeat IPC: 0.663366 cumulative IPC: 0.670731 (Simulation time: 0 hr 13 min 47 sec) 
Heartbeat CPU 0 instructions: 480000000 cycles: 621289937 heartbeat IPC: 0.672674 cumulative IPC: 0.670782 (Simulation time: 0 hr 14 min 6 sec) 
Heartbeat CPU 0 instructions: 490000002 cycles: 636558333 heartbeat IPC: 0.654948 cumulative IPC: 0.670367 (Simulation time: 0 hr 14 min 25 sec) 
Heartbeat CPU 0 instructions: 500000000 cycles: 651428716 heartbeat IPC: 0.672477 cumulative IPC: 0.670419 (Simulation time: 0 hr 14 min 44 sec) 
Heartbeat CPU 0 instructions: 510000001 cycles: 666535392 heartbeat IPC: 0.661959 cumulative IPC: 0.67021 (Simulation time: 0 hr 15 min 2 sec) 
Heartbeat CPU 0 instructions: 520000000 cycles: 682001583 heartbeat IPC: 0.646572 cumulative IPC: 0.669628 (Simulation time: 0 hr 15 min 21 sec) 
Heartbeat CPU 0 instructions: 530000001 cycles: 697418480 heartbeat IPC: 0.648639 cumulative IPC: 0.669124 (Simulation time: 0 hr 15 min 40 sec) 
Heartbeat CPU 0 instructions: 540000000 cycles: 712004033 heartbeat IPC: 0.68561 cumulative IPC: 0.66949 (Simulation time: 0 hr 15 min 59 sec) 
Heartbeat CPU 0 instructions: 550000001 cycles: 727261079 heartbeat IPC: 0.655435 cumulative IPC: 0.669171 (Simulation time: 0 hr 16 min 18 sec) 
Heartbeat CPU 0 instructions: 560000000 cycles: 742062048 heartbeat IPC: 0.675631 cumulative IPC: 0.66931 (Simulation time: 0 hr 16 min 36 sec) 
Heartbeat CPU 0 instructions: 570000002 cycles: 757209097 heartbeat IPC: 0.660195 cumulative IPC: 0.669114 (Simulation time: 0 hr 16 min 55 sec) 
Heartbeat CPU 0 instructions: 580000000 cycles: 772219661 heartbeat IPC: 0.666197 cumulative IPC: 0.669053 (Simulation time: 0 hr 17 min 14 sec) 
Heartbeat CPU 0 instructions: 590000001 cycles: 787217159 heartbeat IPC: 0.666778 cumulative IPC: 0.669006 (Simulation time: 0 hr 17 min 33 sec) 
Heartbeat CPU 0 instructions: 600000000 cycles: 801867605 heartbeat IPC: 0.682573 cumulative IPC: 0.669272 (Simulation time: 0 hr 17 min 51 sec) 
Finished CPU 0 instructions: 500000000 cycles: 747080313 cumulative IPC: 0.669272 (Simulation time: 0 hr 17 min 51 sec) 

CPU 0 Branch Prediction Accuracy: 93.7783% MPKI: 10.0718
Number of Branches: 80940586 Number of Mispredictions: 5035908
Number of LOAD Instructions: 184238101
Number of LOAD Instructions (ROI): 184238101
Number of STORE Instructions: 33143298
Number of STORE Instructions (ROI): 33143298
Total Destination Memory Operands: 33324321
Total Destination Memory Operands (ROI): 33324321
Total Source Memory Operands: 184238101
Total Source Memory Operands (ROI): 184238101
Number of DEPENDED LOADS: 4461394
Number of DEPENDED LOADS (ROI): 4461394
Number of SQ_ADDED: 33324292
Number of SQ_ADDED (ROI): 33324292
Number of LQ_ADDED: 184867716
Number of LQ_ADDED (ROI): 184867716
Number of Instructions read from trace: 600000256

ChampSim completed all CPUs

Region of Interest Statistics

CPU 0 cumulative IPC: 0.669272 instructions: 500000000 cycles: 747080313
ITLB TOTAL     ACCESS:   77746081  HIT:   77746081  MISS:          0
ITLB LOAD      ACCESS:   77746081  HIT:   77746081  MISS:          0
ITLB RFO       ACCESS:          0  HIT:          0  MISS:          0
ITLB PREFETCH  ACCESS:          0  HIT:          0  MISS:          0
ITLB WRITEBACK ACCESS:          0  HIT:          0  MISS:          0
ITLB PREFETCH  REQUESTED:          0  ISSUED:          0  USEFUL:          0  USELESS:          0
ITLB TOTAL MSHR MERGED:          0
ITLB LOAD MSHR MERGED:          0
ITLB RFO MSHR MERGED:          0
ITLB PREFETCH MSHR MERGED:          0
ITLB WRITEBACK MSHR MERGED:          0
ITLB TOTAL ACCESSES:   77746081 HITS:   77746081 MISSES:          0
ITLB LOAD ACCESSES:   77746081 HITS:   77746081 MISSES:          0
ITLB RFO ACCESSES:          0 HITS:          0 MISSES:          0
ITLB PREFETCH ACCESSES:          0 HITS:          0 MISSES:          0
ITLB WRITEBACK ACCESSES:          0 HITS:          0 MISSES:          0
ITLB RQ ACCESS:  500000245
ITLB RQ TO_CACHE:   77746081
ITLB RQ MERGED:  422254164
ITLB RQ FORWARD:          0
ITLB WQ ACCESS:          0
ITLB WQ TO_CACHE:          0
ITLB WQ MERGED:          0
ITLB WQ FORWARD:          0
DTLB TOTAL     ACCESS:   88436816  HIT:   87299966  MISS:    1136850
DTLB LOAD      ACCESS:   66310091  HIT:   65177481  MISS:    1132610
DTLB RFO       ACCESS:   22126725  HIT:   22122485  MISS:       4240
DTLB PREFETCH  ACCESS:          0  HIT:          0  MISS:          0
DTLB WRITEBACK ACCESS:          0  HIT:          0  MISS:          0
DTLB PREFETCH  REQUESTED:          0  ISSUED:          0  USEFUL:          0  USELESS:          0
DTLB TOTAL MSHR MERGED:     135525
DTLB LOAD MSHR MERGED:     133708
DTLB RFO MSHR MERGED:       1817
DTLB PREFETCH MSHR MERGED:          0
DTLB WRITEBACK MSHR MERGED:          0
DTLB TOTAL ACCESSES:   88572341 HITS:   87299966 MISSES:    1272375
DTLB LOAD ACCESSES:   66443799 HITS:   65177481 MISSES:    1266318
DTLB RFO ACCESSES:   22128542 HITS:   22122485 MISSES:       6057
DTLB PREFETCH ACCESSES:          0 HITS:          0 MISSES:          0
DTLB WRITEBACK ACCESSES:          0 HITS:          0 MISSES:          0
DTLB RQ ACCESS:  177579341
DTLB RQ TO_CACHE:   88572341
DTLB RQ MERGED:   89007000
DTLB RQ FORWARD:          0
DTLB WQ ACCESS:          0
DTLB WQ TO_CACHE:          0
DTLB WQ MERGED:          0
DTLB WQ FORWARD:          0
L1D TOTAL     ACCESS:  142081030  HIT:  136521983  MISS:    5559047
L1D LOAD      ACCESS:   61384000  HIT:   58275616  MISS:    3108384
L1D RFO       ACCESS:   27668711  HIT:   27586898  MISS:      81813
L1D PREFETCH  ACCESS:   53028319  HIT:   50659469  MISS:    2368850
L1D WRITEBACK ACCESS:          0  HIT:          0  MISS:          0
L1D PREFETCH  REQUESTED:   61670280  ISSUED:   60752112  USEFUL:     661969  USELESS:    1706886
L1D TOTAL MSHR MERGED:    1198600
L1D LOAD MSHR MERGED:     389028
L1D RFO MSHR MERGED:     164372
L1D PREFETCH MSHR MERGED:     645200
L1D WRITEBACK MSHR MERGED:          0
L1D TOTAL ACCESSES:  143377245 HITS:  136619598 MISSES:    6757647
L1D LOAD ACCESSES:   61670290 HITS:   58275626 MISSES:    3394664
L1D RFO ACCESSES:   27829287 HITS:   27586898 MISSES:     242389
L1D PREFETCH ACCESSES:   53877668 HITS:   50757074 MISSES:    3120594
L1D WRITEBACK ACCESSES:          0 HITS:          0 MISSES:          0
L1D RQ ACCESS:  149746375
L1D RQ TO_CACHE:   61670280
L1D RQ MERGED:   88076085
L1D RQ FORWARD:          0
L1D WQ ACCESS:   27832966
L1D WQ TO_CACHE:   27829287
L1D WQ MERGED:       3679
L1D WQ FORWARD:      97615
L1I TOTAL     ACCESS:   96223416  HIT:   96064148  MISS:     159268
L1I LOAD      ACCESS:   96223416  HIT:   96064148  MISS:     159268
L1I RFO       ACCESS:          0  HIT:          0  MISS:          0
L1I PREFETCH  ACCESS:          0  HIT:          0  MISS:          0
L1I WRITEBACK ACCESS:          0  HIT:          0  MISS:          0
L1I PREFETCH  REQUESTED:          0  ISSUED:          0  USEFUL:          0  USELESS:          0
L1I TOTAL MSHR MERGED:     130253
L1I LOAD MSHR MERGED:     130253
L1I RFO MSHR MERGED:          0
L1I PREFETCH MSHR MERGED:          0
L1I WRITEBACK MSHR MERGED:          0
L1I TOTAL ACCESSES:   96353669 HITS:   96064148 MISSES:     289521
L1I LOAD ACCESSES:   96353669 HITS:   96064148 MISSES:     289521
L1I RFO ACCESSES:          0 HITS:          0 MISSES:          0
L1I PREFETCH ACCESSES:          0 HITS:          0 MISSES:          0
L1I WRITEBACK ACCESSES:          0 HITS:          0 MISSES:          0
L1I RQ ACCESS:  500000245
L1I RQ TO_CACHE:   96353669
L1I RQ MERGED:  403646576
L1I RQ FORWARD:          0
L1I WQ ACCESS:          0
L1I WQ TO_CACHE:          0
L1I WQ MERGED:          0
L1I WQ FORWARD:          0
L2C TOTAL     ACCESS:    5910967  HIT:    3062294  MISS:    2848673
L2C LOAD      ACCESS:    3164894  HIT:    1583012  MISS:    1581882
L2C RFO       ACCESS:      77941  HIT:      45087  MISS:      32854
L2C PREFETCH  ACCESS:    2524602  HIT:    1296248  MISS:    1228354
L2C WRITEBACK ACCESS:     143530  HIT:     137947  MISS:       5583
L2C PREFETCH  REQUESTED:      52724  ISSUED:      52724  USEFUL:      18671  USELESS:    1209723
L2C TOTAL MSHR MERGED:       2582
L2C LOAD MSHR MERGED:        937
L2C RFO MSHR MERGED:          0
L2C PREFETCH MSHR MERGED:       1645
L2C WRITEBACK MSHR MERGED:          0
L2C TOTAL ACCESSES:    5913643 HITS:    3062380 MISSES:    2851263
L2C LOAD ACCESSES:    3164904 HITS:    1583022 MISSES:    1581882
L2C RFO ACCESSES:      78017 HITS:      45163 MISSES:      32854
L2C PREFETCH ACCESSES:    2527192 HITS:    1296248 MISSES:    1230944
L2C WRITEBACK ACCESSES:     143530 HITS:     137947 MISSES:       5583
L2C RQ ACCESS:    3242921
L2C RQ TO_CACHE:    3242835
L2C RQ MERGED:          0
L2C RQ FORWARD:          0
L2C WQ ACCESS:     143530
L2C WQ TO_CACHE:     143530
L2C WQ MERGED:          0
L2C WQ FORWARD:         86
LLC TOTAL     ACCESS:    2892633  HIT:    1806604  MISS:    1086029
LLC LOAD      ACCESS:    1580945  HIT:    1132853  MISS:     448092
LLC RFO       ACCESS:      32844  HIT:      32252  MISS:        592
LLC PREFETCH  ACCESS:    1229299  HIT:     593562  MISS:     635737
LLC WRITEBACK ACCESS:      49545  HIT:      47937  MISS:       1608
LLC PREFETCH  REQUESTED:          0  ISSUED:          0  USEFUL:       3097  USELESS:     632677
LLC TOTAL MSHR MERGED:          0
LLC LOAD MSHR MERGED:          0
LLC RFO MSHR MERGED:          0
LLC PREFETCH MSHR MERGED:          0
LLC WRITEBACK MSHR MERGED:          0
LLC TOTAL ACCESSES:    2892643 HITS:    1806614 MISSES:    1086029
LLC LOAD ACCESSES:    1580945 HITS:    1132853 MISSES:     448092
LLC RFO ACCESSES:      32854 HITS:      32262 MISSES:        592
LLC PREFETCH ACCESSES:    1229299 HITS:     593562 MISSES:     635737
LLC WRITEBACK ACCESSES:      49545 HITS:      47937 MISSES:       1608
LLC 0 RQ ACCESS:    1613799
LLC 0 RQ TO_CACHE:    1613789
LLC 0 RQ MERGED:          0
LLC 0 RQ FORWARD:          0
LLC WQ ACCESS:      49545
LLC WQ TO_CACHE:      49545
LLC WQ MERGED:          0
LLC WQ FORWARD:         10
Major fault: 0 Minor fault: 8460
CPU 0 L1D next line prefetcher final stats
CPU 0 L2C PC-based stride prefetcher final stats
All Misses: 1318707
All Hits: 2110522
SD Algo Stats - Switches: 0 SRR-Repls: 519314 BRR-Repls: 0

DRAM Statistics
 CHANNEL 0
 RQ ROW_BUFFER_HIT:     370203  ROW_BUFFER_MISS:     713740
 DBUS_CONGESTED:     332886
 WQ ROW_BUFFER_HIT:        148  ROW_BUFFER_MISS:       1045  FULL:          0

 AVG_CONGESTED_CYCLE: 12
LOADS RETIRED: 153532848
INSTR RETIRED: 500000000
