
*** ChampSim Multicore Out-of-Order Simulator ***

Warmup Instructions: 100000000
Simulation Instructions: 500000000
Number of CPUs: 1
LLC sets: 2048
LLC ways: 16
Clean RRIP Policies: 1213030112130301 Dirty RRIP Policies: 2203130122031301 PSEL Width: 10 Track Set: 4294967295 PSEL Mask: 1 Demote Mask: 3040201130402011DS Algo: 0Window size: 0
Off-chip DRAM Size: 4096 MB Channels: 1 Width: 64-bit Data Rate: 1600 MT/s

CPU 0 runs /mnt/beegfs/iconst01/spec2017/Xz.trace.gz
NOT SORTED
TRACE STRING: /mnt/beegfs/iconst01/spec2017/Xz.trace.gz
SORTED
TRACE STRING: /mnt/beegfs/iconst01/spec2017/Xz.trace.gz
INITIAL
TRACE STRING: /mnt/beegfs/iconst01/spec2017/Xz.trace.gz

champsim_seed used: 210

CPU 0 L1D next line prefetcher
CPU 0 L2C IP-based stride prefetcher
Initialize DRRIP state
Assign rand_sets[0]: 454  LLC: 2048
rand_sets[0]: 454
Assign rand_sets[1]: 1662  LLC: 2048
rand_sets[1]: 1662
Assign rand_sets[2]: 1921  LLC: 2048
rand_sets[2]: 1921
Assign rand_sets[3]: 1131  LLC: 2048
rand_sets[3]: 1131
Assign rand_sets[4]: 331  LLC: 2048
rand_sets[4]: 331
Assign rand_sets[5]: 1531  LLC: 2048
rand_sets[5]: 1531
Assign rand_sets[6]: 482  LLC: 2048
rand_sets[6]: 482
Assign rand_sets[7]: 1275  LLC: 2048
rand_sets[7]: 1275
Assign rand_sets[8]: 1876  LLC: 2048
rand_sets[8]: 1876
Assign rand_sets[9]: 2038  LLC: 2048
rand_sets[9]: 2038
Assign rand_sets[10]: 701  LLC: 2048
rand_sets[10]: 701
Assign rand_sets[11]: 479  LLC: 2048
rand_sets[11]: 479
Assign rand_sets[12]: 892  LLC: 2048
rand_sets[12]: 892
Assign rand_sets[13]: 1820  LLC: 2048
rand_sets[13]: 1820
Assign rand_sets[14]: 1505  LLC: 2048
rand_sets[14]: 1505
Assign rand_sets[15]: 1159  LLC: 2048
rand_sets[15]: 1159
Assign rand_sets[16]: 513  LLC: 2048
rand_sets[16]: 513
Assign rand_sets[17]: 703  LLC: 2048
rand_sets[17]: 703
Assign rand_sets[18]: 561  LLC: 2048
rand_sets[18]: 561
Assign rand_sets[19]: 990  LLC: 2048
rand_sets[19]: 990
Assign rand_sets[20]: 342  LLC: 2048
rand_sets[20]: 342
Assign rand_sets[21]: 882  LLC: 2048
rand_sets[21]: 882
Assign rand_sets[22]: 15  LLC: 2048
rand_sets[22]: 15
Assign rand_sets[23]: 71  LLC: 2048
rand_sets[23]: 71
Assign rand_sets[24]: 1127  LLC: 2048
rand_sets[24]: 1127
Assign rand_sets[25]: 1382  LLC: 2048
rand_sets[25]: 1382
Assign rand_sets[26]: 647  LLC: 2048
rand_sets[26]: 647
Assign rand_sets[27]: 857  LLC: 2048
rand_sets[27]: 857
Assign rand_sets[28]: 1450  LLC: 2048
rand_sets[28]: 1450
Assign rand_sets[29]: 1160  LLC: 2048
rand_sets[29]: 1160
Assign rand_sets[30]: 1852  LLC: 2048
rand_sets[30]: 1852
Assign rand_sets[31]: 1881  LLC: 2048
rand_sets[31]: 1881
Assign rand_sets[32]: 1770  LLC: 2048
rand_sets[32]: 1770
Assign rand_sets[33]: 1622  LLC: 2048
rand_sets[33]: 1622
Assign rand_sets[34]: 275  LLC: 2048
rand_sets[34]: 275
Assign rand_sets[35]: 635  LLC: 2048
rand_sets[35]: 635
Assign rand_sets[36]: 466  LLC: 2048
rand_sets[36]: 466
Assign rand_sets[37]: 1413  LLC: 2048
rand_sets[37]: 1413
Assign rand_sets[38]: 417  LLC: 2048
rand_sets[38]: 417
Assign rand_sets[39]: 472  LLC: 2048
rand_sets[39]: 472
Assign rand_sets[40]: 1340  LLC: 2048
rand_sets[40]: 1340
Assign rand_sets[41]: 852  LLC: 2048
rand_sets[41]: 852
Assign rand_sets[42]: 1365  LLC: 2048
rand_sets[42]: 1365
Assign rand_sets[43]: 47  LLC: 2048
rand_sets[43]: 47
Assign rand_sets[44]: 823  LLC: 2048
rand_sets[44]: 823
Assign rand_sets[45]: 686  LLC: 2048
rand_sets[45]: 686
Assign rand_sets[46]: 1637  LLC: 2048
rand_sets[46]: 1637
Assign rand_sets[47]: 1115  LLC: 2048
rand_sets[47]: 1115
Assign rand_sets[48]: 986  LLC: 2048
rand_sets[48]: 986
Assign rand_sets[49]: 258  LLC: 2048
rand_sets[49]: 258
Assign rand_sets[50]: 633  LLC: 2048
rand_sets[50]: 633
Assign rand_sets[51]: 920  LLC: 2048
rand_sets[51]: 920
Assign rand_sets[52]: 204  LLC: 2048
rand_sets[52]: 204
Assign rand_sets[53]: 227  LLC: 2048
rand_sets[53]: 227
Assign rand_sets[54]: 1818  LLC: 2048
rand_sets[54]: 1818
Assign rand_sets[55]: 886  LLC: 2048
rand_sets[55]: 886
Assign rand_sets[56]: 1422  LLC: 2048
rand_sets[56]: 1422
Assign rand_sets[57]: 607  LLC: 2048
rand_sets[57]: 607
Assign rand_sets[58]: 217  LLC: 2048
rand_sets[58]: 217
Assign rand_sets[59]: 1945  LLC: 2048
rand_sets[59]: 1945
Assign rand_sets[60]: 143  LLC: 2048
rand_sets[60]: 143
Assign rand_sets[61]: 1311  LLC: 2048
rand_sets[61]: 1311
Assign rand_sets[62]: 319  LLC: 2048
rand_sets[62]: 319
Assign rand_sets[63]: 1846  LLC: 2048
rand_sets[63]: 1846
 CLEAN-RRIP-POLICY-1: 1-2-1-3-0-3-0-1- CLEAN-RRIP-POLICY-2: 1-2-1-3-0-3-0-1-
 DIRTY-RRIP-POLICY-1: 2-2-0-3-1-3-0-1- DIRTY-RRIP-POLICY-2: 2-2-0-3-1-3-0-1-
 PSEL width: 10
Heartbeat CPU 0 instructions: 10000000 cycles: 4305270 heartbeat IPC: 2.32273 cumulative IPC: 2.32273 (Simulation time: 0 hr 0 min 11 sec) 
Heartbeat CPU 0 instructions: 20000000 cycles: 8617102 heartbeat IPC: 2.3192 cumulative IPC: 2.32097 (Simulation time: 0 hr 0 min 23 sec) 
Heartbeat CPU 0 instructions: 30000003 cycles: 13160987 heartbeat IPC: 2.20076 cumulative IPC: 2.27946 (Simulation time: 0 hr 0 min 35 sec) 
Heartbeat CPU 0 instructions: 40000000 cycles: 17515463 heartbeat IPC: 2.29649 cumulative IPC: 2.2837 (Simulation time: 0 hr 0 min 47 sec) 
Heartbeat CPU 0 instructions: 50000001 cycles: 21878295 heartbeat IPC: 2.29209 cumulative IPC: 2.28537 (Simulation time: 0 hr 0 min 58 sec) 
Heartbeat CPU 0 instructions: 60000000 cycles: 26178513 heartbeat IPC: 2.32546 cumulative IPC: 2.29196 (Simulation time: 0 hr 1 min 10 sec) 
Heartbeat CPU 0 instructions: 70000001 cycles: 30244393 heartbeat IPC: 2.45949 cumulative IPC: 2.31448 (Simulation time: 0 hr 1 min 20 sec) 
Heartbeat CPU 0 instructions: 80000000 cycles: 34523177 heartbeat IPC: 2.33711 cumulative IPC: 2.31728 (Simulation time: 0 hr 1 min 32 sec) 
Heartbeat CPU 0 instructions: 90000001 cycles: 38739819 heartbeat IPC: 2.37156 cumulative IPC: 2.32319 (Simulation time: 0 hr 1 min 43 sec) 
Heartbeat CPU 0 instructions: 100000000 cycles: 42980206 heartbeat IPC: 2.35828 cumulative IPC: 2.32665 (Simulation time: 0 hr 1 min 54 sec) 

Warmup complete CPU 0 instructions: 100000001 cycles: 42980207 (Simulation time: 0 hr 1 min 54 sec) 

Heartbeat CPU 0 instructions: 110000000 cycles: 53129016 heartbeat IPC: 0.985337 cumulative IPC: 0.985337 (Simulation time: 0 hr 2 min 10 sec) 
Heartbeat CPU 0 instructions: 120000000 cycles: 63784423 heartbeat IPC: 0.938491 cumulative IPC: 0.961344 (Simulation time: 0 hr 2 min 27 sec) 
Heartbeat CPU 0 instructions: 130000001 cycles: 74414351 heartbeat IPC: 0.94074 cumulative IPC: 0.954376 (Simulation time: 0 hr 2 min 44 sec) 
Heartbeat CPU 0 instructions: 140000000 cycles: 84116160 heartbeat IPC: 1.03074 cumulative IPC: 0.972385 (Simulation time: 0 hr 3 min 0 sec) 
Heartbeat CPU 0 instructions: 150000001 cycles: 94454899 heartbeat IPC: 0.967236 cumulative IPC: 0.971351 (Simulation time: 0 hr 3 min 17 sec) 
Heartbeat CPU 0 instructions: 160000000 cycles: 104540427 heartbeat IPC: 0.99152 cumulative IPC: 0.974655 (Simulation time: 0 hr 3 min 34 sec) 
Heartbeat CPU 0 instructions: 170000000 cycles: 114233147 heartbeat IPC: 1.0317 cumulative IPC: 0.982416 (Simulation time: 0 hr 3 min 50 sec) 
Heartbeat CPU 0 instructions: 180000000 cycles: 124815737 heartbeat IPC: 0.944948 cumulative IPC: 0.97757 (Simulation time: 0 hr 4 min 7 sec) 
Heartbeat CPU 0 instructions: 190000001 cycles: 135104423 heartbeat IPC: 0.971942 cumulative IPC: 0.976942 (Simulation time: 0 hr 4 min 24 sec) 
Heartbeat CPU 0 instructions: 200000000 cycles: 145712415 heartbeat IPC: 0.942685 cumulative IPC: 0.973405 (Simulation time: 0 hr 4 min 40 sec) 
Heartbeat CPU 0 instructions: 210000002 cycles: 158205185 heartbeat IPC: 0.800463 cumulative IPC: 0.954654 (Simulation time: 0 hr 4 min 58 sec) 
Heartbeat CPU 0 instructions: 220000000 cycles: 170800839 heartbeat IPC: 0.793924 cumulative IPC: 0.938816 (Simulation time: 0 hr 5 min 16 sec) 
Heartbeat CPU 0 instructions: 230000000 cycles: 183029300 heartbeat IPC: 0.817764 cumulative IPC: 0.928246 (Simulation time: 0 hr 5 min 34 sec) 
Heartbeat CPU 0 instructions: 240000000 cycles: 195217692 heartbeat IPC: 0.820453 cumulative IPC: 0.919616 (Simulation time: 0 hr 5 min 52 sec) 
Heartbeat CPU 0 instructions: 250000000 cycles: 207251092 heartbeat IPC: 0.83102 cumulative IPC: 0.913126 (Simulation time: 0 hr 6 min 9 sec) 
Heartbeat CPU 0 instructions: 260000000 cycles: 218854858 heartbeat IPC: 0.861789 cumulative IPC: 0.909739 (Simulation time: 0 hr 6 min 27 sec) 
Heartbeat CPU 0 instructions: 270000003 cycles: 230800939 heartbeat IPC: 0.837095 cumulative IPC: 0.905118 (Simulation time: 0 hr 6 min 44 sec) 
Heartbeat CPU 0 instructions: 280000000 cycles: 242388830 heartbeat IPC: 0.86297 cumulative IPC: 0.902669 (Simulation time: 0 hr 7 min 1 sec) 
Heartbeat CPU 0 instructions: 290000002 cycles: 253984955 heartbeat IPC: 0.862357 cumulative IPC: 0.900454 (Simulation time: 0 hr 7 min 19 sec) 
Heartbeat CPU 0 instructions: 300000000 cycles: 266504877 heartbeat IPC: 0.798727 cumulative IPC: 0.894756 (Simulation time: 0 hr 7 min 36 sec) 
Heartbeat CPU 0 instructions: 310000000 cycles: 278759596 heartbeat IPC: 0.816012 cumulative IPC: 0.890663 (Simulation time: 0 hr 7 min 54 sec) 
Heartbeat CPU 0 instructions: 320000000 cycles: 291492914 heartbeat IPC: 0.785341 cumulative IPC: 0.885267 (Simulation time: 0 hr 8 min 12 sec) 
Heartbeat CPU 0 instructions: 330000003 cycles: 303523238 heartbeat IPC: 0.831233 cumulative IPC: 0.882772 (Simulation time: 0 hr 8 min 29 sec) 
Heartbeat CPU 0 instructions: 340000000 cycles: 315723669 heartbeat IPC: 0.819643 cumulative IPC: 0.879948 (Simulation time: 0 hr 8 min 46 sec) 
Heartbeat CPU 0 instructions: 350000001 cycles: 326752310 heartbeat IPC: 0.90673 cumulative IPC: 0.880989 (Simulation time: 0 hr 9 min 3 sec) 
Heartbeat CPU 0 instructions: 360000000 cycles: 338612658 heartbeat IPC: 0.843145 cumulative IPC: 0.87947 (Simulation time: 0 hr 9 min 21 sec) 
Heartbeat CPU 0 instructions: 370000001 cycles: 350057104 heartbeat IPC: 0.873786 cumulative IPC: 0.879259 (Simulation time: 0 hr 9 min 38 sec) 
Heartbeat CPU 0 instructions: 380000000 cycles: 361094644 heartbeat IPC: 0.905999 cumulative IPC: 0.880186 (Simulation time: 0 hr 9 min 55 sec) 
Heartbeat CPU 0 instructions: 390000003 cycles: 371759985 heartbeat IPC: 0.937617 cumulative IPC: 0.882049 (Simulation time: 0 hr 10 min 12 sec) 
Heartbeat CPU 0 instructions: 400000000 cycles: 382010184 heartbeat IPC: 0.975591 cumulative IPC: 0.884878 (Simulation time: 0 hr 10 min 29 sec) 
Heartbeat CPU 0 instructions: 410000000 cycles: 392570045 heartbeat IPC: 0.946982 cumulative IPC: 0.886753 (Simulation time: 0 hr 10 min 45 sec) 
Heartbeat CPU 0 instructions: 420000000 cycles: 401974191 heartbeat IPC: 1.06336 cumulative IPC: 0.89138 (Simulation time: 0 hr 11 min 2 sec) 
Heartbeat CPU 0 instructions: 430000002 cycles: 411068736 heartbeat IPC: 1.09956 cumulative IPC: 0.896523 (Simulation time: 0 hr 11 min 18 sec) 
Heartbeat CPU 0 instructions: 440000000 cycles: 421370595 heartbeat IPC: 0.970698 cumulative IPC: 0.898543 (Simulation time: 0 hr 11 min 35 sec) 
Heartbeat CPU 0 instructions: 450000002 cycles: 432502352 heartbeat IPC: 0.898331 cumulative IPC: 0.898537 (Simulation time: 0 hr 11 min 52 sec) 
Heartbeat CPU 0 instructions: 460000000 cycles: 444097684 heartbeat IPC: 0.862416 cumulative IPC: 0.897493 (Simulation time: 0 hr 12 min 9 sec) 
Heartbeat CPU 0 instructions: 470000003 cycles: 454321275 heartbeat IPC: 0.97813 cumulative IPC: 0.899497 (Simulation time: 0 hr 12 min 26 sec) 
Heartbeat CPU 0 instructions: 480000000 cycles: 464890930 heartbeat IPC: 0.946104 cumulative IPC: 0.900664 (Simulation time: 0 hr 12 min 43 sec) 
Heartbeat CPU 0 instructions: 490000000 cycles: 474870395 heartbeat IPC: 1.00206 cumulative IPC: 0.903007 (Simulation time: 0 hr 12 min 59 sec) 
Heartbeat CPU 0 instructions: 500000000 cycles: 486712999 heartbeat IPC: 0.844409 cumulative IPC: 0.901443 (Simulation time: 0 hr 13 min 16 sec) 
Heartbeat CPU 0 instructions: 510000002 cycles: 499142201 heartbeat IPC: 0.804557 cumulative IPC: 0.898804 (Simulation time: 0 hr 13 min 34 sec) 
Heartbeat CPU 0 instructions: 520000000 cycles: 511020285 heartbeat IPC: 0.841886 cumulative IPC: 0.897359 (Simulation time: 0 hr 13 min 52 sec) 
Heartbeat CPU 0 instructions: 530000001 cycles: 522889802 heartbeat IPC: 0.842494 cumulative IPC: 0.896002 (Simulation time: 0 hr 14 min 9 sec) 
Heartbeat CPU 0 instructions: 540000000 cycles: 534528053 heartbeat IPC: 0.859236 cumulative IPC: 0.895132 (Simulation time: 0 hr 14 min 26 sec) 
Heartbeat CPU 0 instructions: 550000001 cycles: 545961961 heartbeat IPC: 0.874592 cumulative IPC: 0.894665 (Simulation time: 0 hr 14 min 43 sec) 
Heartbeat CPU 0 instructions: 560000000 cycles: 557562766 heartbeat IPC: 0.862009 cumulative IPC: 0.893928 (Simulation time: 0 hr 15 min 1 sec) 
Heartbeat CPU 0 instructions: 570000000 cycles: 569010310 heartbeat IPC: 0.87355 cumulative IPC: 0.893485 (Simulation time: 0 hr 15 min 18 sec) 
Heartbeat CPU 0 instructions: 580000000 cycles: 579796501 heartbeat IPC: 0.927111 cumulative IPC: 0.894161 (Simulation time: 0 hr 15 min 35 sec) 
Heartbeat CPU 0 instructions: 590000003 cycles: 591245976 heartbeat IPC: 0.873403 cumulative IPC: 0.893727 (Simulation time: 0 hr 15 min 52 sec) 
Heartbeat CPU 0 instructions: 600000000 cycles: 601859059 heartbeat IPC: 0.942233 cumulative IPC: 0.894648 (Simulation time: 0 hr 16 min 9 sec) 
Finished CPU 0 instructions: 500000001 cycles: 558878860 cumulative IPC: 0.894648 (Simulation time: 0 hr 16 min 9 sec) 

CPU 0 Branch Prediction Accuracy: 93.0095% MPKI: 10.0046
Number of Branches: 71558147 Number of Mispredictions: 5002285
Number of LOAD Instructions: 145708893
Number of LOAD Instructions (ROI): 145708893
Number of STORE Instructions: 40463820
Number of STORE Instructions (ROI): 40463820
Total Destination Memory Operands: 45240498
Total Destination Memory Operands (ROI): 45240498
Total Source Memory Operands: 145708893
Total Source Memory Operands (ROI): 145708893
Number of DEPENDED LOADS: 10673612
Number of DEPENDED LOADS (ROI): 10673612
Number of SQ_ADDED: 45240498
Number of SQ_ADDED (ROI): 45240498
Number of LQ_ADDED: 193328486
Number of LQ_ADDED (ROI): 193328486
Number of Instructions read from trace: 600000002

ChampSim completed all CPUs

Region of Interest Statistics

CPU 0 cumulative IPC: 0.894648 instructions: 500000001 cycles: 558878860
ITLB TOTAL     ACCESS:   77991990  HIT:   77991989  MISS:          1
ITLB LOAD      ACCESS:   77991990  HIT:   77991989  MISS:          1
ITLB RFO       ACCESS:          0  HIT:          0  MISS:          0
ITLB PREFETCH  ACCESS:          0  HIT:          0  MISS:          0
ITLB WRITEBACK ACCESS:          0  HIT:          0  MISS:          0
ITLB PREFETCH  REQUESTED:          0  ISSUED:          0  USEFUL:          0  USELESS:          0
ITLB TOTAL MSHR MERGED:          0
ITLB LOAD MSHR MERGED:          0
ITLB RFO MSHR MERGED:          0
ITLB PREFETCH MSHR MERGED:          0
ITLB WRITEBACK MSHR MERGED:          0
ITLB TOTAL ACCESSES:   77991990 HITS:   77991989 MISSES:          1
ITLB LOAD ACCESSES:   77991990 HITS:   77991989 MISSES:          1
ITLB RFO ACCESSES:          0 HITS:          0 MISSES:          0
ITLB PREFETCH ACCESSES:          0 HITS:          0 MISSES:          0
ITLB WRITEBACK ACCESSES:          0 HITS:          0 MISSES:          0
ITLB RQ ACCESS:  499999995
ITLB RQ TO_CACHE:   77991990
ITLB RQ MERGED:  422008005
ITLB RQ FORWARD:          0
ITLB WQ ACCESS:          0
ITLB WQ TO_CACHE:          0
ITLB WQ MERGED:          0
ITLB WQ FORWARD:          0
DTLB TOTAL     ACCESS:   98672473  HIT:   97791136  MISS:     881337
DTLB LOAD      ACCESS:   70892678  HIT:   70031144  MISS:     861534
DTLB RFO       ACCESS:   27779795  HIT:   27759992  MISS:      19803
DTLB PREFETCH  ACCESS:          0  HIT:          0  MISS:          0
DTLB WRITEBACK ACCESS:          0  HIT:          0  MISS:          0
DTLB PREFETCH  REQUESTED:          0  ISSUED:          0  USEFUL:          0  USELESS:          0
DTLB TOTAL MSHR MERGED:      87369
DTLB LOAD MSHR MERGED:      65630
DTLB RFO MSHR MERGED:      21739
DTLB PREFETCH MSHR MERGED:          0
DTLB WRITEBACK MSHR MERGED:          0
DTLB TOTAL ACCESSES:   98759842 HITS:   97791136 MISSES:     968706
DTLB LOAD ACCESSES:   70958308 HITS:   70031144 MISSES:     927164
DTLB RFO ACCESSES:   27801534 HITS:   27759992 MISSES:      41542
DTLB PREFETCH ACCESSES:          0 HITS:          0 MISSES:          0
DTLB WRITEBACK ACCESSES:          0 HITS:          0 MISSES:          0
DTLB RQ ACCESS:  150271442
DTLB RQ TO_CACHE:   98759842
DTLB RQ MERGED:   51511600
DTLB RQ FORWARD:          0
DTLB WQ ACCESS:          0
DTLB WQ TO_CACHE:          0
DTLB WQ MERGED:          0
DTLB WQ FORWARD:          0
L1D TOTAL     ACCESS:  173326597  HIT:  169157970  MISS:    4168627
L1D LOAD      ACCESS:   75280593  HIT:   73399218  MISS:    1881375
L1D RFO       ACCESS:   36778133  HIT:   36571499  MISS:     206634
L1D PREFETCH  ACCESS:   61267871  HIT:   59187253  MISS:    2080618
L1D WRITEBACK ACCESS:          0  HIT:          0  MISS:          0
L1D PREFETCH  REQUESTED:   75383681  ISSUED:   74819475  USEFUL:     415067  USELESS:    1665540
L1D TOTAL MSHR MERGED:     372658
L1D LOAD MSHR MERGED:     111895
L1D RFO MSHR MERGED:     133229
L1D PREFETCH MSHR MERGED:     127534
L1D WRITEBACK MSHR MERGED:          0
L1D TOTAL ACCESSES:  173851105 HITS:  169309820 MISSES:    4541285
L1D LOAD ACCESSES:   75386823 HITS:   73402360 MISSES:    1984463
L1D RFO ACCESSES:   36909944 HITS:   36571499 MISSES:     338445
L1D PREFETCH ACCESSES:   61554338 HITS:   59335961 MISSES:    2218377
L1D WRITEBACK ACCESSES:          0 HITS:          0 MISSES:          0
L1D RQ ACCESS:  112609039
L1D RQ TO_CACHE:   75383681
L1D RQ MERGED:   37222216
L1D RQ FORWARD:          0
L1D WQ ACCESS:   37662403
L1D WQ TO_CACHE:   36909944
L1D WQ MERGED:     752459
L1D WQ FORWARD:     151850
L1I TOTAL     ACCESS:  100699881  HIT:  100699856  MISS:         25
L1I LOAD      ACCESS:  100699881  HIT:  100699856  MISS:         25
L1I RFO       ACCESS:          0  HIT:          0  MISS:          0
L1I PREFETCH  ACCESS:          0  HIT:          0  MISS:          0
L1I WRITEBACK ACCESS:          0  HIT:          0  MISS:          0
L1I PREFETCH  REQUESTED:          0  ISSUED:          0  USEFUL:          0  USELESS:          0
L1I TOTAL MSHR MERGED:         10
L1I LOAD MSHR MERGED:         10
L1I RFO MSHR MERGED:          0
L1I PREFETCH MSHR MERGED:          0
L1I WRITEBACK MSHR MERGED:          0
L1I TOTAL ACCESSES:  100699891 HITS:  100699856 MISSES:         35
L1I LOAD ACCESSES:  100699891 HITS:  100699856 MISSES:         35
L1I RFO ACCESSES:          0 HITS:          0 MISSES:          0
L1I PREFETCH ACCESSES:          0 HITS:          0 MISSES:          0
L1I WRITEBACK ACCESSES:          0 HITS:          0 MISSES:          0
L1I RQ ACCESS:  499999995
L1I RQ TO_CACHE:  100699891
L1I RQ MERGED:  399300104
L1I RQ FORWARD:          0
L1I WQ ACCESS:          0
L1I WQ TO_CACHE:          0
L1I WQ MERGED:          0
L1I WQ FORWARD:          0
L2C TOTAL     ACCESS:    5852621  HIT:    4009441  MISS:    1843180
L2C LOAD      ACCESS:    1872467  HIT:    1061516  MISS:     810951
L2C RFO       ACCESS:     205206  HIT:     100564  MISS:     104642
L2C PREFETCH  ACCESS:    2169311  HIT:    1246144  MISS:     923167
L2C WRITEBACK ACCESS:    1605637  HIT:    1601217  MISS:       4420
L2C PREFETCH  REQUESTED:      91704  ISSUED:      91704  USEFUL:      86462  USELESS:     836728
L2C TOTAL MSHR MERGED:        990
L2C LOAD MSHR MERGED:        254
L2C RFO MSHR MERGED:          0
L2C PREFETCH MSHR MERGED:        736
L2C WRITEBACK MSHR MERGED:          0
L2C TOTAL ACCESSES:    5853928 HITS:    4009614 MISSES:    1844314
L2C LOAD ACCESSES:    1872593 HITS:    1061642 MISSES:     810951
L2C RFO ACCESSES:     205216 HITS:     100574 MISSES:     104642
L2C PREFETCH ACCESSES:    2170482 HITS:    1246181 MISSES:     924301
L2C WRITEBACK ACCESSES:    1605637 HITS:    1601217 MISSES:       4420
L2C RQ ACCESS:    2077809
L2C RQ TO_CACHE:    2077673
L2C RQ MERGED:          0
L2C RQ FORWARD:          0
L2C WQ ACCESS:    1605637
L2C WQ TO_CACHE:    1605637
L2C WQ MERGED:          0
L2C WQ FORWARD:        173
LLC TOTAL     ACCESS:    2673556  HIT:    2161868  MISS:     511688
LLC LOAD      ACCESS:     810688  HIT:     624770  MISS:     185918
LLC RFO       ACCESS:     104642  HIT:      58953  MISS:      45689
LLC PREFETCH  ACCESS:     923552  HIT:     676086  MISS:     247466
LLC WRITEBACK ACCESS:     834674  HIT:     802059  MISS:      32615
LLC PREFETCH  REQUESTED:          0  ISSUED:          0  USEFUL:      10006  USELESS:     237314
LLC TOTAL MSHR MERGED:          5
LLC LOAD MSHR MERGED:          2
LLC RFO MSHR MERGED:          0
LLC PREFETCH MSHR MERGED:          3
LLC WRITEBACK MSHR MERGED:          0
LLC TOTAL ACCESSES:    2673572 HITS:    2161879 MISSES:     511693
LLC LOAD ACCESSES:     810697 HITS:     624779 MISSES:     185918
LLC RFO ACCESSES:     104642 HITS:      58953 MISSES:      45689
LLC PREFETCH ACCESSES:     923559 HITS:     676088 MISSES:     247471
LLC WRITEBACK ACCESSES:     834674 HITS:     802059 MISSES:      32615
LLC 0 RQ ACCESS:     915339
LLC 0 RQ TO_CACHE:     915330
LLC 0 RQ MERGED:          0
LLC 0 RQ FORWARD:          0
LLC WQ ACCESS:     834674
LLC WQ TO_CACHE:     834674
LLC WQ MERGED:          0
LLC WQ FORWARD:         11
Major fault: 0 Minor fault: 11278
CPU 0 L1D next line prefetcher final stats
CPU 0 L2C PC-based stride prefetcher final stats
All Misses: 626367
All Hits: 2428207
SD Algo Stats - Switches: 0 SRR-Repls: 219533 BRR-Repls: 0

DRAM Statistics
 CHANNEL 0
 RQ ROW_BUFFER_HIT:      29307  ROW_BUFFER_MISS:     449254
 DBUS_CONGESTED:     378927
 WQ ROW_BUFFER_HIT:      17126  ROW_BUFFER_MISS:     228398  FULL:          0

 AVG_CONGESTED_CYCLE: 13
LOADS RETIRED: 121769268
INSTR RETIRED: 500000000
