
*** ChampSim Multicore Out-of-Order Simulator ***

Warmup Instructions: 100000000
Simulation Instructions: 500000000
Number of CPUs: 1
LLC sets: 2048
LLC ways: 16
Clean RRIP Policies: 1213230112132301 Dirty RRIP Policies: 2203130122031301 PSEL Width: 10 Track Set: 4294967295 PSEL Mask: 1 Demote Mask: 3010130030101300DS Algo: 0Window size: 0
Off-chip DRAM Size: 4096 MB Channels: 1 Width: 64-bit Data Rate: 1600 MT/s

CPU 0 runs /mnt/beegfs/iconst01/spec2017/Fotonik3d.trace.gz
NOT SORTED
TRACE STRING: /mnt/beegfs/iconst01/spec2017/Fotonik3d.trace.gz
SORTED
TRACE STRING: /mnt/beegfs/iconst01/spec2017/Fotonik3d.trace.gz
INITIAL
TRACE STRING: /mnt/beegfs/iconst01/spec2017/Fotonik3d.trace.gz

champsim_seed used: 881

CPU 0 L1D next line prefetcher
CPU 0 L2C IP-based stride prefetcher
Initialize DRRIP state
Assign rand_sets[0]: 454  LLC: 2048
rand_sets[0]: 454
Assign rand_sets[1]: 1662  LLC: 2048
rand_sets[1]: 1662
Assign rand_sets[2]: 1921  LLC: 2048
rand_sets[2]: 1921
Assign rand_sets[3]: 1131  LLC: 2048
rand_sets[3]: 1131
Assign rand_sets[4]: 331  LLC: 2048
rand_sets[4]: 331
Assign rand_sets[5]: 1531  LLC: 2048
rand_sets[5]: 1531
Assign rand_sets[6]: 482  LLC: 2048
rand_sets[6]: 482
Assign rand_sets[7]: 1275  LLC: 2048
rand_sets[7]: 1275
Assign rand_sets[8]: 1876  LLC: 2048
rand_sets[8]: 1876
Assign rand_sets[9]: 2038  LLC: 2048
rand_sets[9]: 2038
Assign rand_sets[10]: 701  LLC: 2048
rand_sets[10]: 701
Assign rand_sets[11]: 479  LLC: 2048
rand_sets[11]: 479
Assign rand_sets[12]: 892  LLC: 2048
rand_sets[12]: 892
Assign rand_sets[13]: 1820  LLC: 2048
rand_sets[13]: 1820
Assign rand_sets[14]: 1505  LLC: 2048
rand_sets[14]: 1505
Assign rand_sets[15]: 1159  LLC: 2048
rand_sets[15]: 1159
Assign rand_sets[16]: 513  LLC: 2048
rand_sets[16]: 513
Assign rand_sets[17]: 703  LLC: 2048
rand_sets[17]: 703
Assign rand_sets[18]: 561  LLC: 2048
rand_sets[18]: 561
Assign rand_sets[19]: 990  LLC: 2048
rand_sets[19]: 990
Assign rand_sets[20]: 342  LLC: 2048
rand_sets[20]: 342
Assign rand_sets[21]: 882  LLC: 2048
rand_sets[21]: 882
Assign rand_sets[22]: 15  LLC: 2048
rand_sets[22]: 15
Assign rand_sets[23]: 71  LLC: 2048
rand_sets[23]: 71
Assign rand_sets[24]: 1127  LLC: 2048
rand_sets[24]: 1127
Assign rand_sets[25]: 1382  LLC: 2048
rand_sets[25]: 1382
Assign rand_sets[26]: 647  LLC: 2048
rand_sets[26]: 647
Assign rand_sets[27]: 857  LLC: 2048
rand_sets[27]: 857
Assign rand_sets[28]: 1450  LLC: 2048
rand_sets[28]: 1450
Assign rand_sets[29]: 1160  LLC: 2048
rand_sets[29]: 1160
Assign rand_sets[30]: 1852  LLC: 2048
rand_sets[30]: 1852
Assign rand_sets[31]: 1881  LLC: 2048
rand_sets[31]: 1881
Assign rand_sets[32]: 1770  LLC: 2048
rand_sets[32]: 1770
Assign rand_sets[33]: 1622  LLC: 2048
rand_sets[33]: 1622
Assign rand_sets[34]: 275  LLC: 2048
rand_sets[34]: 275
Assign rand_sets[35]: 635  LLC: 2048
rand_sets[35]: 635
Assign rand_sets[36]: 466  LLC: 2048
rand_sets[36]: 466
Assign rand_sets[37]: 1413  LLC: 2048
rand_sets[37]: 1413
Assign rand_sets[38]: 417  LLC: 2048
rand_sets[38]: 417
Assign rand_sets[39]: 472  LLC: 2048
rand_sets[39]: 472
Assign rand_sets[40]: 1340  LLC: 2048
rand_sets[40]: 1340
Assign rand_sets[41]: 852  LLC: 2048
rand_sets[41]: 852
Assign rand_sets[42]: 1365  LLC: 2048
rand_sets[42]: 1365
Assign rand_sets[43]: 47  LLC: 2048
rand_sets[43]: 47
Assign rand_sets[44]: 823  LLC: 2048
rand_sets[44]: 823
Assign rand_sets[45]: 686  LLC: 2048
rand_sets[45]: 686
Assign rand_sets[46]: 1637  LLC: 2048
rand_sets[46]: 1637
Assign rand_sets[47]: 1115  LLC: 2048
rand_sets[47]: 1115
Assign rand_sets[48]: 986  LLC: 2048
rand_sets[48]: 986
Assign rand_sets[49]: 258  LLC: 2048
rand_sets[49]: 258
Assign rand_sets[50]: 633  LLC: 2048
rand_sets[50]: 633
Assign rand_sets[51]: 920  LLC: 2048
rand_sets[51]: 920
Assign rand_sets[52]: 204  LLC: 2048
rand_sets[52]: 204
Assign rand_sets[53]: 227  LLC: 2048
rand_sets[53]: 227
Assign rand_sets[54]: 1818  LLC: 2048
rand_sets[54]: 1818
Assign rand_sets[55]: 886  LLC: 2048
rand_sets[55]: 886
Assign rand_sets[56]: 1422  LLC: 2048
rand_sets[56]: 1422
Assign rand_sets[57]: 607  LLC: 2048
rand_sets[57]: 607
Assign rand_sets[58]: 217  LLC: 2048
rand_sets[58]: 217
Assign rand_sets[59]: 1945  LLC: 2048
rand_sets[59]: 1945
Assign rand_sets[60]: 143  LLC: 2048
rand_sets[60]: 143
Assign rand_sets[61]: 1311  LLC: 2048
rand_sets[61]: 1311
Assign rand_sets[62]: 319  LLC: 2048
rand_sets[62]: 319
Assign rand_sets[63]: 1846  LLC: 2048
rand_sets[63]: 1846
 CLEAN-RRIP-POLICY-1: 1-2-1-3-2-3-0-1- CLEAN-RRIP-POLICY-2: 1-2-1-3-2-3-0-1-
 DIRTY-RRIP-POLICY-1: 2-2-0-3-1-3-0-1- DIRTY-RRIP-POLICY-2: 2-2-0-3-1-3-0-1-
 PSEL width: 10
Heartbeat CPU 0 instructions: 10000002 cycles: 7306710 heartbeat IPC: 1.36861 cumulative IPC: 1.36861 (Simulation time: 0 hr 0 min 25 sec) 
Heartbeat CPU 0 instructions: 20000000 cycles: 14613515 heartbeat IPC: 1.36859 cumulative IPC: 1.3686 (Simulation time: 0 hr 0 min 49 sec) 
Heartbeat CPU 0 instructions: 30000001 cycles: 21920184 heartbeat IPC: 1.36861 cumulative IPC: 1.3686 (Simulation time: 0 hr 1 min 14 sec) 
Heartbeat CPU 0 instructions: 40000000 cycles: 29226741 heartbeat IPC: 1.36863 cumulative IPC: 1.36861 (Simulation time: 0 hr 1 min 39 sec) 
Heartbeat CPU 0 instructions: 50000001 cycles: 36533298 heartbeat IPC: 1.36863 cumulative IPC: 1.36861 (Simulation time: 0 hr 2 min 5 sec) 
Heartbeat CPU 0 instructions: 60000000 cycles: 43840117 heartbeat IPC: 1.36858 cumulative IPC: 1.36861 (Simulation time: 0 hr 2 min 30 sec) 
Heartbeat CPU 0 instructions: 70000002 cycles: 51146725 heartbeat IPC: 1.36862 cumulative IPC: 1.36861 (Simulation time: 0 hr 2 min 56 sec) 
Heartbeat CPU 0 instructions: 80000000 cycles: 58453340 heartbeat IPC: 1.36862 cumulative IPC: 1.36861 (Simulation time: 0 hr 3 min 21 sec) 
Heartbeat CPU 0 instructions: 90000003 cycles: 65763746 heartbeat IPC: 1.36791 cumulative IPC: 1.36854 (Simulation time: 0 hr 3 min 46 sec) 
Heartbeat CPU 0 instructions: 100000000 cycles: 73074192 heartbeat IPC: 1.36791 cumulative IPC: 1.36847 (Simulation time: 0 hr 4 min 12 sec) 

Warmup complete CPU 0 instructions: 100000002 cycles: 73074204 (Simulation time: 0 hr 4 min 12 sec) 

Heartbeat CPU 0 instructions: 110000001 cycles: 85479350 heartbeat IPC: 0.806116 cumulative IPC: 0.806117 (Simulation time: 0 hr 4 min 42 sec) 
Heartbeat CPU 0 instructions: 120000000 cycles: 97845016 heartbeat IPC: 0.808691 cumulative IPC: 0.807402 (Simulation time: 0 hr 5 min 12 sec) 
Heartbeat CPU 0 instructions: 130000000 cycles: 110254505 heartbeat IPC: 0.805835 cumulative IPC: 0.806879 (Simulation time: 0 hr 5 min 43 sec) 
Heartbeat CPU 0 instructions: 140000000 cycles: 122641754 heartbeat IPC: 0.807282 cumulative IPC: 0.80698 (Simulation time: 0 hr 6 min 13 sec) 
Heartbeat CPU 0 instructions: 150000000 cycles: 134986182 heartbeat IPC: 0.810082 cumulative IPC: 0.807598 (Simulation time: 0 hr 6 min 43 sec) 
Heartbeat CPU 0 instructions: 160000000 cycles: 147363523 heartbeat IPC: 0.807928 cumulative IPC: 0.807653 (Simulation time: 0 hr 7 min 14 sec) 
Heartbeat CPU 0 instructions: 170000001 cycles: 159747281 heartbeat IPC: 0.807509 cumulative IPC: 0.807633 (Simulation time: 0 hr 7 min 44 sec) 
Heartbeat CPU 0 instructions: 180000000 cycles: 172131422 heartbeat IPC: 0.807484 cumulative IPC: 0.807614 (Simulation time: 0 hr 8 min 14 sec) 
Heartbeat CPU 0 instructions: 190000000 cycles: 184533679 heartbeat IPC: 0.806305 cumulative IPC: 0.807468 (Simulation time: 0 hr 8 min 45 sec) 
Heartbeat CPU 0 instructions: 200000000 cycles: 196910257 heartbeat IPC: 0.807978 cumulative IPC: 0.807519 (Simulation time: 0 hr 9 min 15 sec) 
Heartbeat CPU 0 instructions: 210000002 cycles: 209317489 heartbeat IPC: 0.805982 cumulative IPC: 0.807379 (Simulation time: 0 hr 9 min 45 sec) 
Heartbeat CPU 0 instructions: 220000000 cycles: 221748000 heartbeat IPC: 0.804472 cumulative IPC: 0.807136 (Simulation time: 0 hr 10 min 16 sec) 
Heartbeat CPU 0 instructions: 230000002 cycles: 234117950 heartbeat IPC: 0.808411 cumulative IPC: 0.807234 (Simulation time: 0 hr 10 min 46 sec) 
Heartbeat CPU 0 instructions: 240000000 cycles: 247184928 heartbeat IPC: 0.765288 cumulative IPC: 0.804086 (Simulation time: 0 hr 11 min 17 sec) 
Heartbeat CPU 0 instructions: 250000001 cycles: 264320266 heartbeat IPC: 0.583589 cumulative IPC: 0.78433 (Simulation time: 0 hr 11 min 50 sec) 
Heartbeat CPU 0 instructions: 260000000 cycles: 281479955 heartbeat IPC: 0.582761 cumulative IPC: 0.767733 (Simulation time: 0 hr 12 min 23 sec) 
Heartbeat CPU 0 instructions: 270000000 cycles: 298688636 heartbeat IPC: 0.581102 cumulative IPC: 0.753498 (Simulation time: 0 hr 12 min 55 sec) 
Heartbeat CPU 0 instructions: 280000000 cycles: 315856455 heartbeat IPC: 0.582485 cumulative IPC: 0.741405 (Simulation time: 0 hr 13 min 28 sec) 
Heartbeat CPU 0 instructions: 290000001 cycles: 344223205 heartbeat IPC: 0.352525 cumulative IPC: 0.700722 (Simulation time: 0 hr 14 min 8 sec) 
Heartbeat CPU 0 instructions: 300000000 cycles: 381163529 heartbeat IPC: 0.270707 cumulative IPC: 0.649162 (Simulation time: 0 hr 14 min 54 sec) 
Heartbeat CPU 0 instructions: 310000000 cycles: 397686541 heartbeat IPC: 0.605217 cumulative IPC: 0.646926 (Simulation time: 0 hr 15 min 26 sec) 
Heartbeat CPU 0 instructions: 320000000 cycles: 414183272 heartbeat IPC: 0.606181 cumulative IPC: 0.644955 (Simulation time: 0 hr 15 min 57 sec) 
Heartbeat CPU 0 instructions: 330000003 cycles: 430755828 heartbeat IPC: 0.603407 cumulative IPC: 0.64303 (Simulation time: 0 hr 16 min 28 sec) 
Heartbeat CPU 0 instructions: 340000000 cycles: 447270681 heartbeat IPC: 0.605515 cumulative IPC: 0.641374 (Simulation time: 0 hr 17 min 0 sec) 
Heartbeat CPU 0 instructions: 350000001 cycles: 462135933 heartbeat IPC: 0.67271 cumulative IPC: 0.642572 (Simulation time: 0 hr 17 min 29 sec) 
Heartbeat CPU 0 instructions: 360000000 cycles: 474038238 heartbeat IPC: 0.840173 cumulative IPC: 0.648437 (Simulation time: 0 hr 17 min 56 sec) 
Heartbeat CPU 0 instructions: 370000002 cycles: 485722724 heartbeat IPC: 0.855836 cumulative IPC: 0.65431 (Simulation time: 0 hr 18 min 23 sec) 
Heartbeat CPU 0 instructions: 380000000 cycles: 497556723 heartbeat IPC: 0.845023 cumulative IPC: 0.659627 (Simulation time: 0 hr 18 min 50 sec) 
Heartbeat CPU 0 instructions: 390000003 cycles: 510846196 heartbeat IPC: 0.752476 cumulative IPC: 0.662445 (Simulation time: 0 hr 19 min 18 sec) 
Heartbeat CPU 0 instructions: 400000000 cycles: 523146058 heartbeat IPC: 0.813017 cumulative IPC: 0.66656 (Simulation time: 0 hr 19 min 45 sec) 
Heartbeat CPU 0 instructions: 410000003 cycles: 535089202 heartbeat IPC: 0.837301 cumulative IPC: 0.670974 (Simulation time: 0 hr 20 min 13 sec) 
Heartbeat CPU 0 instructions: 420000000 cycles: 547896616 heartbeat IPC: 0.780798 cumulative IPC: 0.673936 (Simulation time: 0 hr 20 min 41 sec) 
Heartbeat CPU 0 instructions: 430000003 cycles: 566233033 heartbeat IPC: 0.545363 cumulative IPC: 0.669156 (Simulation time: 0 hr 21 min 5 sec) 
Heartbeat CPU 0 instructions: 440000000 cycles: 584791994 heartbeat IPC: 0.538823 cumulative IPC: 0.664429 (Simulation time: 0 hr 21 min 30 sec) 
Heartbeat CPU 0 instructions: 450000003 cycles: 603385961 heartbeat IPC: 0.537809 cumulative IPC: 0.659989 (Simulation time: 0 hr 21 min 55 sec) 
Heartbeat CPU 0 instructions: 460000000 cycles: 621944361 heartbeat IPC: 0.538839 cumulative IPC: 0.655893 (Simulation time: 0 hr 22 min 20 sec) 
Heartbeat CPU 0 instructions: 470000003 cycles: 640531100 heartbeat IPC: 0.538018 cumulative IPC: 0.652032 (Simulation time: 0 hr 22 min 45 sec) 
Heartbeat CPU 0 instructions: 480000000 cycles: 659120184 heartbeat IPC: 0.53795 cumulative IPC: 0.648413 (Simulation time: 0 hr 23 min 10 sec) 
Heartbeat CPU 0 instructions: 490000003 cycles: 677751813 heartbeat IPC: 0.536722 cumulative IPC: 0.644972 (Simulation time: 0 hr 23 min 35 sec) 
Heartbeat CPU 0 instructions: 500000000 cycles: 696310966 heartbeat IPC: 0.538818 cumulative IPC: 0.641811 (Simulation time: 0 hr 24 min 0 sec) 
Heartbeat CPU 0 instructions: 510000003 cycles: 714911540 heartbeat IPC: 0.537618 cumulative IPC: 0.638791 (Simulation time: 0 hr 24 min 25 sec) 
Heartbeat CPU 0 instructions: 520000000 cycles: 733489731 heartbeat IPC: 0.538265 cumulative IPC: 0.635963 (Simulation time: 0 hr 24 min 50 sec) 
Heartbeat CPU 0 instructions: 530000001 cycles: 752090768 heartbeat IPC: 0.537605 cumulative IPC: 0.633269 (Simulation time: 0 hr 25 min 15 sec) 
Heartbeat CPU 0 instructions: 540000000 cycles: 770608165 heartbeat IPC: 0.540033 cumulative IPC: 0.630794 (Simulation time: 0 hr 25 min 40 sec) 
Heartbeat CPU 0 instructions: 550000001 cycles: 789120048 heartbeat IPC: 0.540194 cumulative IPC: 0.628451 (Simulation time: 0 hr 26 min 5 sec) 
Heartbeat CPU 0 instructions: 560000000 cycles: 807653769 heartbeat IPC: 0.539557 cumulative IPC: 0.626209 (Simulation time: 0 hr 26 min 30 sec) 
Heartbeat CPU 0 instructions: 570000001 cycles: 826174437 heartbeat IPC: 0.539937 cumulative IPC: 0.624087 (Simulation time: 0 hr 26 min 55 sec) 
Heartbeat CPU 0 instructions: 580000000 cycles: 844639101 heartbeat IPC: 0.541575 cumulative IPC: 0.622112 (Simulation time: 0 hr 27 min 20 sec) 
Heartbeat CPU 0 instructions: 590000001 cycles: 863158235 heartbeat IPC: 0.539982 cumulative IPC: 0.620187 (Simulation time: 0 hr 27 min 45 sec) 
Heartbeat CPU 0 instructions: 600000000 cycles: 881683577 heartbeat IPC: 0.539801 cumulative IPC: 0.618346 (Simulation time: 0 hr 28 min 10 sec) 
Finished CPU 0 instructions: 500000002 cycles: 808609387 cumulative IPC: 0.618345 (Simulation time: 0 hr 28 min 10 sec) 

CPU 0 Branch Prediction Accuracy: 99.5931% MPKI: 0.08288
Number of Branches: 10184133 Number of Mispredictions: 41440
Number of LOAD Instructions: 261155957
Number of LOAD Instructions (ROI): 261155957
Number of STORE Instructions: 57884062
Number of STORE Instructions (ROI): 57884062
Total Destination Memory Operands: 83293336
Total Destination Memory Operands (ROI): 83293336
Total Source Memory Operands: 261155957
Total Source Memory Operands (ROI): 261155957
Number of DEPENDED LOADS: 22255228
Number of DEPENDED LOADS (ROI): 22255228
Number of SQ_ADDED: 83293300
Number of SQ_ADDED (ROI): 83293300
Number of LQ_ADDED: 1764045517
Number of LQ_ADDED (ROI): 1764045517
Number of Instructions read from trace: 600000257

ChampSim completed all CPUs

Region of Interest Statistics

CPU 0 cumulative IPC: 0.618345 instructions: 500000002 cycles: 808609387
ITLB TOTAL     ACCESS:   94639284  HIT:   94639246  MISS:         38
ITLB LOAD      ACCESS:   94639284  HIT:   94639246  MISS:         38
ITLB RFO       ACCESS:          0  HIT:          0  MISS:          0
ITLB PREFETCH  ACCESS:          0  HIT:          0  MISS:          0
ITLB WRITEBACK ACCESS:          0  HIT:          0  MISS:          0
ITLB PREFETCH  REQUESTED:          0  ISSUED:          0  USEFUL:          0  USELESS:          0
ITLB TOTAL MSHR MERGED:         93
ITLB LOAD MSHR MERGED:         93
ITLB RFO MSHR MERGED:          0
ITLB PREFETCH MSHR MERGED:          0
ITLB WRITEBACK MSHR MERGED:          0
ITLB TOTAL ACCESSES:   94639377 HITS:   94639246 MISSES:        131
ITLB LOAD ACCESSES:   94639377 HITS:   94639246 MISSES:        131
ITLB RFO ACCESSES:          0 HITS:          0 MISSES:          0
ITLB PREFETCH ACCESSES:          0 HITS:          0 MISSES:          0
ITLB WRITEBACK ACCESSES:          0 HITS:          0 MISSES:          0
ITLB RQ ACCESS:  500000001
ITLB RQ TO_CACHE:   94639378
ITLB RQ MERGED:  405360623
ITLB RQ FORWARD:          0
ITLB WQ ACCESS:          0
ITLB WQ TO_CACHE:          0
ITLB WQ MERGED:          0
ITLB WQ FORWARD:          0
DTLB TOTAL     ACCESS:  149173026  HIT:  148576067  MISS:     596959
DTLB LOAD      ACCESS:  107299734  HIT:  106702786  MISS:     596948
DTLB RFO       ACCESS:   41873292  HIT:   41873281  MISS:         11
DTLB PREFETCH  ACCESS:          0  HIT:          0  MISS:          0
DTLB WRITEBACK ACCESS:          0  HIT:          0  MISS:          0
DTLB PREFETCH  REQUESTED:          0  ISSUED:          0  USEFUL:          0  USELESS:          0
DTLB TOTAL MSHR MERGED:     134119
DTLB LOAD MSHR MERGED:     134119
DTLB RFO MSHR MERGED:          0
DTLB PREFETCH MSHR MERGED:          0
DTLB WRITEBACK MSHR MERGED:          0
DTLB TOTAL ACCESSES:  149307145 HITS:  148576067 MISSES:     731078
DTLB LOAD ACCESSES:  107433853 HITS:  106702786 MISSES:     731067
DTLB RFO ACCESSES:   41873292 HITS:   41873281 MISSES:         11
DTLB PREFETCH ACCESSES:          0 HITS:          0 MISSES:          0
DTLB WRITEBACK ACCESSES:          0 HITS:          0 MISSES:          0
DTLB RQ ACCESS:  259760666
DTLB RQ TO_CACHE:  149307145
DTLB RQ MERGED:  110453521
DTLB RQ FORWARD:          0
DTLB WQ ACCESS:          0
DTLB WQ TO_CACHE:          0
DTLB WQ MERGED:          0
DTLB WQ FORWARD:          0
L1D TOTAL     ACCESS:  261029773  HIT:  245632441  MISS:   15397332
L1D LOAD      ACCESS:  118070141  HIT:  112565769  MISS:    5504372
L1D RFO       ACCESS:   68946747  HIT:   68932340  MISS:      14407
L1D PREFETCH  ACCESS:   74012885  HIT:   64134332  MISS:    9878553
L1D WRITEBACK ACCESS:          0  HIT:          0  MISS:          0
L1D PREFETCH  REQUESTED:  120658711  ISSUED:  119082324  USEFUL:    8008245  USELESS:    1870330
L1D TOTAL MSHR MERGED:   16531196
L1D LOAD MSHR MERGED:    5002934
L1D RFO MSHR MERGED:      21820
L1D PREFETCH MSHR MERGED:   11506442
L1D WRITEBACK MSHR MERGED:          0
L1D TOTAL ACCESSES:  277671214 HITS:  245742686 MISSES:   31928528
L1D LOAD ACCESSES:  120666235 HITS:  112573293 MISSES:    8092942
L1D RFO ACCESSES:   68968567 HITS:   68932340 MISSES:      36227
L1D PREFETCH ACCESSES:   88036412 HITS:   64237053 MISSES:   23799359
L1D WRITEBACK ACCESSES:          0 HITS:          0 MISSES:          0
L1D RQ ACCESS:  190686350
L1D RQ TO_CACHE:  120658711
L1D RQ MERGED:   70020115
L1D RQ FORWARD:          0
L1D WQ ACCESS:   69074336
L1D WQ TO_CACHE:   68968569
L1D WQ MERGED:     105767
L1D WQ FORWARD:     110245
L1I TOTAL     ACCESS:  121554620  HIT:  121553547  MISS:       1073
L1I LOAD      ACCESS:  121554620  HIT:  121553547  MISS:       1073
L1I RFO       ACCESS:          0  HIT:          0  MISS:          0
L1I PREFETCH  ACCESS:          0  HIT:          0  MISS:          0
L1I WRITEBACK ACCESS:          0  HIT:          0  MISS:          0
L1I PREFETCH  REQUESTED:          0  ISSUED:          0  USEFUL:          0  USELESS:          0
L1I TOTAL MSHR MERGED:       1093
L1I LOAD MSHR MERGED:       1093
L1I RFO MSHR MERGED:          0
L1I PREFETCH MSHR MERGED:          0
L1I WRITEBACK MSHR MERGED:          0
L1I TOTAL ACCESSES:  121555713 HITS:  121553547 MISSES:       2166
L1I LOAD ACCESSES:  121555713 HITS:  121553547 MISSES:       2166
L1I RFO ACCESSES:          0 HITS:          0 MISSES:          0
L1I PREFETCH ACCESSES:          0 HITS:          0 MISSES:          0
L1I WRITEBACK ACCESSES:          0 HITS:          0 MISSES:          0
L1I RQ ACCESS:  500000000
L1I RQ TO_CACHE:  121555713
L1I RQ MERGED:  378444287
L1I RQ FORWARD:          0
L1I WQ ACCESS:          0
L1I WQ TO_CACHE:          0
L1I WQ MERGED:          0
L1I WQ FORWARD:          0
L2C TOTAL     ACCESS:   22470823  HIT:    9152109  MISS:   13318714
L2C LOAD      ACCESS:    3091051  HIT:     417250  MISS:    2673801
L2C RFO       ACCESS:      14407  HIT:      13992  MISS:        415
L2C PREFETCH  ACCESS:   12735428  HIT:    2092728  MISS:   10642700
L2C WRITEBACK ACCESS:    6629937  HIT:    6628139  MISS:       1798
L2C PREFETCH  REQUESTED:     695587  ISSUED:     695587  USEFUL:     186719  USELESS:   10456779
L2C TOTAL MSHR MERGED:      71664
L2C LOAD MSHR MERGED:      22534
L2C RFO MSHR MERGED:          0
L2C PREFETCH MSHR MERGED:      49130
L2C WRITEBACK MSHR MERGED:          0
L2C TOTAL ACCESSES:   22683851 HITS:    9152153 MISSES:   13531698
L2C LOAD ACCESSES:    3091081 HITS:     417280 MISSES:    2673801
L2C RFO ACCESSES:      14407 HITS:      13992 MISSES:        415
L2C PREFETCH ACCESSES:   12948426 HITS:    2092742 MISSES:   10855684
L2C WRITEBACK ACCESSES:    6629937 HITS:    6628139 MISSES:       1798
L2C RQ ACCESS:    3105488
L2C RQ TO_CACHE:    3105458
L2C RQ MERGED:          0
L2C RQ FORWARD:          0
L2C WQ ACCESS:    6629937
L2C WQ TO_CACHE:    6629937
L2C WQ MERGED:          0
L2C WQ FORWARD:         44
LLC TOTAL     ACCESS:   20026513  HIT:    2004469  MISS:   18022044
LLC LOAD      ACCESS:    2651266  HIT:     447868  MISS:    2203398
LLC RFO       ACCESS:        415  HIT:         19  MISS:        396
LLC PREFETCH  ACCESS:   10783588  HIT:     120763  MISS:   10662825
LLC WRITEBACK ACCESS:    6591244  HIT:    1435819  MISS:    5155425
LLC PREFETCH  REQUESTED:          0  ISSUED:          0  USEFUL:      45601  USELESS:   10618387
LLC TOTAL MSHR MERGED:      21502
LLC LOAD MSHR MERGED:       9940
LLC RFO MSHR MERGED:          0
LLC PREFETCH MSHR MERGED:      11562
LLC WRITEBACK MSHR MERGED:          0
LLC TOTAL ACCESSES:   20048019 HITS:    2004472 MISSES:   18043547
LLC LOAD ACCESSES:    2651267 HITS:     447869 MISSES:    2203398
LLC RFO ACCESSES:        415 HITS:         19 MISSES:        396
LLC PREFETCH ACCESSES:   10805093 HITS:     120765 MISSES:   10684328
LLC WRITEBACK ACCESSES:    6591244 HITS:    1435819 MISSES:    5155425
LLC 0 RQ ACCESS:    2651682
LLC 0 RQ TO_CACHE:    2651681
LLC 0 RQ MERGED:          0
LLC 0 RQ FORWARD:          0
LLC WQ ACCESS:    6591245
LLC WQ TO_CACHE:    6591245
LLC WQ MERGED:          0
LLC WQ FORWARD:          3
Major fault: 0 Minor fault: 183991
CPU 0 L1D next line prefetcher final stats
CPU 0 L2C PC-based stride prefetcher final stats
All Misses: 20875936
All Hits: 2081623
SD Algo Stats - Switches: 0 SRR-Repls: 2252286 BRR-Repls: 0

DRAM Statistics
 CHANNEL 0
 RQ ROW_BUFFER_HIT:    7161585  ROW_BUFFER_MISS:    5705035
 DBUS_CONGESTED:   11315997
 WQ ROW_BUFFER_HIT:     990563  ROW_BUFFER_MISS:    5584526  FULL:          0

 AVG_CONGESTED_CYCLE: 13
LOADS RETIRED: 204440772
INSTR RETIRED: 500000000
