
*** ChampSim Multicore Out-of-Order Simulator ***

Warmup Instructions: 100000000
Simulation Instructions: 500000000
Number of CPUs: 1
LLC sets: 2048
LLC ways: 16
Clean RRIP Policies: 1213230112132301 Dirty RRIP Policies: 2213130122131301 PSEL Width: 10 Track Set: 4294967295 PSEL Mask: 1 Demote Mask: 1040103010401030DS Algo: 0Window size: 0
Off-chip DRAM Size: 4096 MB Channels: 1 Width: 64-bit Data Rate: 1600 MT/s

CPU 0 runs /mnt/beegfs/iconst01/spec2017/Mcf.trace.gz
NOT SORTED
TRACE STRING: /mnt/beegfs/iconst01/spec2017/Mcf.trace.gz
SORTED
TRACE STRING: /mnt/beegfs/iconst01/spec2017/Mcf.trace.gz
INITIAL
TRACE STRING: /mnt/beegfs/iconst01/spec2017/Mcf.trace.gz

champsim_seed used: 278

CPU 0 L1D next line prefetcher
CPU 0 L2C IP-based stride prefetcher
Initialize DRRIP state
Assign rand_sets[0]: 454  LLC: 2048
rand_sets[0]: 454
Assign rand_sets[1]: 1662  LLC: 2048
rand_sets[1]: 1662
Assign rand_sets[2]: 1921  LLC: 2048
rand_sets[2]: 1921
Assign rand_sets[3]: 1131  LLC: 2048
rand_sets[3]: 1131
Assign rand_sets[4]: 331  LLC: 2048
rand_sets[4]: 331
Assign rand_sets[5]: 1531  LLC: 2048
rand_sets[5]: 1531
Assign rand_sets[6]: 482  LLC: 2048
rand_sets[6]: 482
Assign rand_sets[7]: 1275  LLC: 2048
rand_sets[7]: 1275
Assign rand_sets[8]: 1876  LLC: 2048
rand_sets[8]: 1876
Assign rand_sets[9]: 2038  LLC: 2048
rand_sets[9]: 2038
Assign rand_sets[10]: 701  LLC: 2048
rand_sets[10]: 701
Assign rand_sets[11]: 479  LLC: 2048
rand_sets[11]: 479
Assign rand_sets[12]: 892  LLC: 2048
rand_sets[12]: 892
Assign rand_sets[13]: 1820  LLC: 2048
rand_sets[13]: 1820
Assign rand_sets[14]: 1505  LLC: 2048
rand_sets[14]: 1505
Assign rand_sets[15]: 1159  LLC: 2048
rand_sets[15]: 1159
Assign rand_sets[16]: 513  LLC: 2048
rand_sets[16]: 513
Assign rand_sets[17]: 703  LLC: 2048
rand_sets[17]: 703
Assign rand_sets[18]: 561  LLC: 2048
rand_sets[18]: 561
Assign rand_sets[19]: 990  LLC: 2048
rand_sets[19]: 990
Assign rand_sets[20]: 342  LLC: 2048
rand_sets[20]: 342
Assign rand_sets[21]: 882  LLC: 2048
rand_sets[21]: 882
Assign rand_sets[22]: 15  LLC: 2048
rand_sets[22]: 15
Assign rand_sets[23]: 71  LLC: 2048
rand_sets[23]: 71
Assign rand_sets[24]: 1127  LLC: 2048
rand_sets[24]: 1127
Assign rand_sets[25]: 1382  LLC: 2048
rand_sets[25]: 1382
Assign rand_sets[26]: 647  LLC: 2048
rand_sets[26]: 647
Assign rand_sets[27]: 857  LLC: 2048
rand_sets[27]: 857
Assign rand_sets[28]: 1450  LLC: 2048
rand_sets[28]: 1450
Assign rand_sets[29]: 1160  LLC: 2048
rand_sets[29]: 1160
Assign rand_sets[30]: 1852  LLC: 2048
rand_sets[30]: 1852
Assign rand_sets[31]: 1881  LLC: 2048
rand_sets[31]: 1881
Assign rand_sets[32]: 1770  LLC: 2048
rand_sets[32]: 1770
Assign rand_sets[33]: 1622  LLC: 2048
rand_sets[33]: 1622
Assign rand_sets[34]: 275  LLC: 2048
rand_sets[34]: 275
Assign rand_sets[35]: 635  LLC: 2048
rand_sets[35]: 635
Assign rand_sets[36]: 466  LLC: 2048
rand_sets[36]: 466
Assign rand_sets[37]: 1413  LLC: 2048
rand_sets[37]: 1413
Assign rand_sets[38]: 417  LLC: 2048
rand_sets[38]: 417
Assign rand_sets[39]: 472  LLC: 2048
rand_sets[39]: 472
Assign rand_sets[40]: 1340  LLC: 2048
rand_sets[40]: 1340
Assign rand_sets[41]: 852  LLC: 2048
rand_sets[41]: 852
Assign rand_sets[42]: 1365  LLC: 2048
rand_sets[42]: 1365
Assign rand_sets[43]: 47  LLC: 2048
rand_sets[43]: 47
Assign rand_sets[44]: 823  LLC: 2048
rand_sets[44]: 823
Assign rand_sets[45]: 686  LLC: 2048
rand_sets[45]: 686
Assign rand_sets[46]: 1637  LLC: 2048
rand_sets[46]: 1637
Assign rand_sets[47]: 1115  LLC: 2048
rand_sets[47]: 1115
Assign rand_sets[48]: 986  LLC: 2048
rand_sets[48]: 986
Assign rand_sets[49]: 258  LLC: 2048
rand_sets[49]: 258
Assign rand_sets[50]: 633  LLC: 2048
rand_sets[50]: 633
Assign rand_sets[51]: 920  LLC: 2048
rand_sets[51]: 920
Assign rand_sets[52]: 204  LLC: 2048
rand_sets[52]: 204
Assign rand_sets[53]: 227  LLC: 2048
rand_sets[53]: 227
Assign rand_sets[54]: 1818  LLC: 2048
rand_sets[54]: 1818
Assign rand_sets[55]: 886  LLC: 2048
rand_sets[55]: 886
Assign rand_sets[56]: 1422  LLC: 2048
rand_sets[56]: 1422
Assign rand_sets[57]: 607  LLC: 2048
rand_sets[57]: 607
Assign rand_sets[58]: 217  LLC: 2048
rand_sets[58]: 217
Assign rand_sets[59]: 1945  LLC: 2048
rand_sets[59]: 1945
Assign rand_sets[60]: 143  LLC: 2048
rand_sets[60]: 143
Assign rand_sets[61]: 1311  LLC: 2048
rand_sets[61]: 1311
Assign rand_sets[62]: 319  LLC: 2048
rand_sets[62]: 319
Assign rand_sets[63]: 1846  LLC: 2048
rand_sets[63]: 1846
 CLEAN-RRIP-POLICY-1: 1-2-1-3-2-3-0-1- CLEAN-RRIP-POLICY-2: 1-2-1-3-2-3-0-1-
 DIRTY-RRIP-POLICY-1: 2-2-1-3-1-3-0-1- DIRTY-RRIP-POLICY-2: 2-2-1-3-1-3-0-1-
 PSEL width: 10
Heartbeat CPU 0 instructions: 10000002 cycles: 6248382 heartbeat IPC: 1.60041 cumulative IPC: 1.60041 (Simulation time: 0 hr 0 min 13 sec) 
Heartbeat CPU 0 instructions: 20000000 cycles: 12468914 heartbeat IPC: 1.60758 cumulative IPC: 1.60399 (Simulation time: 0 hr 0 min 26 sec) 
Heartbeat CPU 0 instructions: 30000000 cycles: 18678977 heartbeat IPC: 1.61029 cumulative IPC: 1.60608 (Simulation time: 0 hr 0 min 39 sec) 
Heartbeat CPU 0 instructions: 40000000 cycles: 24889316 heartbeat IPC: 1.61022 cumulative IPC: 1.60712 (Simulation time: 0 hr 0 min 52 sec) 
Heartbeat CPU 0 instructions: 50000003 cycles: 31101564 heartbeat IPC: 1.60972 cumulative IPC: 1.60764 (Simulation time: 0 hr 1 min 5 sec) 
Heartbeat CPU 0 instructions: 60000000 cycles: 37297543 heartbeat IPC: 1.61395 cumulative IPC: 1.60869 (Simulation time: 0 hr 1 min 18 sec) 
Heartbeat CPU 0 instructions: 70000003 cycles: 43515734 heartbeat IPC: 1.60819 cumulative IPC: 1.60861 (Simulation time: 0 hr 1 min 31 sec) 
Heartbeat CPU 0 instructions: 80000000 cycles: 49745990 heartbeat IPC: 1.60507 cumulative IPC: 1.60817 (Simulation time: 0 hr 1 min 44 sec) 
Heartbeat CPU 0 instructions: 90000000 cycles: 55974761 heartbeat IPC: 1.60545 cumulative IPC: 1.60787 (Simulation time: 0 hr 1 min 57 sec) 
Heartbeat CPU 0 instructions: 100000000 cycles: 62193495 heartbeat IPC: 1.60804 cumulative IPC: 1.60789 (Simulation time: 0 hr 2 min 10 sec) 

Warmup complete CPU 0 instructions: 100000001 cycles: 62193496 (Simulation time: 0 hr 2 min 10 sec) 

Heartbeat CPU 0 instructions: 110000000 cycles: 86761079 heartbeat IPC: 0.40704 cumulative IPC: 0.40704 (Simulation time: 0 hr 2 min 35 sec) 
Heartbeat CPU 0 instructions: 120000000 cycles: 111426202 heartbeat IPC: 0.405431 cumulative IPC: 0.406234 (Simulation time: 0 hr 3 min 0 sec) 
Heartbeat CPU 0 instructions: 130000000 cycles: 136174560 heartbeat IPC: 0.404067 cumulative IPC: 0.405509 (Simulation time: 0 hr 3 min 26 sec) 
Heartbeat CPU 0 instructions: 140000000 cycles: 160874250 heartbeat IPC: 0.404863 cumulative IPC: 0.405348 (Simulation time: 0 hr 3 min 51 sec) 
Heartbeat CPU 0 instructions: 150000003 cycles: 185462075 heartbeat IPC: 0.406705 cumulative IPC: 0.405618 (Simulation time: 0 hr 4 min 16 sec) 
Heartbeat CPU 0 instructions: 160000000 cycles: 210318777 heartbeat IPC: 0.402306 cumulative IPC: 0.405063 (Simulation time: 0 hr 4 min 41 sec) 
Heartbeat CPU 0 instructions: 170000001 cycles: 235044109 heartbeat IPC: 0.404444 cumulative IPC: 0.404974 (Simulation time: 0 hr 5 min 7 sec) 
Heartbeat CPU 0 instructions: 180000000 cycles: 259766012 heartbeat IPC: 0.4045 cumulative IPC: 0.404915 (Simulation time: 0 hr 5 min 32 sec) 
Heartbeat CPU 0 instructions: 190000003 cycles: 284444987 heartbeat IPC: 0.405203 cumulative IPC: 0.404947 (Simulation time: 0 hr 5 min 57 sec) 
Heartbeat CPU 0 instructions: 200000000 cycles: 309165435 heartbeat IPC: 0.404523 cumulative IPC: 0.404904 (Simulation time: 0 hr 6 min 22 sec) 
Heartbeat CPU 0 instructions: 210000003 cycles: 333954501 heartbeat IPC: 0.403404 cumulative IPC: 0.404767 (Simulation time: 0 hr 6 min 48 sec) 
Heartbeat CPU 0 instructions: 220000000 cycles: 358922329 heartbeat IPC: 0.400515 cumulative IPC: 0.40441 (Simulation time: 0 hr 7 min 13 sec) 
Heartbeat CPU 0 instructions: 230000002 cycles: 383548557 heartbeat IPC: 0.406071 cumulative IPC: 0.404537 (Simulation time: 0 hr 7 min 39 sec) 
Heartbeat CPU 0 instructions: 240000000 cycles: 408484576 heartbeat IPC: 0.401026 cumulative IPC: 0.404284 (Simulation time: 0 hr 8 min 4 sec) 
Heartbeat CPU 0 instructions: 250000000 cycles: 433240346 heartbeat IPC: 0.403946 cumulative IPC: 0.404262 (Simulation time: 0 hr 8 min 29 sec) 
Heartbeat CPU 0 instructions: 260000000 cycles: 457954642 heartbeat IPC: 0.404624 cumulative IPC: 0.404284 (Simulation time: 0 hr 8 min 55 sec) 
Heartbeat CPU 0 instructions: 270000001 cycles: 482763643 heartbeat IPC: 0.40308 cumulative IPC: 0.404213 (Simulation time: 0 hr 9 min 20 sec) 
Heartbeat CPU 0 instructions: 280000000 cycles: 507494063 heartbeat IPC: 0.40436 cumulative IPC: 0.404221 (Simulation time: 0 hr 9 min 46 sec) 
Heartbeat CPU 0 instructions: 290000001 cycles: 532316388 heartbeat IPC: 0.402863 cumulative IPC: 0.40415 (Simulation time: 0 hr 10 min 11 sec) 
Heartbeat CPU 0 instructions: 300000000 cycles: 557296979 heartbeat IPC: 0.400311 cumulative IPC: 0.403956 (Simulation time: 0 hr 10 min 37 sec) 
Heartbeat CPU 0 instructions: 310000003 cycles: 581921120 heartbeat IPC: 0.406106 cumulative IPC: 0.404058 (Simulation time: 0 hr 11 min 2 sec) 
Heartbeat CPU 0 instructions: 320000000 cycles: 606903439 heartbeat IPC: 0.400283 cumulative IPC: 0.403885 (Simulation time: 0 hr 11 min 28 sec) 
Heartbeat CPU 0 instructions: 330000003 cycles: 631632052 heartbeat IPC: 0.40439 cumulative IPC: 0.403907 (Simulation time: 0 hr 11 min 53 sec) 
Heartbeat CPU 0 instructions: 340000000 cycles: 656655827 heartbeat IPC: 0.39962 cumulative IPC: 0.403726 (Simulation time: 0 hr 12 min 19 sec) 
Heartbeat CPU 0 instructions: 350000002 cycles: 681653636 heartbeat IPC: 0.400035 cumulative IPC: 0.403577 (Simulation time: 0 hr 12 min 44 sec) 
Heartbeat CPU 0 instructions: 360000000 cycles: 706788296 heartbeat IPC: 0.397857 cumulative IPC: 0.403354 (Simulation time: 0 hr 13 min 9 sec) 
Heartbeat CPU 0 instructions: 370000000 cycles: 731703165 heartbeat IPC: 0.401367 cumulative IPC: 0.40328 (Simulation time: 0 hr 13 min 34 sec) 
Heartbeat CPU 0 instructions: 380000000 cycles: 756433588 heartbeat IPC: 0.40436 cumulative IPC: 0.403319 (Simulation time: 0 hr 13 min 59 sec) 
Heartbeat CPU 0 instructions: 390000002 cycles: 781187890 heartbeat IPC: 0.40397 cumulative IPC: 0.403341 (Simulation time: 0 hr 14 min 24 sec) 
Heartbeat CPU 0 instructions: 400000000 cycles: 806108446 heartbeat IPC: 0.401275 cumulative IPC: 0.403272 (Simulation time: 0 hr 14 min 49 sec) 
Heartbeat CPU 0 instructions: 410000002 cycles: 830934190 heartbeat IPC: 0.402808 cumulative IPC: 0.403257 (Simulation time: 0 hr 15 min 14 sec) 
Heartbeat CPU 0 instructions: 420000000 cycles: 855560901 heartbeat IPC: 0.406063 cumulative IPC: 0.403344 (Simulation time: 0 hr 15 min 40 sec) 
Heartbeat CPU 0 instructions: 430000000 cycles: 880424810 heartbeat IPC: 0.402189 cumulative IPC: 0.403309 (Simulation time: 0 hr 16 min 5 sec) 
Heartbeat CPU 0 instructions: 440000000 cycles: 904991186 heartbeat IPC: 0.40706 cumulative IPC: 0.403418 (Simulation time: 0 hr 16 min 30 sec) 
Heartbeat CPU 0 instructions: 450000000 cycles: 929985819 heartbeat IPC: 0.400086 cumulative IPC: 0.403322 (Simulation time: 0 hr 16 min 56 sec) 
Heartbeat CPU 0 instructions: 460000000 cycles: 954901240 heartbeat IPC: 0.401358 cumulative IPC: 0.403267 (Simulation time: 0 hr 17 min 21 sec) 
Heartbeat CPU 0 instructions: 470000001 cycles: 979611893 heartbeat IPC: 0.404684 cumulative IPC: 0.403306 (Simulation time: 0 hr 17 min 47 sec) 
Heartbeat CPU 0 instructions: 480000000 cycles: 1004493376 heartbeat IPC: 0.401905 cumulative IPC: 0.403269 (Simulation time: 0 hr 18 min 13 sec) 
Heartbeat CPU 0 instructions: 490000000 cycles: 1029477329 heartbeat IPC: 0.400257 cumulative IPC: 0.403191 (Simulation time: 0 hr 18 min 38 sec) 
Heartbeat CPU 0 instructions: 500000000 cycles: 1054777201 heartbeat IPC: 0.395259 cumulative IPC: 0.402989 (Simulation time: 0 hr 19 min 4 sec) 
Heartbeat CPU 0 instructions: 510000003 cycles: 1079954990 heartbeat IPC: 0.397176 cumulative IPC: 0.402845 (Simulation time: 0 hr 19 min 29 sec) 
Heartbeat CPU 0 instructions: 520000000 cycles: 1105306324 heartbeat IPC: 0.394456 cumulative IPC: 0.402641 (Simulation time: 0 hr 19 min 55 sec) 
Heartbeat CPU 0 instructions: 530000003 cycles: 1130667607 heartbeat IPC: 0.394302 cumulative IPC: 0.402443 (Simulation time: 0 hr 20 min 21 sec) 
Heartbeat CPU 0 instructions: 540000000 cycles: 1155939779 heartbeat IPC: 0.395692 cumulative IPC: 0.402287 (Simulation time: 0 hr 20 min 46 sec) 
Heartbeat CPU 0 instructions: 550000000 cycles: 1181229926 heartbeat IPC: 0.395411 cumulative IPC: 0.402132 (Simulation time: 0 hr 21 min 12 sec) 
Heartbeat CPU 0 instructions: 560000000 cycles: 1206830825 heartbeat IPC: 0.390611 cumulative IPC: 0.401874 (Simulation time: 0 hr 21 min 38 sec) 
Heartbeat CPU 0 instructions: 570000001 cycles: 1232356870 heartbeat IPC: 0.391757 cumulative IPC: 0.401653 (Simulation time: 0 hr 22 min 4 sec) 
Heartbeat CPU 0 instructions: 580000000 cycles: 1257891233 heartbeat IPC: 0.391629 cumulative IPC: 0.401439 (Simulation time: 0 hr 22 min 29 sec) 
Heartbeat CPU 0 instructions: 590000000 cycles: 1283575014 heartbeat IPC: 0.389351 cumulative IPC: 0.401185 (Simulation time: 0 hr 22 min 55 sec) 
Heartbeat CPU 0 instructions: 600000000 cycles: 1309352632 heartbeat IPC: 0.387933 cumulative IPC: 0.400911 (Simulation time: 0 hr 23 min 21 sec) 
Finished CPU 0 instructions: 500000003 cycles: 1247159149 cumulative IPC: 0.400911 (Simulation time: 0 hr 23 min 21 sec) 

CPU 0 Branch Prediction Accuracy: 91.1342% MPKI: 18.7968
Number of Branches: 106006945 Number of Mispredictions: 9398408
Number of LOAD Instructions: 207894007
Number of LOAD Instructions (ROI): 207894007
Number of STORE Instructions: 54285997
Number of STORE Instructions (ROI): 54285997
Total Destination Memory Operands: 57463404
Total Destination Memory Operands (ROI): 57463404
Total Source Memory Operands: 207894007
Total Source Memory Operands (ROI): 207894007
Number of DEPENDED LOADS: 18106131
Number of DEPENDED LOADS (ROI): 18106131
Number of SQ_ADDED: 57463404
Number of SQ_ADDED (ROI): 57463404
Number of LQ_ADDED: 209238528
Number of LQ_ADDED (ROI): 209238528
Number of Instructions read from trace: 600000039

ChampSim completed all CPUs

Region of Interest Statistics

CPU 0 cumulative IPC: 0.400911 instructions: 500000003 cycles: 1247159149
ITLB TOTAL     ACCESS:   96420741  HIT:   96420741  MISS:          0
ITLB LOAD      ACCESS:   96420741  HIT:   96420741  MISS:          0
ITLB RFO       ACCESS:          0  HIT:          0  MISS:          0
ITLB PREFETCH  ACCESS:          0  HIT:          0  MISS:          0
ITLB WRITEBACK ACCESS:          0  HIT:          0  MISS:          0
ITLB PREFETCH  REQUESTED:          0  ISSUED:          0  USEFUL:          0  USELESS:          0
ITLB TOTAL MSHR MERGED:          0
ITLB LOAD MSHR MERGED:          0
ITLB RFO MSHR MERGED:          0
ITLB PREFETCH MSHR MERGED:          0
ITLB WRITEBACK MSHR MERGED:          0
ITLB TOTAL ACCESSES:   96420741 HITS:   96420741 MISSES:          0
ITLB LOAD ACCESSES:   96420741 HITS:   96420741 MISSES:          0
ITLB RFO ACCESSES:          0 HITS:          0 MISSES:          0
ITLB PREFETCH ACCESSES:          0 HITS:          0 MISSES:          0
ITLB WRITEBACK ACCESSES:          0 HITS:          0 MISSES:          0
ITLB RQ ACCESS:  499999980
ITLB RQ TO_CACHE:   96420741
ITLB RQ MERGED:  403579239
ITLB RQ FORWARD:          0
ITLB WQ ACCESS:          0
ITLB WQ TO_CACHE:          0
ITLB WQ MERGED:          0
ITLB WQ FORWARD:          0
DTLB TOTAL     ACCESS:  155173183  HIT:  150261017  MISS:    4912166
DTLB LOAD      ACCESS:  117722431  HIT:  113331971  MISS:    4390460
DTLB RFO       ACCESS:   37450752  HIT:   36929046  MISS:     521706
DTLB PREFETCH  ACCESS:          0  HIT:          0  MISS:          0
DTLB WRITEBACK ACCESS:          0  HIT:          0  MISS:          0
DTLB PREFETCH  REQUESTED:          0  ISSUED:          0  USEFUL:          0  USELESS:          0
DTLB TOTAL MSHR MERGED:     452959
DTLB LOAD MSHR MERGED:     161544
DTLB RFO MSHR MERGED:     291415
DTLB PREFETCH MSHR MERGED:          0
DTLB WRITEBACK MSHR MERGED:          0
DTLB TOTAL ACCESSES:  155626142 HITS:  150261017 MISSES:    5365125
DTLB LOAD ACCESSES:  117883975 HITS:  113331971 MISSES:    4552004
DTLB RFO ACCESSES:   37742167 HITS:   36929046 MISSES:     813121
DTLB PREFETCH ACCESSES:          0 HITS:          0 MISSES:          0
DTLB WRITEBACK ACCESSES:          0 HITS:          0 MISSES:          0
DTLB RQ ACCESS:  205976804
DTLB RQ TO_CACHE:  155626142
DTLB RQ MERGED:   50350662
DTLB RQ FORWARD:          0
DTLB WQ ACCESS:          0
DTLB WQ TO_CACHE:          0
DTLB WQ MERGED:          0
DTLB WQ FORWARD:          0
L1D TOTAL     ACCESS:  277178313  HIT:  242355822  MISS:   34822491
L1D LOAD      ACCESS:  125414415  HIT:  107774290  MISS:   17640125
L1D RFO       ACCESS:   41135308  HIT:   38823470  MISS:    2311838
L1D PREFETCH  ACCESS:  110628590  HIT:   95758062  MISS:   14870528
L1D WRITEBACK ACCESS:          0  HIT:          0  MISS:          0
L1D PREFETCH  REQUESTED:  126271037  ISSUED:  124751888  USEFUL:    2704551  USELESS:   12166003
L1D TOTAL MSHR MERGED:    8488713
L1D LOAD MSHR MERGED:    1548177
L1D RFO MSHR MERGED:    3769281
L1D PREFETCH MSHR MERGED:    3171255
L1D WRITEBACK MSHR MERGED:          0
L1D TOTAL ACCESSES:  285754329 HITS:  242443123 MISSES:   43311206
L1D LOAD ACCESSES:  126271068 HITS:  107774321 MISSES:   18496747
L1D RFO ACCESSES:   44904094 HITS:   38823470 MISSES:    6080624
L1D PREFETCH ACCESSES:  114579167 HITS:   95845332 MISSES:   18733835
L1D WRITEBACK ACCESSES:          0 HITS:          0 MISSES:          0
L1D RQ ACCESS:  158429923
L1D RQ TO_CACHE:  126271037
L1D RQ MERGED:   32158855
L1D RQ FORWARD:          0
L1D WQ ACCESS:   47546882
L1D WQ TO_CACHE:   44904094
L1D WQ MERGED:    2642788
L1D WQ FORWARD:      87301
L1I TOTAL     ACCESS:  132830430  HIT:  132830430  MISS:          0
L1I LOAD      ACCESS:  132830430  HIT:  132830430  MISS:          0
L1I RFO       ACCESS:          0  HIT:          0  MISS:          0
L1I PREFETCH  ACCESS:          0  HIT:          0  MISS:          0
L1I WRITEBACK ACCESS:          0  HIT:          0  MISS:          0
L1I PREFETCH  REQUESTED:          0  ISSUED:          0  USEFUL:          0  USELESS:          0
L1I TOTAL MSHR MERGED:          0
L1I LOAD MSHR MERGED:          0
L1I RFO MSHR MERGED:          0
L1I PREFETCH MSHR MERGED:          0
L1I WRITEBACK MSHR MERGED:          0
L1I TOTAL ACCESSES:  132830430 HITS:  132830430 MISSES:          0
L1I LOAD ACCESSES:  132830430 HITS:  132830430 MISSES:          0
L1I RFO ACCESSES:          0 HITS:          0 MISSES:          0
L1I PREFETCH ACCESSES:          0 HITS:          0 MISSES:          0
L1I WRITEBACK ACCESSES:          0 HITS:          0 MISSES:          0
L1I RQ ACCESS:  499999980
L1I RQ TO_CACHE:  132830430
L1I RQ MERGED:  367169550
L1I RQ FORWARD:          0
L1I WQ ACCESS:          0
L1I WQ TO_CACHE:          0
L1I WQ MERGED:          0
L1I WQ FORWARD:          0
L2C TOTAL     ACCESS:   39597824  HIT:   20628523  MISS:   18969301
L2C LOAD      ACCESS:   16948508  HIT:    8568118  MISS:    8380390
L2C RFO       ACCESS:    2311289  HIT:     630844  MISS:    1680445
L2C PREFETCH  ACCESS:   17115585  HIT:    8210870  MISS:    8904715
L2C WRITEBACK ACCESS:    3222442  HIT:    3218691  MISS:       3751
L2C PREFETCH  REQUESTED:    2883124  ISSUED:    2883124  USEFUL:    1307403  USELESS:    7597055
L2C TOTAL MSHR MERGED:     533497
L2C LOAD MSHR MERGED:      90102
L2C RFO MSHR MERGED:          0
L2C PREFETCH MSHR MERGED:     443395
L2C WRITEBACK MSHR MERGED:          0
L2C TOTAL ACCESSES:   40248384 HITS:   20628690 MISSES:   19619694
L2C LOAD ACCESSES:   16948570 HITS:    8568180 MISSES:    8380390
L2C RFO ACCESSES:    2311343 HITS:     630898 MISSES:    1680445
L2C PREFETCH ACCESSES:   17766029 HITS:    8210921 MISSES:    9555108
L2C WRITEBACK ACCESSES:    3222442 HITS:    3218691 MISSES:       3751
L2C RQ ACCESS:   19259913
L2C RQ TO_CACHE:   19259797
L2C RQ MERGED:          0
L2C RQ FORWARD:          0
L2C WQ ACCESS:    3222442
L2C WQ TO_CACHE:    3222442
L2C WQ MERGED:          0
L2C WQ FORWARD:        167
LLC TOTAL     ACCESS:   21199291  HIT:   14044618  MISS:    7154673
LLC LOAD      ACCESS:    8290261  HIT:    5780197  MISS:    2510064
LLC RFO       ACCESS:    1680361  HIT:    1669392  MISS:      10969
LLC PREFETCH  ACCESS:    9053014  HIT:    4427689  MISS:    4625325
LLC WRITEBACK ACCESS:    2175655  HIT:    2167340  MISS:       8315
LLC PREFETCH  REQUESTED:          0  ISSUED:          0  USEFUL:     201885  USELESS:    4425785
LLC TOTAL MSHR MERGED:      49581
LLC LOAD MSHR MERGED:      15638
LLC RFO MSHR MERGED:          0
LLC PREFETCH MSHR MERGED:      33943
LLC WRITEBACK MSHR MERGED:          0
LLC TOTAL ACCESSES:   21249012 HITS:   14044756 MISSES:    7204256
LLC LOAD ACCESSES:    8290288 HITS:    5780224 MISSES:    2510064
LLC RFO ACCESSES:    1680445 HITS:    1669476 MISSES:      10969
LLC PREFETCH ACCESSES:    9102624 HITS:    4427716 MISSES:    4674908
LLC WRITEBACK ACCESSES:    2175655 HITS:    2167340 MISSES:       8315
LLC 0 RQ ACCESS:    9970733
LLC 0 RQ TO_CACHE:    9970622
LLC 0 RQ MERGED:          0
LLC 0 RQ FORWARD:          0
LLC WQ ACCESS:    2175656
LLC WQ TO_CACHE:    2175656
LLC WQ MERGED:          0
LLC WQ FORWARD:        138
Major fault: 0 Minor fault: 56391
CPU 0 L1D next line prefetcher final stats
CPU 0 L2C PC-based stride prefetcher final stats
All Misses: 8400005
All Hits: 16176131
SD Algo Stats - Switches: 0 SRR-Repls: 2632835 BRR-Repls: 0

DRAM Statistics
 CHANNEL 0
 RQ ROW_BUFFER_HIT:    4572534  ROW_BUFFER_MISS:    2558170
 DBUS_CONGESTED:    3322018
 WQ ROW_BUFFER_HIT:        988  ROW_BUFFER_MISS:      27511  FULL:          0

 AVG_CONGESTED_CYCLE: 12
LOADS RETIRED: 173631671
INSTR RETIRED: 500000000
