
*** ChampSim Multicore Out-of-Order Simulator ***

Warmup Instructions: 100000000
Simulation Instructions: 500000000
Number of CPUs: 1
LLC sets: 2048
LLC ways: 16
Clean RRIP Policies: 2213130222131302 Dirty RRIP Policies: 1203130212031302 PSEL Width: 10 Track Set: 4294967295 PSEL Mask: 1 Demote Mask: 3040100030401000DS Algo: 0Window size: 0
Off-chip DRAM Size: 4096 MB Channels: 1 Width: 64-bit Data Rate: 1600 MT/s

CPU 0 runs /mnt/beegfs/iconst01/spec2017/Fotonik3d.trace.gz
NOT SORTED
TRACE STRING: /mnt/beegfs/iconst01/spec2017/Fotonik3d.trace.gz
SORTED
TRACE STRING: /mnt/beegfs/iconst01/spec2017/Fotonik3d.trace.gz
INITIAL
TRACE STRING: /mnt/beegfs/iconst01/spec2017/Fotonik3d.trace.gz

champsim_seed used: 881

CPU 0 L1D next line prefetcher
CPU 0 L2C IP-based stride prefetcher
Initialize DRRIP state
Assign rand_sets[0]: 454  LLC: 2048
rand_sets[0]: 454
Assign rand_sets[1]: 1662  LLC: 2048
rand_sets[1]: 1662
Assign rand_sets[2]: 1921  LLC: 2048
rand_sets[2]: 1921
Assign rand_sets[3]: 1131  LLC: 2048
rand_sets[3]: 1131
Assign rand_sets[4]: 331  LLC: 2048
rand_sets[4]: 331
Assign rand_sets[5]: 1531  LLC: 2048
rand_sets[5]: 1531
Assign rand_sets[6]: 482  LLC: 2048
rand_sets[6]: 482
Assign rand_sets[7]: 1275  LLC: 2048
rand_sets[7]: 1275
Assign rand_sets[8]: 1876  LLC: 2048
rand_sets[8]: 1876
Assign rand_sets[9]: 2038  LLC: 2048
rand_sets[9]: 2038
Assign rand_sets[10]: 701  LLC: 2048
rand_sets[10]: 701
Assign rand_sets[11]: 479  LLC: 2048
rand_sets[11]: 479
Assign rand_sets[12]: 892  LLC: 2048
rand_sets[12]: 892
Assign rand_sets[13]: 1820  LLC: 2048
rand_sets[13]: 1820
Assign rand_sets[14]: 1505  LLC: 2048
rand_sets[14]: 1505
Assign rand_sets[15]: 1159  LLC: 2048
rand_sets[15]: 1159
Assign rand_sets[16]: 513  LLC: 2048
rand_sets[16]: 513
Assign rand_sets[17]: 703  LLC: 2048
rand_sets[17]: 703
Assign rand_sets[18]: 561  LLC: 2048
rand_sets[18]: 561
Assign rand_sets[19]: 990  LLC: 2048
rand_sets[19]: 990
Assign rand_sets[20]: 342  LLC: 2048
rand_sets[20]: 342
Assign rand_sets[21]: 882  LLC: 2048
rand_sets[21]: 882
Assign rand_sets[22]: 15  LLC: 2048
rand_sets[22]: 15
Assign rand_sets[23]: 71  LLC: 2048
rand_sets[23]: 71
Assign rand_sets[24]: 1127  LLC: 2048
rand_sets[24]: 1127
Assign rand_sets[25]: 1382  LLC: 2048
rand_sets[25]: 1382
Assign rand_sets[26]: 647  LLC: 2048
rand_sets[26]: 647
Assign rand_sets[27]: 857  LLC: 2048
rand_sets[27]: 857
Assign rand_sets[28]: 1450  LLC: 2048
rand_sets[28]: 1450
Assign rand_sets[29]: 1160  LLC: 2048
rand_sets[29]: 1160
Assign rand_sets[30]: 1852  LLC: 2048
rand_sets[30]: 1852
Assign rand_sets[31]: 1881  LLC: 2048
rand_sets[31]: 1881
Assign rand_sets[32]: 1770  LLC: 2048
rand_sets[32]: 1770
Assign rand_sets[33]: 1622  LLC: 2048
rand_sets[33]: 1622
Assign rand_sets[34]: 275  LLC: 2048
rand_sets[34]: 275
Assign rand_sets[35]: 635  LLC: 2048
rand_sets[35]: 635
Assign rand_sets[36]: 466  LLC: 2048
rand_sets[36]: 466
Assign rand_sets[37]: 1413  LLC: 2048
rand_sets[37]: 1413
Assign rand_sets[38]: 417  LLC: 2048
rand_sets[38]: 417
Assign rand_sets[39]: 472  LLC: 2048
rand_sets[39]: 472
Assign rand_sets[40]: 1340  LLC: 2048
rand_sets[40]: 1340
Assign rand_sets[41]: 852  LLC: 2048
rand_sets[41]: 852
Assign rand_sets[42]: 1365  LLC: 2048
rand_sets[42]: 1365
Assign rand_sets[43]: 47  LLC: 2048
rand_sets[43]: 47
Assign rand_sets[44]: 823  LLC: 2048
rand_sets[44]: 823
Assign rand_sets[45]: 686  LLC: 2048
rand_sets[45]: 686
Assign rand_sets[46]: 1637  LLC: 2048
rand_sets[46]: 1637
Assign rand_sets[47]: 1115  LLC: 2048
rand_sets[47]: 1115
Assign rand_sets[48]: 986  LLC: 2048
rand_sets[48]: 986
Assign rand_sets[49]: 258  LLC: 2048
rand_sets[49]: 258
Assign rand_sets[50]: 633  LLC: 2048
rand_sets[50]: 633
Assign rand_sets[51]: 920  LLC: 2048
rand_sets[51]: 920
Assign rand_sets[52]: 204  LLC: 2048
rand_sets[52]: 204
Assign rand_sets[53]: 227  LLC: 2048
rand_sets[53]: 227
Assign rand_sets[54]: 1818  LLC: 2048
rand_sets[54]: 1818
Assign rand_sets[55]: 886  LLC: 2048
rand_sets[55]: 886
Assign rand_sets[56]: 1422  LLC: 2048
rand_sets[56]: 1422
Assign rand_sets[57]: 607  LLC: 2048
rand_sets[57]: 607
Assign rand_sets[58]: 217  LLC: 2048
rand_sets[58]: 217
Assign rand_sets[59]: 1945  LLC: 2048
rand_sets[59]: 1945
Assign rand_sets[60]: 143  LLC: 2048
rand_sets[60]: 143
Assign rand_sets[61]: 1311  LLC: 2048
rand_sets[61]: 1311
Assign rand_sets[62]: 319  LLC: 2048
rand_sets[62]: 319
Assign rand_sets[63]: 1846  LLC: 2048
rand_sets[63]: 1846
 CLEAN-RRIP-POLICY-1: 2-2-1-3-1-3-0-2- CLEAN-RRIP-POLICY-2: 2-2-1-3-1-3-0-2-
 DIRTY-RRIP-POLICY-1: 1-2-0-3-1-3-0-2- DIRTY-RRIP-POLICY-2: 1-2-0-3-1-3-0-2-
 PSEL width: 10
Heartbeat CPU 0 instructions: 10000002 cycles: 7306734 heartbeat IPC: 1.3686 cumulative IPC: 1.3686 (Simulation time: 0 hr 0 min 23 sec) 
Heartbeat CPU 0 instructions: 20000000 cycles: 14613587 heartbeat IPC: 1.36858 cumulative IPC: 1.36859 (Simulation time: 0 hr 0 min 47 sec) 
Heartbeat CPU 0 instructions: 30000001 cycles: 21920304 heartbeat IPC: 1.3686 cumulative IPC: 1.36859 (Simulation time: 0 hr 1 min 11 sec) 
Heartbeat CPU 0 instructions: 40000000 cycles: 29226901 heartbeat IPC: 1.36863 cumulative IPC: 1.3686 (Simulation time: 0 hr 1 min 35 sec) 
Heartbeat CPU 0 instructions: 50000001 cycles: 36533492 heartbeat IPC: 1.36863 cumulative IPC: 1.36861 (Simulation time: 0 hr 1 min 59 sec) 
Heartbeat CPU 0 instructions: 60000000 cycles: 43840315 heartbeat IPC: 1.36858 cumulative IPC: 1.3686 (Simulation time: 0 hr 2 min 23 sec) 
Heartbeat CPU 0 instructions: 70000002 cycles: 51146937 heartbeat IPC: 1.36862 cumulative IPC: 1.36861 (Simulation time: 0 hr 2 min 47 sec) 
Heartbeat CPU 0 instructions: 80000000 cycles: 58453549 heartbeat IPC: 1.36862 cumulative IPC: 1.36861 (Simulation time: 0 hr 3 min 11 sec) 
Heartbeat CPU 0 instructions: 90000003 cycles: 65763959 heartbeat IPC: 1.36791 cumulative IPC: 1.36853 (Simulation time: 0 hr 3 min 35 sec) 
Heartbeat CPU 0 instructions: 100000000 cycles: 73074434 heartbeat IPC: 1.3679 cumulative IPC: 1.36847 (Simulation time: 0 hr 3 min 59 sec) 

Warmup complete CPU 0 instructions: 100000002 cycles: 73074446 (Simulation time: 0 hr 3 min 59 sec) 

Heartbeat CPU 0 instructions: 110000001 cycles: 85510503 heartbeat IPC: 0.804113 cumulative IPC: 0.804113 (Simulation time: 0 hr 4 min 28 sec) 
Heartbeat CPU 0 instructions: 120000000 cycles: 97872328 heartbeat IPC: 0.808942 cumulative IPC: 0.80652 (Simulation time: 0 hr 4 min 56 sec) 
Heartbeat CPU 0 instructions: 130000000 cycles: 110292057 heartbeat IPC: 0.805171 cumulative IPC: 0.80607 (Simulation time: 0 hr 5 min 25 sec) 
Heartbeat CPU 0 instructions: 140000000 cycles: 122687439 heartbeat IPC: 0.806752 cumulative IPC: 0.80624 (Simulation time: 0 hr 5 min 53 sec) 
Heartbeat CPU 0 instructions: 150000000 cycles: 135034831 heartbeat IPC: 0.809888 cumulative IPC: 0.806967 (Simulation time: 0 hr 6 min 22 sec) 
Heartbeat CPU 0 instructions: 160000000 cycles: 147428609 heartbeat IPC: 0.806856 cumulative IPC: 0.806949 (Simulation time: 0 hr 6 min 50 sec) 
Heartbeat CPU 0 instructions: 170000001 cycles: 159835460 heartbeat IPC: 0.806006 cumulative IPC: 0.806814 (Simulation time: 0 hr 7 min 19 sec) 
Heartbeat CPU 0 instructions: 180000000 cycles: 172227605 heartbeat IPC: 0.806963 cumulative IPC: 0.806833 (Simulation time: 0 hr 7 min 48 sec) 
Heartbeat CPU 0 instructions: 190000000 cycles: 184650828 heartbeat IPC: 0.804944 cumulative IPC: 0.806622 (Simulation time: 0 hr 8 min 16 sec) 
Heartbeat CPU 0 instructions: 200000000 cycles: 197029244 heartbeat IPC: 0.807858 cumulative IPC: 0.806746 (Simulation time: 0 hr 8 min 45 sec) 
Heartbeat CPU 0 instructions: 210000002 cycles: 209442614 heartbeat IPC: 0.805583 cumulative IPC: 0.80664 (Simulation time: 0 hr 9 min 13 sec) 
Heartbeat CPU 0 instructions: 220000000 cycles: 221862142 heartbeat IPC: 0.805183 cumulative IPC: 0.806518 (Simulation time: 0 hr 9 min 42 sec) 
Heartbeat CPU 0 instructions: 230000002 cycles: 234246015 heartbeat IPC: 0.807502 cumulative IPC: 0.806594 (Simulation time: 0 hr 10 min 10 sec) 
Heartbeat CPU 0 instructions: 240000000 cycles: 247367024 heartbeat IPC: 0.762136 cumulative IPC: 0.803247 (Simulation time: 0 hr 10 min 39 sec) 
Heartbeat CPU 0 instructions: 250000001 cycles: 264630255 heartbeat IPC: 0.579266 cumulative IPC: 0.783062 (Simulation time: 0 hr 11 min 11 sec) 
Heartbeat CPU 0 instructions: 260000000 cycles: 281750666 heartbeat IPC: 0.584098 cumulative IPC: 0.766738 (Simulation time: 0 hr 11 min 42 sec) 
Heartbeat CPU 0 instructions: 270000000 cycles: 298928567 heartbeat IPC: 0.582143 cumulative IPC: 0.752698 (Simulation time: 0 hr 12 min 12 sec) 
Heartbeat CPU 0 instructions: 280000000 cycles: 316058663 heartbeat IPC: 0.583768 cumulative IPC: 0.740789 (Simulation time: 0 hr 12 min 43 sec) 
Heartbeat CPU 0 instructions: 290000001 cycles: 344457197 heartbeat IPC: 0.352131 cumulative IPC: 0.700118 (Simulation time: 0 hr 13 min 21 sec) 
Heartbeat CPU 0 instructions: 300000000 cycles: 381380148 heartbeat IPC: 0.270834 cumulative IPC: 0.648707 (Simulation time: 0 hr 14 min 4 sec) 
Heartbeat CPU 0 instructions: 310000000 cycles: 397911504 heartbeat IPC: 0.604911 cumulative IPC: 0.646478 (Simulation time: 0 hr 14 min 35 sec) 
Heartbeat CPU 0 instructions: 320000000 cycles: 414421885 heartbeat IPC: 0.60568 cumulative IPC: 0.644505 (Simulation time: 0 hr 15 min 5 sec) 
Heartbeat CPU 0 instructions: 330000003 cycles: 430965446 heartbeat IPC: 0.604465 cumulative IPC: 0.642654 (Simulation time: 0 hr 15 min 34 sec) 
Heartbeat CPU 0 instructions: 340000000 cycles: 447445228 heartbeat IPC: 0.606804 cumulative IPC: 0.641076 (Simulation time: 0 hr 16 min 4 sec) 
Heartbeat CPU 0 instructions: 350000001 cycles: 462202293 heartbeat IPC: 0.677642 cumulative IPC: 0.642462 (Simulation time: 0 hr 16 min 33 sec) 
Heartbeat CPU 0 instructions: 360000000 cycles: 474056790 heartbeat IPC: 0.843562 cumulative IPC: 0.648408 (Simulation time: 0 hr 16 min 59 sec) 
Heartbeat CPU 0 instructions: 370000002 cycles: 485762924 heartbeat IPC: 0.854253 cumulative IPC: 0.654247 (Simulation time: 0 hr 17 min 25 sec) 
Heartbeat CPU 0 instructions: 380000000 cycles: 497661310 heartbeat IPC: 0.84045 cumulative IPC: 0.659465 (Simulation time: 0 hr 17 min 52 sec) 
Heartbeat CPU 0 instructions: 390000003 cycles: 511028520 heartbeat IPC: 0.7481 cumulative IPC: 0.66217 (Simulation time: 0 hr 18 min 19 sec) 
Heartbeat CPU 0 instructions: 400000000 cycles: 523297835 heartbeat IPC: 0.815041 cumulative IPC: 0.666336 (Simulation time: 0 hr 18 min 46 sec) 
Heartbeat CPU 0 instructions: 410000003 cycles: 535306246 heartbeat IPC: 0.83275 cumulative IPC: 0.670659 (Simulation time: 0 hr 19 min 13 sec) 
Heartbeat CPU 0 instructions: 420000000 cycles: 548155075 heartbeat IPC: 0.778281 cumulative IPC: 0.67357 (Simulation time: 0 hr 19 min 39 sec) 
Heartbeat CPU 0 instructions: 430000003 cycles: 566597808 heartbeat IPC: 0.542219 cumulative IPC: 0.668661 (Simulation time: 0 hr 20 min 3 sec) 
Heartbeat CPU 0 instructions: 440000000 cycles: 585043077 heartbeat IPC: 0.542144 cumulative IPC: 0.664103 (Simulation time: 0 hr 20 min 28 sec) 
Heartbeat CPU 0 instructions: 450000003 cycles: 603501704 heartbeat IPC: 0.541752 cumulative IPC: 0.659845 (Simulation time: 0 hr 20 min 52 sec) 
Heartbeat CPU 0 instructions: 460000000 cycles: 621965355 heartbeat IPC: 0.541605 cumulative IPC: 0.655868 (Simulation time: 0 hr 21 min 16 sec) 
Heartbeat CPU 0 instructions: 470000003 cycles: 640428721 heartbeat IPC: 0.541613 cumulative IPC: 0.65215 (Simulation time: 0 hr 21 min 40 sec) 
Heartbeat CPU 0 instructions: 480000000 cycles: 658890471 heartbeat IPC: 0.54166 cumulative IPC: 0.648668 (Simulation time: 0 hr 22 min 4 sec) 
Heartbeat CPU 0 instructions: 490000003 cycles: 677380186 heartbeat IPC: 0.540841 cumulative IPC: 0.645369 (Simulation time: 0 hr 22 min 29 sec) 
Heartbeat CPU 0 instructions: 500000000 cycles: 695821083 heartbeat IPC: 0.542273 cumulative IPC: 0.642316 (Simulation time: 0 hr 22 min 53 sec) 
Heartbeat CPU 0 instructions: 510000003 cycles: 714280898 heartbeat IPC: 0.541717 cumulative IPC: 0.63942 (Simulation time: 0 hr 23 min 17 sec) 
Heartbeat CPU 0 instructions: 520000000 cycles: 732725732 heartbeat IPC: 0.542157 cumulative IPC: 0.6367 (Simulation time: 0 hr 23 min 41 sec) 
Heartbeat CPU 0 instructions: 530000001 cycles: 751207195 heartbeat IPC: 0.541083 cumulative IPC: 0.634094 (Simulation time: 0 hr 24 min 6 sec) 
Heartbeat CPU 0 instructions: 540000000 cycles: 769610342 heartbeat IPC: 0.543385 cumulative IPC: 0.631698 (Simulation time: 0 hr 24 min 30 sec) 
Heartbeat CPU 0 instructions: 550000001 cycles: 788002029 heartbeat IPC: 0.543724 cumulative IPC: 0.629434 (Simulation time: 0 hr 24 min 54 sec) 
Heartbeat CPU 0 instructions: 560000000 cycles: 806395095 heartbeat IPC: 0.543683 cumulative IPC: 0.627284 (Simulation time: 0 hr 25 min 18 sec) 
Heartbeat CPU 0 instructions: 570000001 cycles: 824779443 heartbeat IPC: 0.543941 cumulative IPC: 0.625245 (Simulation time: 0 hr 25 min 42 sec) 
Heartbeat CPU 0 instructions: 580000000 cycles: 843133712 heartbeat IPC: 0.544832 cumulative IPC: 0.623329 (Simulation time: 0 hr 26 min 7 sec) 
Heartbeat CPU 0 instructions: 590000001 cycles: 861535206 heartbeat IPC: 0.543434 cumulative IPC: 0.621464 (Simulation time: 0 hr 26 min 31 sec) 
Heartbeat CPU 0 instructions: 600000000 cycles: 879941063 heartbeat IPC: 0.543305 cumulative IPC: 0.619681 (Simulation time: 0 hr 26 min 55 sec) 
Finished CPU 0 instructions: 500000002 cycles: 806866631 cumulative IPC: 0.619681 (Simulation time: 0 hr 26 min 55 sec) 

CPU 0 Branch Prediction Accuracy: 99.5931% MPKI: 0.08288
Number of Branches: 10184133 Number of Mispredictions: 41440
Number of LOAD Instructions: 261155957
Number of LOAD Instructions (ROI): 261155957
Number of STORE Instructions: 57884062
Number of STORE Instructions (ROI): 57884062
Total Destination Memory Operands: 83293336
Total Destination Memory Operands (ROI): 83293336
Total Source Memory Operands: 261155957
Total Source Memory Operands (ROI): 261155957
Number of DEPENDED LOADS: 22255447
Number of DEPENDED LOADS (ROI): 22255447
Number of SQ_ADDED: 83293300
Number of SQ_ADDED (ROI): 83293300
Number of LQ_ADDED: 1765754452
Number of LQ_ADDED (ROI): 1765754452
Number of Instructions read from trace: 600000257

ChampSim completed all CPUs

Region of Interest Statistics

CPU 0 cumulative IPC: 0.619681 instructions: 500000002 cycles: 806866631
ITLB TOTAL     ACCESS:   94640319  HIT:   94640281  MISS:         38
ITLB LOAD      ACCESS:   94640319  HIT:   94640281  MISS:         38
ITLB RFO       ACCESS:          0  HIT:          0  MISS:          0
ITLB PREFETCH  ACCESS:          0  HIT:          0  MISS:          0
ITLB WRITEBACK ACCESS:          0  HIT:          0  MISS:          0
ITLB PREFETCH  REQUESTED:          0  ISSUED:          0  USEFUL:          0  USELESS:          0
ITLB TOTAL MSHR MERGED:         93
ITLB LOAD MSHR MERGED:         93
ITLB RFO MSHR MERGED:          0
ITLB PREFETCH MSHR MERGED:          0
ITLB WRITEBACK MSHR MERGED:          0
ITLB TOTAL ACCESSES:   94640412 HITS:   94640281 MISSES:        131
ITLB LOAD ACCESSES:   94640412 HITS:   94640281 MISSES:        131
ITLB RFO ACCESSES:          0 HITS:          0 MISSES:          0
ITLB PREFETCH ACCESSES:          0 HITS:          0 MISSES:          0
ITLB WRITEBACK ACCESSES:          0 HITS:          0 MISSES:          0
ITLB RQ ACCESS:  500000001
ITLB RQ TO_CACHE:   94640413
ITLB RQ MERGED:  405359588
ITLB RQ FORWARD:          0
ITLB WQ ACCESS:          0
ITLB WQ TO_CACHE:          0
ITLB WQ MERGED:          0
ITLB WQ FORWARD:          0
DTLB TOTAL     ACCESS:  149172187  HIT:  148575227  MISS:     596960
DTLB LOAD      ACCESS:  107298740  HIT:  106701791  MISS:     596949
DTLB RFO       ACCESS:   41873447  HIT:   41873436  MISS:         11
DTLB PREFETCH  ACCESS:          0  HIT:          0  MISS:          0
DTLB WRITEBACK ACCESS:          0  HIT:          0  MISS:          0
DTLB PREFETCH  REQUESTED:          0  ISSUED:          0  USEFUL:          0  USELESS:          0
DTLB TOTAL MSHR MERGED:     134235
DTLB LOAD MSHR MERGED:     134235
DTLB RFO MSHR MERGED:          0
DTLB PREFETCH MSHR MERGED:          0
DTLB WRITEBACK MSHR MERGED:          0
DTLB TOTAL ACCESSES:  149306422 HITS:  148575227 MISSES:     731195
DTLB LOAD ACCESSES:  107432975 HITS:  106701791 MISSES:     731184
DTLB RFO ACCESSES:   41873447 HITS:   41873436 MISSES:         11
DTLB PREFETCH ACCESSES:          0 HITS:          0 MISSES:          0
DTLB WRITEBACK ACCESSES:          0 HITS:          0 MISSES:          0
DTLB RQ ACCESS:  259760447
DTLB RQ TO_CACHE:  149306422
DTLB RQ MERGED:  110454025
DTLB RQ FORWARD:          0
DTLB WQ ACCESS:          0
DTLB WQ TO_CACHE:          0
DTLB WQ MERGED:          0
DTLB WQ FORWARD:          0
L1D TOTAL     ACCESS:  261024094  HIT:  245627064  MISS:   15397030
L1D LOAD      ACCESS:  118067465  HIT:  112563175  MISS:    5504290
L1D RFO       ACCESS:   68946755  HIT:   68932348  MISS:      14407
L1D PREFETCH  ACCESS:   74009874  HIT:   64131541  MISS:    9878333
L1D WRITEBACK ACCESS:          0  HIT:          0  MISS:          0
L1D PREFETCH  REQUESTED:  120655697  ISSUED:  119077343  USEFUL:    8008348  USELESS:    1870007
L1D TOTAL MSHR MERGED:   16530013
L1D LOAD MSHR MERGED:    5002002
L1D RFO MSHR MERGED:      21823
L1D PREFETCH MSHR MERGED:   11506188
L1D WRITEBACK MSHR MERGED:          0
L1D TOTAL ACCESSES:  277664334 HITS:  245737291 MISSES:   31927043
L1D LOAD ACCESSES:  120663207 HITS:  112570685 MISSES:    8092522
L1D RFO ACCESSES:   68968577 HITS:   68932348 MISSES:      36229
L1D PREFETCH ACCESSES:   88032550 HITS:   64234258 MISSES:   23798292
L1D WRITEBACK ACCESSES:          0 HITS:          0 MISSES:          0
L1D RQ ACCESS:  190686131
L1D RQ TO_CACHE:  120655697
L1D RQ MERGED:   70022924
L1D RQ FORWARD:          0
L1D WQ ACCESS:   69074336
L1D WQ TO_CACHE:   68968579
L1D WQ MERGED:     105757
L1D WQ FORWARD:     110227
L1I TOTAL     ACCESS:  121555982  HIT:  121554909  MISS:       1073
L1I LOAD      ACCESS:  121555982  HIT:  121554909  MISS:       1073
L1I RFO       ACCESS:          0  HIT:          0  MISS:          0
L1I PREFETCH  ACCESS:          0  HIT:          0  MISS:          0
L1I WRITEBACK ACCESS:          0  HIT:          0  MISS:          0
L1I PREFETCH  REQUESTED:          0  ISSUED:          0  USEFUL:          0  USELESS:          0
L1I TOTAL MSHR MERGED:       1090
L1I LOAD MSHR MERGED:       1090
L1I RFO MSHR MERGED:          0
L1I PREFETCH MSHR MERGED:          0
L1I WRITEBACK MSHR MERGED:          0
L1I TOTAL ACCESSES:  121557072 HITS:  121554909 MISSES:       2163
L1I LOAD ACCESSES:  121557072 HITS:  121554909 MISSES:       2163
L1I RFO ACCESSES:          0 HITS:          0 MISSES:          0
L1I PREFETCH ACCESSES:          0 HITS:          0 MISSES:          0
L1I WRITEBACK ACCESSES:          0 HITS:          0 MISSES:          0
L1I RQ ACCESS:  500000000
L1I RQ TO_CACHE:  121557072
L1I RQ MERGED:  378442928
L1I RQ FORWARD:          0
L1I WQ ACCESS:          0
L1I WQ TO_CACHE:          0
L1I WQ MERGED:          0
L1I WQ FORWARD:          0
L2C TOTAL     ACCESS:   22469825  HIT:    9151807  MISS:   13318018
L2C LOAD      ACCESS:    3091557  HIT:     416991  MISS:    2674566
L2C RFO       ACCESS:      14406  HIT:      13992  MISS:        414
L2C PREFETCH  ACCESS:   12733874  HIT:    2092627  MISS:   10641247
L2C WRITEBACK ACCESS:    6629988  HIT:    6628197  MISS:       1791
L2C PREFETCH  REQUESTED:     695398  ISSUED:     695398  USEFUL:     186237  USELESS:   10455811
L2C TOTAL MSHR MERGED:      71799
L2C LOAD MSHR MERGED:      22599
L2C RFO MSHR MERGED:          0
L2C PREFETCH MSHR MERGED:      49200
L2C WRITEBACK MSHR MERGED:          0
L2C TOTAL ACCESSES:   22683841 HITS:    9151853 MISSES:   13531988
L2C LOAD ACCESSES:    3091593 HITS:     417027 MISSES:    2674566
L2C RFO ACCESSES:      14406 HITS:      13992 MISSES:        414
L2C PREFETCH ACCESSES:   12947854 HITS:    2092637 MISSES:   10855217
L2C WRITEBACK ACCESSES:    6629988 HITS:    6628197 MISSES:       1791
L2C RQ ACCESS:    3105999
L2C RQ TO_CACHE:    3105963
L2C RQ MERGED:          0
L2C RQ FORWARD:          0
L2C WQ ACCESS:    6629988
L2C WQ TO_CACHE:    6629988
L2C WQ MERGED:          0
L2C WQ FORWARD:         46
LLC TOTAL     ACCESS:   20026643  HIT:    1988260  MISS:   18038383
LLC LOAD      ACCESS:    2651967  HIT:     432867  MISS:    2219100
LLC RFO       ACCESS:        414  HIT:         20  MISS:        394
LLC PREFETCH  ACCESS:   10783023  HIT:     118900  MISS:   10664123
LLC WRITEBACK ACCESS:    6591239  HIT:    1436473  MISS:    5154766
LLC PREFETCH  REQUESTED:          0  ISSUED:          0  USEFUL:      46150  USELESS:   10619120
LLC TOTAL MSHR MERGED:      21543
LLC LOAD MSHR MERGED:       9910
LLC RFO MSHR MERGED:          0
LLC PREFETCH MSHR MERGED:      11633
LLC WRITEBACK MSHR MERGED:          0
LLC TOTAL ACCESSES:   20048187 HITS:    1988260 MISSES:   18059927
LLC LOAD ACCESSES:    2651967 HITS:     432867 MISSES:    2219100
LLC RFO ACCESSES:        414 HITS:         20 MISSES:        394
LLC PREFETCH ACCESSES:   10804567 HITS:     118900 MISSES:   10685667
LLC WRITEBACK ACCESSES:    6591239 HITS:    1436473 MISSES:    5154766
LLC 0 RQ ACCESS:    2652381
LLC 0 RQ TO_CACHE:    2652381
LLC 0 RQ MERGED:          0
LLC 0 RQ FORWARD:          0
LLC WQ ACCESS:    6591240
LLC WQ TO_CACHE:    6591240
LLC WQ MERGED:          0
LLC WQ FORWARD:          0
Major fault: 0 Minor fault: 183991
CPU 0 L1D next line prefetcher final stats
CPU 0 L2C PC-based stride prefetcher final stats
All Misses: 20895234
All Hits: 2062455
SD Algo Stats - Switches: 0 SRR-Repls: 2270271 BRR-Repls: 0

DRAM Statistics
 CHANNEL 0
 RQ ROW_BUFFER_HIT:    7162915  ROW_BUFFER_MISS:    5720703
 DBUS_CONGESTED:   11506672
 WQ ROW_BUFFER_HIT:    1420363  ROW_BUFFER_MISS:    5164312  FULL:          0

 AVG_CONGESTED_CYCLE: 13
LOADS RETIRED: 204440772
INSTR RETIRED: 500000000
