
*** ChampSim Multicore Out-of-Order Simulator ***

Warmup Instructions: 100000000
Simulation Instructions: 500000000
Number of CPUs: 1
LLC sets: 2048
LLC ways: 16
Clean RRIP Policies: 2213130222131302 Dirty RRIP Policies: 1203130212031302 PSEL Width: 10 Track Set: 4294967295 PSEL Mask: 1 Demote Mask: 3040100030401000DS Algo: 0Window size: 0
Off-chip DRAM Size: 4096 MB Channels: 1 Width: 64-bit Data Rate: 1600 MT/s

CPU 0 runs /mnt/beegfs/iconst01/spec2017/Parest.trace.gz
NOT SORTED
TRACE STRING: /mnt/beegfs/iconst01/spec2017/Parest.trace.gz
SORTED
TRACE STRING: /mnt/beegfs/iconst01/spec2017/Parest.trace.gz
INITIAL
TRACE STRING: /mnt/beegfs/iconst01/spec2017/Parest.trace.gz

champsim_seed used: 623

CPU 0 L1D next line prefetcher
CPU 0 L2C IP-based stride prefetcher
Initialize DRRIP state
Assign rand_sets[0]: 454  LLC: 2048
rand_sets[0]: 454
Assign rand_sets[1]: 1662  LLC: 2048
rand_sets[1]: 1662
Assign rand_sets[2]: 1921  LLC: 2048
rand_sets[2]: 1921
Assign rand_sets[3]: 1131  LLC: 2048
rand_sets[3]: 1131
Assign rand_sets[4]: 331  LLC: 2048
rand_sets[4]: 331
Assign rand_sets[5]: 1531  LLC: 2048
rand_sets[5]: 1531
Assign rand_sets[6]: 482  LLC: 2048
rand_sets[6]: 482
Assign rand_sets[7]: 1275  LLC: 2048
rand_sets[7]: 1275
Assign rand_sets[8]: 1876  LLC: 2048
rand_sets[8]: 1876
Assign rand_sets[9]: 2038  LLC: 2048
rand_sets[9]: 2038
Assign rand_sets[10]: 701  LLC: 2048
rand_sets[10]: 701
Assign rand_sets[11]: 479  LLC: 2048
rand_sets[11]: 479
Assign rand_sets[12]: 892  LLC: 2048
rand_sets[12]: 892
Assign rand_sets[13]: 1820  LLC: 2048
rand_sets[13]: 1820
Assign rand_sets[14]: 1505  LLC: 2048
rand_sets[14]: 1505
Assign rand_sets[15]: 1159  LLC: 2048
rand_sets[15]: 1159
Assign rand_sets[16]: 513  LLC: 2048
rand_sets[16]: 513
Assign rand_sets[17]: 703  LLC: 2048
rand_sets[17]: 703
Assign rand_sets[18]: 561  LLC: 2048
rand_sets[18]: 561
Assign rand_sets[19]: 990  LLC: 2048
rand_sets[19]: 990
Assign rand_sets[20]: 342  LLC: 2048
rand_sets[20]: 342
Assign rand_sets[21]: 882  LLC: 2048
rand_sets[21]: 882
Assign rand_sets[22]: 15  LLC: 2048
rand_sets[22]: 15
Assign rand_sets[23]: 71  LLC: 2048
rand_sets[23]: 71
Assign rand_sets[24]: 1127  LLC: 2048
rand_sets[24]: 1127
Assign rand_sets[25]: 1382  LLC: 2048
rand_sets[25]: 1382
Assign rand_sets[26]: 647  LLC: 2048
rand_sets[26]: 647
Assign rand_sets[27]: 857  LLC: 2048
rand_sets[27]: 857
Assign rand_sets[28]: 1450  LLC: 2048
rand_sets[28]: 1450
Assign rand_sets[29]: 1160  LLC: 2048
rand_sets[29]: 1160
Assign rand_sets[30]: 1852  LLC: 2048
rand_sets[30]: 1852
Assign rand_sets[31]: 1881  LLC: 2048
rand_sets[31]: 1881
Assign rand_sets[32]: 1770  LLC: 2048
rand_sets[32]: 1770
Assign rand_sets[33]: 1622  LLC: 2048
rand_sets[33]: 1622
Assign rand_sets[34]: 275  LLC: 2048
rand_sets[34]: 275
Assign rand_sets[35]: 635  LLC: 2048
rand_sets[35]: 635
Assign rand_sets[36]: 466  LLC: 2048
rand_sets[36]: 466
Assign rand_sets[37]: 1413  LLC: 2048
rand_sets[37]: 1413
Assign rand_sets[38]: 417  LLC: 2048
rand_sets[38]: 417
Assign rand_sets[39]: 472  LLC: 2048
rand_sets[39]: 472
Assign rand_sets[40]: 1340  LLC: 2048
rand_sets[40]: 1340
Assign rand_sets[41]: 852  LLC: 2048
rand_sets[41]: 852
Assign rand_sets[42]: 1365  LLC: 2048
rand_sets[42]: 1365
Assign rand_sets[43]: 47  LLC: 2048
rand_sets[43]: 47
Assign rand_sets[44]: 823  LLC: 2048
rand_sets[44]: 823
Assign rand_sets[45]: 686  LLC: 2048
rand_sets[45]: 686
Assign rand_sets[46]: 1637  LLC: 2048
rand_sets[46]: 1637
Assign rand_sets[47]: 1115  LLC: 2048
rand_sets[47]: 1115
Assign rand_sets[48]: 986  LLC: 2048
rand_sets[48]: 986
Assign rand_sets[49]: 258  LLC: 2048
rand_sets[49]: 258
Assign rand_sets[50]: 633  LLC: 2048
rand_sets[50]: 633
Assign rand_sets[51]: 920  LLC: 2048
rand_sets[51]: 920
Assign rand_sets[52]: 204  LLC: 2048
rand_sets[52]: 204
Assign rand_sets[53]: 227  LLC: 2048
rand_sets[53]: 227
Assign rand_sets[54]: 1818  LLC: 2048
rand_sets[54]: 1818
Assign rand_sets[55]: 886  LLC: 2048
rand_sets[55]: 886
Assign rand_sets[56]: 1422  LLC: 2048
rand_sets[56]: 1422
Assign rand_sets[57]: 607  LLC: 2048
rand_sets[57]: 607
Assign rand_sets[58]: 217  LLC: 2048
rand_sets[58]: 217
Assign rand_sets[59]: 1945  LLC: 2048
rand_sets[59]: 1945
Assign rand_sets[60]: 143  LLC: 2048
rand_sets[60]: 143
Assign rand_sets[61]: 1311  LLC: 2048
rand_sets[61]: 1311
Assign rand_sets[62]: 319  LLC: 2048
rand_sets[62]: 319
Assign rand_sets[63]: 1846  LLC: 2048
rand_sets[63]: 1846
 CLEAN-RRIP-POLICY-1: 2-2-1-3-1-3-0-2- CLEAN-RRIP-POLICY-2: 2-2-1-3-1-3-0-2-
 DIRTY-RRIP-POLICY-1: 1-2-0-3-1-3-0-2- DIRTY-RRIP-POLICY-2: 1-2-0-3-1-3-0-2-
 PSEL width: 10
Heartbeat CPU 0 instructions: 10000001 cycles: 4387143 heartbeat IPC: 2.27939 cumulative IPC: 2.27939 (Simulation time: 0 hr 0 min 14 sec) 
Heartbeat CPU 0 instructions: 20000000 cycles: 8781328 heartbeat IPC: 2.27573 cumulative IPC: 2.27756 (Simulation time: 0 hr 0 min 28 sec) 
Heartbeat CPU 0 instructions: 30000003 cycles: 13213265 heartbeat IPC: 2.25635 cumulative IPC: 2.27045 (Simulation time: 0 hr 0 min 42 sec) 
Heartbeat CPU 0 instructions: 40000000 cycles: 17643898 heartbeat IPC: 2.25701 cumulative IPC: 2.26707 (Simulation time: 0 hr 0 min 56 sec) 
Heartbeat CPU 0 instructions: 50000000 cycles: 22052169 heartbeat IPC: 2.26846 cumulative IPC: 2.26735 (Simulation time: 0 hr 1 min 10 sec) 
Heartbeat CPU 0 instructions: 60000000 cycles: 26457912 heartbeat IPC: 2.26976 cumulative IPC: 2.26775 (Simulation time: 0 hr 1 min 23 sec) 
Heartbeat CPU 0 instructions: 70000000 cycles: 30858834 heartbeat IPC: 2.27225 cumulative IPC: 2.26839 (Simulation time: 0 hr 1 min 37 sec) 
Heartbeat CPU 0 instructions: 80000000 cycles: 35254446 heartbeat IPC: 2.275 cumulative IPC: 2.26922 (Simulation time: 0 hr 1 min 52 sec) 
Heartbeat CPU 0 instructions: 90000000 cycles: 39648747 heartbeat IPC: 2.27567 cumulative IPC: 2.26993 (Simulation time: 0 hr 2 min 6 sec) 
Heartbeat CPU 0 instructions: 100000000 cycles: 44046090 heartbeat IPC: 2.2741 cumulative IPC: 2.27035 (Simulation time: 0 hr 2 min 20 sec) 

Warmup complete CPU 0 instructions: 100000002 cycles: 44046100 (Simulation time: 0 hr 2 min 20 sec) 

Heartbeat CPU 0 instructions: 110000000 cycles: 53999829 heartbeat IPC: 1.00465 cumulative IPC: 1.00465 (Simulation time: 0 hr 2 min 38 sec) 
Heartbeat CPU 0 instructions: 120000000 cycles: 62973674 heartbeat IPC: 1.11435 cumulative IPC: 1.05666 (Simulation time: 0 hr 2 min 56 sec) 
Heartbeat CPU 0 instructions: 130000000 cycles: 71993971 heartbeat IPC: 1.10861 cumulative IPC: 1.07343 (Simulation time: 0 hr 3 min 14 sec) 
Heartbeat CPU 0 instructions: 140000000 cycles: 81164348 heartbeat IPC: 1.09047 cumulative IPC: 1.07764 (Simulation time: 0 hr 3 min 31 sec) 
Heartbeat CPU 0 instructions: 150000000 cycles: 92253258 heartbeat IPC: 0.901802 cumulative IPC: 1.03719 (Simulation time: 0 hr 3 min 50 sec) 
Heartbeat CPU 0 instructions: 160000000 cycles: 102327371 heartbeat IPC: 0.992643 cumulative IPC: 1.02949 (Simulation time: 0 hr 4 min 8 sec) 
Heartbeat CPU 0 instructions: 170000003 cycles: 112149518 heartbeat IPC: 1.01811 cumulative IPC: 1.02785 (Simulation time: 0 hr 4 min 25 sec) 
Heartbeat CPU 0 instructions: 180000000 cycles: 121804043 heartbeat IPC: 1.03578 cumulative IPC: 1.02883 (Simulation time: 0 hr 4 min 43 sec) 
Heartbeat CPU 0 instructions: 190000002 cycles: 131581676 heartbeat IPC: 1.02274 cumulative IPC: 1.02815 (Simulation time: 0 hr 5 min 1 sec) 
Heartbeat CPU 0 instructions: 200000000 cycles: 140797347 heartbeat IPC: 1.08511 cumulative IPC: 1.03358 (Simulation time: 0 hr 5 min 19 sec) 
Heartbeat CPU 0 instructions: 210000000 cycles: 150414781 heartbeat IPC: 1.03978 cumulative IPC: 1.03414 (Simulation time: 0 hr 5 min 36 sec) 
Heartbeat CPU 0 instructions: 220000000 cycles: 159317444 heartbeat IPC: 1.12326 cumulative IPC: 1.04102 (Simulation time: 0 hr 5 min 54 sec) 
Heartbeat CPU 0 instructions: 230000001 cycles: 171457349 heartbeat IPC: 0.82373 cumulative IPC: 1.02032 (Simulation time: 0 hr 6 min 14 sec) 
Heartbeat CPU 0 instructions: 240000000 cycles: 181923925 heartbeat IPC: 0.955422 cumulative IPC: 1.01539 (Simulation time: 0 hr 6 min 32 sec) 
Heartbeat CPU 0 instructions: 250000002 cycles: 191783961 heartbeat IPC: 1.0142 cumulative IPC: 1.01531 (Simulation time: 0 hr 6 min 49 sec) 
Heartbeat CPU 0 instructions: 260000000 cycles: 201358015 heartbeat IPC: 1.04449 cumulative IPC: 1.01709 (Simulation time: 0 hr 7 min 7 sec) 
Heartbeat CPU 0 instructions: 270000001 cycles: 210763844 heartbeat IPC: 1.06317 cumulative IPC: 1.01969 (Simulation time: 0 hr 7 min 25 sec) 
Heartbeat CPU 0 instructions: 280000000 cycles: 220465211 heartbeat IPC: 1.03078 cumulative IPC: 1.0203 (Simulation time: 0 hr 7 min 43 sec) 
Heartbeat CPU 0 instructions: 290000002 cycles: 229525498 heartbeat IPC: 1.10372 cumulative IPC: 1.02437 (Simulation time: 0 hr 8 min 0 sec) 
Heartbeat CPU 0 instructions: 300000000 cycles: 239063666 heartbeat IPC: 1.04842 cumulative IPC: 1.02555 (Simulation time: 0 hr 8 min 18 sec) 
Heartbeat CPU 0 instructions: 310000000 cycles: 248045859 heartbeat IPC: 1.11331 cumulative IPC: 1.02941 (Simulation time: 0 hr 8 min 36 sec) 
Heartbeat CPU 0 instructions: 320000000 cycles: 257163959 heartbeat IPC: 1.09672 cumulative IPC: 1.03229 (Simulation time: 0 hr 8 min 53 sec) 
Heartbeat CPU 0 instructions: 330000002 cycles: 266449530 heartbeat IPC: 1.07694 cumulative IPC: 1.03416 (Simulation time: 0 hr 9 min 11 sec) 
Heartbeat CPU 0 instructions: 340000000 cycles: 276374876 heartbeat IPC: 1.00752 cumulative IPC: 1.03302 (Simulation time: 0 hr 9 min 29 sec) 
Heartbeat CPU 0 instructions: 350000000 cycles: 286714624 heartbeat IPC: 0.967142 cumulative IPC: 1.03021 (Simulation time: 0 hr 9 min 47 sec) 
Heartbeat CPU 0 instructions: 360000000 cycles: 296495509 heartbeat IPC: 1.0224 cumulative IPC: 1.02991 (Simulation time: 0 hr 10 min 5 sec) 
Heartbeat CPU 0 instructions: 370000000 cycles: 305997544 heartbeat IPC: 1.05241 cumulative IPC: 1.03073 (Simulation time: 0 hr 10 min 22 sec) 
Heartbeat CPU 0 instructions: 380000000 cycles: 315319652 heartbeat IPC: 1.07272 cumulative IPC: 1.03217 (Simulation time: 0 hr 10 min 40 sec) 
Heartbeat CPU 0 instructions: 390000002 cycles: 324403653 heartbeat IPC: 1.10084 cumulative IPC: 1.03439 (Simulation time: 0 hr 10 min 57 sec) 
Heartbeat CPU 0 instructions: 400000000 cycles: 333913864 heartbeat IPC: 1.0515 cumulative IPC: 1.03495 (Simulation time: 0 hr 11 min 15 sec) 
Heartbeat CPU 0 instructions: 410000000 cycles: 342788104 heartbeat IPC: 1.12686 cumulative IPC: 1.03768 (Simulation time: 0 hr 11 min 33 sec) 
Heartbeat CPU 0 instructions: 420000000 cycles: 353601569 heartbeat IPC: 0.924773 cumulative IPC: 1.03374 (Simulation time: 0 hr 11 min 51 sec) 
Heartbeat CPU 0 instructions: 430000000 cycles: 364455922 heartbeat IPC: 0.921289 cumulative IPC: 1.02993 (Simulation time: 0 hr 12 min 9 sec) 
Heartbeat CPU 0 instructions: 440000000 cycles: 374343459 heartbeat IPC: 1.01137 cumulative IPC: 1.02938 (Simulation time: 0 hr 12 min 27 sec) 
Heartbeat CPU 0 instructions: 450000000 cycles: 384109100 heartbeat IPC: 1.024 cumulative IPC: 1.02922 (Simulation time: 0 hr 12 min 44 sec) 
Heartbeat CPU 0 instructions: 460000000 cycles: 393813384 heartbeat IPC: 1.03047 cumulative IPC: 1.02926 (Simulation time: 0 hr 13 min 2 sec) 
Heartbeat CPU 0 instructions: 470000001 cycles: 403571280 heartbeat IPC: 1.02481 cumulative IPC: 1.02914 (Simulation time: 0 hr 13 min 19 sec) 
Heartbeat CPU 0 instructions: 480000000 cycles: 412749901 heartbeat IPC: 1.08949 cumulative IPC: 1.03064 (Simulation time: 0 hr 13 min 37 sec) 
Heartbeat CPU 0 instructions: 490000000 cycles: 422434055 heartbeat IPC: 1.03261 cumulative IPC: 1.03069 (Simulation time: 0 hr 13 min 54 sec) 
Heartbeat CPU 0 instructions: 500000000 cycles: 431710616 heartbeat IPC: 1.07799 cumulative IPC: 1.03182 (Simulation time: 0 hr 14 min 12 sec) 
Heartbeat CPU 0 instructions: 510000000 cycles: 440794964 heartbeat IPC: 1.10079 cumulative IPC: 1.0334 (Simulation time: 0 hr 14 min 29 sec) 
Heartbeat CPU 0 instructions: 520000000 cycles: 450175844 heartbeat IPC: 1.066 cumulative IPC: 1.03415 (Simulation time: 0 hr 14 min 47 sec) 
Heartbeat CPU 0 instructions: 530000001 cycles: 460340784 heartbeat IPC: 0.983774 cumulative IPC: 1.03292 (Simulation time: 0 hr 15 min 5 sec) 
Heartbeat CPU 0 instructions: 540000000 cycles: 470839139 heartbeat IPC: 0.95253 cumulative IPC: 1.03094 (Simulation time: 0 hr 15 min 22 sec) 
Heartbeat CPU 0 instructions: 550000003 cycles: 480812737 heartbeat IPC: 1.00265 cumulative IPC: 1.0303 (Simulation time: 0 hr 15 min 40 sec) 
Heartbeat CPU 0 instructions: 560000000 cycles: 490507088 heartbeat IPC: 1.03153 cumulative IPC: 1.03033 (Simulation time: 0 hr 15 min 57 sec) 
Heartbeat CPU 0 instructions: 570000002 cycles: 500010042 heartbeat IPC: 1.0523 cumulative IPC: 1.03078 (Simulation time: 0 hr 16 min 14 sec) 
Heartbeat CPU 0 instructions: 580000000 cycles: 509291361 heartbeat IPC: 1.07743 cumulative IPC: 1.03171 (Simulation time: 0 hr 16 min 32 sec) 
Heartbeat CPU 0 instructions: 590000002 cycles: 518927737 heartbeat IPC: 1.03773 cumulative IPC: 1.03184 (Simulation time: 0 hr 16 min 49 sec) 
Heartbeat CPU 0 instructions: 600000000 cycles: 528088929 heartbeat IPC: 1.09156 cumulative IPC: 1.03297 (Simulation time: 0 hr 17 min 7 sec) 
Finished CPU 0 instructions: 500000000 cycles: 484042843 cumulative IPC: 1.03297 (Simulation time: 0 hr 17 min 7 sec) 

CPU 0 Branch Prediction Accuracy: 97.8526% MPKI: 2.66709
Number of Branches: 62099103 Number of Mispredictions: 1333545
Number of LOAD Instructions: 210576465
Number of LOAD Instructions (ROI): 210576465
Number of STORE Instructions: 16915507
Number of STORE Instructions (ROI): 16915507
Total Destination Memory Operands: 16918869
Total Destination Memory Operands (ROI): 16918869
Total Source Memory Operands: 210576465
Total Source Memory Operands (ROI): 210576465
Number of DEPENDED LOADS: 345312
Number of DEPENDED LOADS (ROI): 345312
Number of SQ_ADDED: 16918826
Number of SQ_ADDED (ROI): 16918826
Number of LQ_ADDED: 210607004
Number of LQ_ADDED (ROI): 210607004
Number of Instructions read from trace: 600000257

ChampSim completed all CPUs

Region of Interest Statistics

CPU 0 cumulative IPC: 1.03297 instructions: 500000000 cycles: 484042843
ITLB TOTAL     ACCESS:   76357887  HIT:   76357849  MISS:         38
ITLB LOAD      ACCESS:   76357887  HIT:   76357849  MISS:         38
ITLB RFO       ACCESS:          0  HIT:          0  MISS:          0
ITLB PREFETCH  ACCESS:          0  HIT:          0  MISS:          0
ITLB WRITEBACK ACCESS:          0  HIT:          0  MISS:          0
ITLB PREFETCH  REQUESTED:          0  ISSUED:          0  USEFUL:          0  USELESS:          0
ITLB TOTAL MSHR MERGED:         37
ITLB LOAD MSHR MERGED:         37
ITLB RFO MSHR MERGED:          0
ITLB PREFETCH MSHR MERGED:          0
ITLB WRITEBACK MSHR MERGED:          0
ITLB TOTAL ACCESSES:   76357924 HITS:   76357849 MISSES:         75
ITLB LOAD ACCESSES:   76357924 HITS:   76357849 MISSES:         75
ITLB RFO ACCESSES:          0 HITS:          0 MISSES:          0
ITLB PREFETCH ACCESSES:          0 HITS:          0 MISSES:          0
ITLB WRITEBACK ACCESSES:          0 HITS:          0 MISSES:          0
ITLB RQ ACCESS:  500000188
ITLB RQ TO_CACHE:   76357925
ITLB RQ MERGED:  423642263
ITLB RQ FORWARD:          0
ITLB WQ ACCESS:          0
ITLB WQ TO_CACHE:          0
ITLB WQ MERGED:          0
ITLB WQ FORWARD:          0
DTLB TOTAL     ACCESS:  136726917  HIT:  136524122  MISS:     202795
DTLB LOAD      ACCESS:  128664880  HIT:  128464806  MISS:     200074
DTLB RFO       ACCESS:    8062037  HIT:    8059316  MISS:       2721
DTLB PREFETCH  ACCESS:          0  HIT:          0  MISS:          0
DTLB WRITEBACK ACCESS:          0  HIT:          0  MISS:          0
DTLB PREFETCH  REQUESTED:          0  ISSUED:          0  USEFUL:          0  USELESS:          0
DTLB TOTAL MSHR MERGED:     448301
DTLB LOAD MSHR MERGED:     444558
DTLB RFO MSHR MERGED:       3743
DTLB PREFETCH MSHR MERGED:          0
DTLB WRITEBACK MSHR MERGED:          0
DTLB TOTAL ACCESSES:  137175218 HITS:  136524122 MISSES:     651096
DTLB LOAD ACCESSES:  129109438 HITS:  128464806 MISSES:     644632
DTLB RFO ACCESSES:    8065780 HITS:    8059316 MISSES:       6464
DTLB PREFETCH ACCESSES:          0 HITS:          0 MISSES:          0
DTLB WRITEBACK ACCESSES:          0 HITS:          0 MISSES:          0
DTLB RQ ACCESS:  189419250
DTLB RQ TO_CACHE:  137175218
DTLB RQ MERGED:   52244032
DTLB RQ FORWARD:          0
DTLB WQ ACCESS:          0
DTLB WQ TO_CACHE:          0
DTLB WQ MERGED:          0
DTLB WQ FORWARD:          0
L1D TOTAL     ACCESS:  125183157  HIT:  107626083  MISS:   17557074
L1D LOAD      ACCESS:   72279484  HIT:   62001254  MISS:   10278230
L1D RFO       ACCESS:   14013722  HIT:   13860885  MISS:     152837
L1D PREFETCH  ACCESS:   38889951  HIT:   31763944  MISS:    7126007
L1D WRITEBACK ACCESS:          0  HIT:          0  MISS:          0
L1D PREFETCH  REQUESTED:   85475467  ISSUED:   84154213  USEFUL:    5866555  USELESS:    1259463
L1D TOTAL MSHR MERGED:   31642202
L1D LOAD MSHR MERGED:   18362682
L1D RFO MSHR MERGED:     266921
L1D PREFETCH MSHR MERGED:   13012599
L1D WRITEBACK MSHR MERGED:          0
L1D TOTAL ACCESSES:  156825850 HITS:  107626575 MISSES:   49199275
L1D LOAD ACCESSES:   85475472 HITS:   62001259 MISSES:   23474213
L1D RFO ACCESSES:   14280614 HITS:   13860885 MISSES:     419729
L1D PREFETCH ACCESSES:   57069764 HITS:   31764431 MISSES:   25305333
L1D WRITEBACK ACCESSES:          0 HITS:          0 MISSES:          0
L1D RQ ACCESS:  175130228
L1D RQ TO_CACHE:   85475467
L1D RQ MERGED:   89654756
L1D RQ FORWARD:          0
L1D WQ ACCESS:   14289037
L1D WQ TO_CACHE:   14280614
L1D WQ MERGED:       8423
L1D WQ FORWARD:        492
L1I TOTAL     ACCESS:   93387342  HIT:   93385546  MISS:       1796
L1I LOAD      ACCESS:   93387342  HIT:   93385546  MISS:       1796
L1I RFO       ACCESS:          0  HIT:          0  MISS:          0
L1I PREFETCH  ACCESS:          0  HIT:          0  MISS:          0
L1I WRITEBACK ACCESS:          0  HIT:          0  MISS:          0
L1I PREFETCH  REQUESTED:          0  ISSUED:          0  USEFUL:          0  USELESS:          0
L1I TOTAL MSHR MERGED:       2338
L1I LOAD MSHR MERGED:       2338
L1I RFO MSHR MERGED:          0
L1I PREFETCH MSHR MERGED:          0
L1I WRITEBACK MSHR MERGED:          0
L1I TOTAL ACCESSES:   93389680 HITS:   93385546 MISSES:       4134
L1I LOAD ACCESSES:   93389680 HITS:   93385546 MISSES:       4134
L1I RFO ACCESSES:          0 HITS:          0 MISSES:          0
L1I PREFETCH ACCESSES:          0 HITS:          0 MISSES:          0
L1I WRITEBACK ACCESSES:          0 HITS:          0 MISSES:          0
L1I RQ ACCESS:  500000187
L1I RQ TO_CACHE:   93389680
L1I RQ MERGED:  406610507
L1I RQ FORWARD:          0
L1I WQ ACCESS:          0
L1I WQ TO_CACHE:          0
L1I WQ MERGED:          0
L1I WQ FORWARD:          0
L2C TOTAL     ACCESS:   20903002  HIT:    8673764  MISS:   12229238
L2C LOAD      ACCESS:    5113304  HIT:    2145789  MISS:    2967515
L2C RFO       ACCESS:     152808  HIT:       6517  MISS:     146291
L2C PREFETCH  ACCESS:   13864138  HIT:    4748816  MISS:    9115322
L2C WRITEBACK ACCESS:    1772752  HIT:    1772642  MISS:        110
L2C PREFETCH  REQUESTED:    1814171  ISSUED:    1814171  USEFUL:    1066184  USELESS:    8050801
L2C TOTAL MSHR MERGED:      97712
L2C LOAD MSHR MERGED:      22432
L2C RFO MSHR MERGED:          0
L2C PREFETCH MSHR MERGED:      75280
L2C WRITEBACK MSHR MERGED:          0
L2C TOTAL ACCESSES:   21025266 HITS:    8673802 MISSES:   12351464
L2C LOAD ACCESSES:    5113327 HITS:    2145812 MISSES:    2967515
L2C RFO ACCESSES:     152808 HITS:       6517 MISSES:     146291
L2C PREFETCH ACCESSES:   13986379 HITS:    4748831 MISSES:    9237548
L2C WRITEBACK ACCESSES:    1772752 HITS:    1772642 MISSES:        110
L2C RQ ACCESS:    5266135
L2C RQ TO_CACHE:    5266112
L2C RQ MERGED:          0
L2C RQ FORWARD:          0
L2C WQ ACCESS:    1772752
L2C WQ TO_CACHE:    1772752
L2C WQ MERGED:          0
L2C WQ FORWARD:         38
LLC TOTAL     ACCESS:   12534115  HIT:    6807607  MISS:    5726508
LLC LOAD      ACCESS:    2945067  HIT:    2476145  MISS:     468922
LLC RFO       ACCESS:     146291  HIT:      81172  MISS:      65119
LLC PREFETCH  ACCESS:    9156776  HIT:    4012406  MISS:    5144370
LLC WRITEBACK ACCESS:     285981  HIT:     237884  MISS:      48097
LLC PREFETCH  REQUESTED:          0  ISSUED:          0  USEFUL:       6886  USELESS:    5137417
LLC TOTAL MSHR MERGED:        905
LLC LOAD MSHR MERGED:        164
LLC RFO MSHR MERGED:          0
LLC PREFETCH MSHR MERGED:        741
LLC WRITEBACK MSHR MERGED:          0
LLC TOTAL ACCESSES:   12535048 HITS:    6807635 MISSES:    5727413
LLC LOAD ACCESSES:    2945083 HITS:    2476161 MISSES:     468922
LLC RFO ACCESSES:     146291 HITS:      81172 MISSES:      65119
LLC PREFETCH ACCESSES:    9157693 HITS:    4012418 MISSES:    5145275
LLC WRITEBACK ACCESSES:     285981 HITS:     237884 MISSES:      48097
LLC 0 RQ ACCESS:    3091374
LLC 0 RQ TO_CACHE:    3091358
LLC 0 RQ MERGED:          0
LLC 0 RQ FORWARD:          0
LLC WQ ACCESS:     285981
LLC WQ TO_CACHE:     285981
LLC WQ MERGED:          0
LLC WQ FORWARD:         28
Major fault: 0 Minor fault: 6524
CPU 0 L1D next line prefetcher final stats
CPU 0 L2C PC-based stride prefetcher final stats
All Misses: 7525669
All Hits: 7533460
SD Algo Stats - Switches: 0 SRR-Repls: 499092 BRR-Repls: 0

DRAM Statistics
 CHANNEL 0
 RQ ROW_BUFFER_HIT:    4885179  ROW_BUFFER_MISS:     786446
 DBUS_CONGESTED:    2056405
 WQ ROW_BUFFER_HIT:      13898  ROW_BUFFER_MISS:      67251  FULL:          0

 AVG_CONGESTED_CYCLE: 12
LOADS RETIRED: 175418235
INSTR RETIRED: 500000000
