
*** ChampSim Multicore Out-of-Order Simulator ***

Warmup Instructions: 100000000
Simulation Instructions: 500000000
Number of CPUs: 1
LLC sets: 2048
LLC ways: 16
Clean RRIP Policies: 1213000112130001 Dirty RRIP Policies: 2213100122131001 PSEL Width: 10 Track Set: 4294967295 PSEL Mask: 1 Demote Mask: 3340201033402010DS Algo: 0Window size: 0
Off-chip DRAM Size: 4096 MB Channels: 1 Width: 64-bit Data Rate: 1600 MT/s

CPU 0 runs /mnt/beegfs/iconst01/spec2017/Mcf.trace.gz
NOT SORTED
TRACE STRING: /mnt/beegfs/iconst01/spec2017/Mcf.trace.gz
SORTED
TRACE STRING: /mnt/beegfs/iconst01/spec2017/Mcf.trace.gz
INITIAL
TRACE STRING: /mnt/beegfs/iconst01/spec2017/Mcf.trace.gz

champsim_seed used: 278

CPU 0 L1D next line prefetcher
CPU 0 L2C IP-based stride prefetcher
Initialize DRRIP state
Assign rand_sets[0]: 454  LLC: 2048
rand_sets[0]: 454
Assign rand_sets[1]: 1662  LLC: 2048
rand_sets[1]: 1662
Assign rand_sets[2]: 1921  LLC: 2048
rand_sets[2]: 1921
Assign rand_sets[3]: 1131  LLC: 2048
rand_sets[3]: 1131
Assign rand_sets[4]: 331  LLC: 2048
rand_sets[4]: 331
Assign rand_sets[5]: 1531  LLC: 2048
rand_sets[5]: 1531
Assign rand_sets[6]: 482  LLC: 2048
rand_sets[6]: 482
Assign rand_sets[7]: 1275  LLC: 2048
rand_sets[7]: 1275
Assign rand_sets[8]: 1876  LLC: 2048
rand_sets[8]: 1876
Assign rand_sets[9]: 2038  LLC: 2048
rand_sets[9]: 2038
Assign rand_sets[10]: 701  LLC: 2048
rand_sets[10]: 701
Assign rand_sets[11]: 479  LLC: 2048
rand_sets[11]: 479
Assign rand_sets[12]: 892  LLC: 2048
rand_sets[12]: 892
Assign rand_sets[13]: 1820  LLC: 2048
rand_sets[13]: 1820
Assign rand_sets[14]: 1505  LLC: 2048
rand_sets[14]: 1505
Assign rand_sets[15]: 1159  LLC: 2048
rand_sets[15]: 1159
Assign rand_sets[16]: 513  LLC: 2048
rand_sets[16]: 513
Assign rand_sets[17]: 703  LLC: 2048
rand_sets[17]: 703
Assign rand_sets[18]: 561  LLC: 2048
rand_sets[18]: 561
Assign rand_sets[19]: 990  LLC: 2048
rand_sets[19]: 990
Assign rand_sets[20]: 342  LLC: 2048
rand_sets[20]: 342
Assign rand_sets[21]: 882  LLC: 2048
rand_sets[21]: 882
Assign rand_sets[22]: 15  LLC: 2048
rand_sets[22]: 15
Assign rand_sets[23]: 71  LLC: 2048
rand_sets[23]: 71
Assign rand_sets[24]: 1127  LLC: 2048
rand_sets[24]: 1127
Assign rand_sets[25]: 1382  LLC: 2048
rand_sets[25]: 1382
Assign rand_sets[26]: 647  LLC: 2048
rand_sets[26]: 647
Assign rand_sets[27]: 857  LLC: 2048
rand_sets[27]: 857
Assign rand_sets[28]: 1450  LLC: 2048
rand_sets[28]: 1450
Assign rand_sets[29]: 1160  LLC: 2048
rand_sets[29]: 1160
Assign rand_sets[30]: 1852  LLC: 2048
rand_sets[30]: 1852
Assign rand_sets[31]: 1881  LLC: 2048
rand_sets[31]: 1881
Assign rand_sets[32]: 1770  LLC: 2048
rand_sets[32]: 1770
Assign rand_sets[33]: 1622  LLC: 2048
rand_sets[33]: 1622
Assign rand_sets[34]: 275  LLC: 2048
rand_sets[34]: 275
Assign rand_sets[35]: 635  LLC: 2048
rand_sets[35]: 635
Assign rand_sets[36]: 466  LLC: 2048
rand_sets[36]: 466
Assign rand_sets[37]: 1413  LLC: 2048
rand_sets[37]: 1413
Assign rand_sets[38]: 417  LLC: 2048
rand_sets[38]: 417
Assign rand_sets[39]: 472  LLC: 2048
rand_sets[39]: 472
Assign rand_sets[40]: 1340  LLC: 2048
rand_sets[40]: 1340
Assign rand_sets[41]: 852  LLC: 2048
rand_sets[41]: 852
Assign rand_sets[42]: 1365  LLC: 2048
rand_sets[42]: 1365
Assign rand_sets[43]: 47  LLC: 2048
rand_sets[43]: 47
Assign rand_sets[44]: 823  LLC: 2048
rand_sets[44]: 823
Assign rand_sets[45]: 686  LLC: 2048
rand_sets[45]: 686
Assign rand_sets[46]: 1637  LLC: 2048
rand_sets[46]: 1637
Assign rand_sets[47]: 1115  LLC: 2048
rand_sets[47]: 1115
Assign rand_sets[48]: 986  LLC: 2048
rand_sets[48]: 986
Assign rand_sets[49]: 258  LLC: 2048
rand_sets[49]: 258
Assign rand_sets[50]: 633  LLC: 2048
rand_sets[50]: 633
Assign rand_sets[51]: 920  LLC: 2048
rand_sets[51]: 920
Assign rand_sets[52]: 204  LLC: 2048
rand_sets[52]: 204
Assign rand_sets[53]: 227  LLC: 2048
rand_sets[53]: 227
Assign rand_sets[54]: 1818  LLC: 2048
rand_sets[54]: 1818
Assign rand_sets[55]: 886  LLC: 2048
rand_sets[55]: 886
Assign rand_sets[56]: 1422  LLC: 2048
rand_sets[56]: 1422
Assign rand_sets[57]: 607  LLC: 2048
rand_sets[57]: 607
Assign rand_sets[58]: 217  LLC: 2048
rand_sets[58]: 217
Assign rand_sets[59]: 1945  LLC: 2048
rand_sets[59]: 1945
Assign rand_sets[60]: 143  LLC: 2048
rand_sets[60]: 143
Assign rand_sets[61]: 1311  LLC: 2048
rand_sets[61]: 1311
Assign rand_sets[62]: 319  LLC: 2048
rand_sets[62]: 319
Assign rand_sets[63]: 1846  LLC: 2048
rand_sets[63]: 1846
 CLEAN-RRIP-POLICY-1: 1-2-1-3-0-0-0-1- CLEAN-RRIP-POLICY-2: 1-2-1-3-0-0-0-1-
 DIRTY-RRIP-POLICY-1: 2-2-1-3-1-0-0-1- DIRTY-RRIP-POLICY-2: 2-2-1-3-1-0-0-1-
 PSEL width: 10
Heartbeat CPU 0 instructions: 10000002 cycles: 6248382 heartbeat IPC: 1.60041 cumulative IPC: 1.60041 (Simulation time: 0 hr 0 min 13 sec) 
Heartbeat CPU 0 instructions: 20000000 cycles: 12468937 heartbeat IPC: 1.60757 cumulative IPC: 1.60399 (Simulation time: 0 hr 0 min 25 sec) 
Heartbeat CPU 0 instructions: 30000000 cycles: 18679011 heartbeat IPC: 1.61029 cumulative IPC: 1.60608 (Simulation time: 0 hr 0 min 38 sec) 
Heartbeat CPU 0 instructions: 40000000 cycles: 24889369 heartbeat IPC: 1.61021 cumulative IPC: 1.60711 (Simulation time: 0 hr 0 min 51 sec) 
Heartbeat CPU 0 instructions: 50000003 cycles: 31101604 heartbeat IPC: 1.60973 cumulative IPC: 1.60763 (Simulation time: 0 hr 1 min 4 sec) 
Heartbeat CPU 0 instructions: 60000000 cycles: 37297591 heartbeat IPC: 1.61395 cumulative IPC: 1.60868 (Simulation time: 0 hr 1 min 16 sec) 
Heartbeat CPU 0 instructions: 70000003 cycles: 43515808 heartbeat IPC: 1.60818 cumulative IPC: 1.60861 (Simulation time: 0 hr 1 min 29 sec) 
Heartbeat CPU 0 instructions: 80000000 cycles: 49746086 heartbeat IPC: 1.60506 cumulative IPC: 1.60817 (Simulation time: 0 hr 1 min 42 sec) 
Heartbeat CPU 0 instructions: 90000000 cycles: 55974862 heartbeat IPC: 1.60545 cumulative IPC: 1.60786 (Simulation time: 0 hr 1 min 55 sec) 
Heartbeat CPU 0 instructions: 100000000 cycles: 62193609 heartbeat IPC: 1.60804 cumulative IPC: 1.60788 (Simulation time: 0 hr 2 min 8 sec) 

Warmup complete CPU 0 instructions: 100000001 cycles: 62193610 (Simulation time: 0 hr 2 min 8 sec) 

Heartbeat CPU 0 instructions: 110000000 cycles: 86768905 heartbeat IPC: 0.406913 cumulative IPC: 0.406913 (Simulation time: 0 hr 2 min 32 sec) 
Heartbeat CPU 0 instructions: 120000000 cycles: 111434452 heartbeat IPC: 0.405424 cumulative IPC: 0.406167 (Simulation time: 0 hr 2 min 56 sec) 
Heartbeat CPU 0 instructions: 130000000 cycles: 136178516 heartbeat IPC: 0.404137 cumulative IPC: 0.405488 (Simulation time: 0 hr 3 min 21 sec) 
Heartbeat CPU 0 instructions: 140000000 cycles: 160880861 heartbeat IPC: 0.40482 cumulative IPC: 0.405321 (Simulation time: 0 hr 3 min 46 sec) 
Heartbeat CPU 0 instructions: 150000003 cycles: 185462800 heartbeat IPC: 0.406803 cumulative IPC: 0.405616 (Simulation time: 0 hr 4 min 10 sec) 
Heartbeat CPU 0 instructions: 160000000 cycles: 210322675 heartbeat IPC: 0.402255 cumulative IPC: 0.405052 (Simulation time: 0 hr 4 min 35 sec) 
Heartbeat CPU 0 instructions: 170000001 cycles: 235047150 heartbeat IPC: 0.404458 cumulative IPC: 0.404967 (Simulation time: 0 hr 4 min 59 sec) 
Heartbeat CPU 0 instructions: 180000000 cycles: 259769143 heartbeat IPC: 0.404498 cumulative IPC: 0.404908 (Simulation time: 0 hr 5 min 24 sec) 
Heartbeat CPU 0 instructions: 190000003 cycles: 284450859 heartbeat IPC: 0.405158 cumulative IPC: 0.404936 (Simulation time: 0 hr 5 min 49 sec) 
Heartbeat CPU 0 instructions: 200000000 cycles: 309174265 heartbeat IPC: 0.404475 cumulative IPC: 0.40489 (Simulation time: 0 hr 6 min 13 sec) 
Heartbeat CPU 0 instructions: 210000003 cycles: 333955706 heartbeat IPC: 0.403528 cumulative IPC: 0.404766 (Simulation time: 0 hr 6 min 38 sec) 
Heartbeat CPU 0 instructions: 220000000 cycles: 358925822 heartbeat IPC: 0.400479 cumulative IPC: 0.404405 (Simulation time: 0 hr 7 min 3 sec) 
Heartbeat CPU 0 instructions: 230000002 cycles: 383555784 heartbeat IPC: 0.40601 cumulative IPC: 0.404528 (Simulation time: 0 hr 7 min 28 sec) 
Heartbeat CPU 0 instructions: 240000000 cycles: 408484834 heartbeat IPC: 0.401138 cumulative IPC: 0.404284 (Simulation time: 0 hr 7 min 53 sec) 
Heartbeat CPU 0 instructions: 250000000 cycles: 433234094 heartbeat IPC: 0.404052 cumulative IPC: 0.404269 (Simulation time: 0 hr 8 min 17 sec) 
Heartbeat CPU 0 instructions: 260000000 cycles: 457947100 heartbeat IPC: 0.404645 cumulative IPC: 0.404292 (Simulation time: 0 hr 8 min 42 sec) 
Heartbeat CPU 0 instructions: 270000001 cycles: 482746212 heartbeat IPC: 0.40324 cumulative IPC: 0.40423 (Simulation time: 0 hr 9 min 7 sec) 
Heartbeat CPU 0 instructions: 280000000 cycles: 507488168 heartbeat IPC: 0.404172 cumulative IPC: 0.404227 (Simulation time: 0 hr 9 min 32 sec) 
Heartbeat CPU 0 instructions: 290000001 cycles: 532312103 heartbeat IPC: 0.402837 cumulative IPC: 0.404153 (Simulation time: 0 hr 9 min 57 sec) 
Heartbeat CPU 0 instructions: 300000000 cycles: 557281492 heartbeat IPC: 0.40049 cumulative IPC: 0.403969 (Simulation time: 0 hr 10 min 21 sec) 
Heartbeat CPU 0 instructions: 310000003 cycles: 581899531 heartbeat IPC: 0.406206 cumulative IPC: 0.404075 (Simulation time: 0 hr 10 min 46 sec) 
Heartbeat CPU 0 instructions: 320000000 cycles: 606882027 heartbeat IPC: 0.40028 cumulative IPC: 0.403901 (Simulation time: 0 hr 11 min 11 sec) 
Heartbeat CPU 0 instructions: 330000003 cycles: 631610793 heartbeat IPC: 0.404387 cumulative IPC: 0.403922 (Simulation time: 0 hr 11 min 36 sec) 
Heartbeat CPU 0 instructions: 340000000 cycles: 656629525 heartbeat IPC: 0.3997 cumulative IPC: 0.403744 (Simulation time: 0 hr 12 min 1 sec) 
Heartbeat CPU 0 instructions: 350000002 cycles: 681619493 heartbeat IPC: 0.400161 cumulative IPC: 0.4036 (Simulation time: 0 hr 12 min 25 sec) 
Heartbeat CPU 0 instructions: 360000000 cycles: 706745382 heartbeat IPC: 0.397996 cumulative IPC: 0.403381 (Simulation time: 0 hr 12 min 50 sec) 
Heartbeat CPU 0 instructions: 370000000 cycles: 731655265 heartbeat IPC: 0.401447 cumulative IPC: 0.403309 (Simulation time: 0 hr 13 min 15 sec) 
Heartbeat CPU 0 instructions: 380000000 cycles: 756380575 heartbeat IPC: 0.404444 cumulative IPC: 0.40335 (Simulation time: 0 hr 13 min 39 sec) 
Heartbeat CPU 0 instructions: 390000002 cycles: 781123465 heartbeat IPC: 0.404157 cumulative IPC: 0.403377 (Simulation time: 0 hr 14 min 4 sec) 
Heartbeat CPU 0 instructions: 400000000 cycles: 806036573 heartbeat IPC: 0.401395 cumulative IPC: 0.403311 (Simulation time: 0 hr 14 min 28 sec) 
Heartbeat CPU 0 instructions: 410000002 cycles: 830857382 heartbeat IPC: 0.402888 cumulative IPC: 0.403297 (Simulation time: 0 hr 14 min 53 sec) 
Heartbeat CPU 0 instructions: 420000000 cycles: 855474158 heartbeat IPC: 0.406227 cumulative IPC: 0.403388 (Simulation time: 0 hr 15 min 17 sec) 
Heartbeat CPU 0 instructions: 430000000 cycles: 880321657 heartbeat IPC: 0.402455 cumulative IPC: 0.40336 (Simulation time: 0 hr 15 min 42 sec) 
Heartbeat CPU 0 instructions: 440000000 cycles: 904877491 heartbeat IPC: 0.407235 cumulative IPC: 0.403473 (Simulation time: 0 hr 16 min 7 sec) 
Heartbeat CPU 0 instructions: 450000000 cycles: 929860080 heartbeat IPC: 0.400279 cumulative IPC: 0.403381 (Simulation time: 0 hr 16 min 32 sec) 
Heartbeat CPU 0 instructions: 460000000 cycles: 954764244 heartbeat IPC: 0.401539 cumulative IPC: 0.403329 (Simulation time: 0 hr 16 min 58 sec) 
Heartbeat CPU 0 instructions: 470000001 cycles: 979460641 heartbeat IPC: 0.404917 cumulative IPC: 0.403372 (Simulation time: 0 hr 17 min 23 sec) 
Heartbeat CPU 0 instructions: 480000000 cycles: 1004331847 heartbeat IPC: 0.402071 cumulative IPC: 0.403338 (Simulation time: 0 hr 17 min 49 sec) 
Heartbeat CPU 0 instructions: 490000000 cycles: 1029302741 heartbeat IPC: 0.400466 cumulative IPC: 0.403264 (Simulation time: 0 hr 18 min 15 sec) 
Heartbeat CPU 0 instructions: 500000000 cycles: 1054594982 heartbeat IPC: 0.395378 cumulative IPC: 0.403063 (Simulation time: 0 hr 18 min 40 sec) 
Heartbeat CPU 0 instructions: 510000003 cycles: 1079757164 heartbeat IPC: 0.397422 cumulative IPC: 0.402923 (Simulation time: 0 hr 19 min 6 sec) 
Heartbeat CPU 0 instructions: 520000000 cycles: 1105081957 heartbeat IPC: 0.39487 cumulative IPC: 0.402728 (Simulation time: 0 hr 19 min 31 sec) 
Heartbeat CPU 0 instructions: 530000003 cycles: 1130434201 heartbeat IPC: 0.394443 cumulative IPC: 0.402531 (Simulation time: 0 hr 19 min 57 sec) 
Heartbeat CPU 0 instructions: 540000000 cycles: 1155696978 heartbeat IPC: 0.395839 cumulative IPC: 0.402376 (Simulation time: 0 hr 20 min 22 sec) 
Heartbeat CPU 0 instructions: 550000000 cycles: 1180970935 heartbeat IPC: 0.395664 cumulative IPC: 0.402225 (Simulation time: 0 hr 20 min 48 sec) 
Heartbeat CPU 0 instructions: 560000000 cycles: 1206563750 heartbeat IPC: 0.390735 cumulative IPC: 0.401968 (Simulation time: 0 hr 21 min 14 sec) 
Heartbeat CPU 0 instructions: 570000001 cycles: 1232080060 heartbeat IPC: 0.391906 cumulative IPC: 0.401748 (Simulation time: 0 hr 21 min 39 sec) 
Heartbeat CPU 0 instructions: 580000000 cycles: 1257607406 heartbeat IPC: 0.391737 cumulative IPC: 0.401535 (Simulation time: 0 hr 22 min 5 sec) 
Heartbeat CPU 0 instructions: 590000000 cycles: 1283284255 heartbeat IPC: 0.389456 cumulative IPC: 0.401281 (Simulation time: 0 hr 22 min 31 sec) 
Heartbeat CPU 0 instructions: 600000000 cycles: 1309042412 heartbeat IPC: 0.388227 cumulative IPC: 0.401011 (Simulation time: 0 hr 22 min 56 sec) 
Finished CPU 0 instructions: 500000003 cycles: 1246848815 cumulative IPC: 0.401011 (Simulation time: 0 hr 22 min 56 sec) 

CPU 0 Branch Prediction Accuracy: 91.1342% MPKI: 18.7968
Number of Branches: 106006945 Number of Mispredictions: 9398408
Number of LOAD Instructions: 207894007
Number of LOAD Instructions (ROI): 207894007
Number of STORE Instructions: 54285997
Number of STORE Instructions (ROI): 54285997
Total Destination Memory Operands: 57463404
Total Destination Memory Operands (ROI): 57463404
Total Source Memory Operands: 207894007
Total Source Memory Operands (ROI): 207894007
Number of DEPENDED LOADS: 18106132
Number of DEPENDED LOADS (ROI): 18106132
Number of SQ_ADDED: 57463404
Number of SQ_ADDED (ROI): 57463404
Number of LQ_ADDED: 209237736
Number of LQ_ADDED (ROI): 209237736
Number of Instructions read from trace: 600000039

ChampSim completed all CPUs

Region of Interest Statistics

CPU 0 cumulative IPC: 0.401011 instructions: 500000003 cycles: 1246848815
ITLB TOTAL     ACCESS:   96420442  HIT:   96420442  MISS:          0
ITLB LOAD      ACCESS:   96420442  HIT:   96420442  MISS:          0
ITLB RFO       ACCESS:          0  HIT:          0  MISS:          0
ITLB PREFETCH  ACCESS:          0  HIT:          0  MISS:          0
ITLB WRITEBACK ACCESS:          0  HIT:          0  MISS:          0
ITLB PREFETCH  REQUESTED:          0  ISSUED:          0  USEFUL:          0  USELESS:          0
ITLB TOTAL MSHR MERGED:          0
ITLB LOAD MSHR MERGED:          0
ITLB RFO MSHR MERGED:          0
ITLB PREFETCH MSHR MERGED:          0
ITLB WRITEBACK MSHR MERGED:          0
ITLB TOTAL ACCESSES:   96420442 HITS:   96420442 MISSES:          0
ITLB LOAD ACCESSES:   96420442 HITS:   96420442 MISSES:          0
ITLB RFO ACCESSES:          0 HITS:          0 MISSES:          0
ITLB PREFETCH ACCESSES:          0 HITS:          0 MISSES:          0
ITLB WRITEBACK ACCESSES:          0 HITS:          0 MISSES:          0
ITLB RQ ACCESS:  499999980
ITLB RQ TO_CACHE:   96420442
ITLB RQ MERGED:  403579538
ITLB RQ FORWARD:          0
ITLB WQ ACCESS:          0
ITLB WQ TO_CACHE:          0
ITLB WQ MERGED:          0
ITLB WQ FORWARD:          0
DTLB TOTAL     ACCESS:  155173184  HIT:  150261081  MISS:    4912103
DTLB LOAD      ACCESS:  117722577  HIT:  113332166  MISS:    4390411
DTLB RFO       ACCESS:   37450607  HIT:   36928915  MISS:     521692
DTLB PREFETCH  ACCESS:          0  HIT:          0  MISS:          0
DTLB WRITEBACK ACCESS:          0  HIT:          0  MISS:          0
DTLB PREFETCH  REQUESTED:          0  ISSUED:          0  USEFUL:          0  USELESS:          0
DTLB TOTAL MSHR MERGED:     453026
DTLB LOAD MSHR MERGED:     161597
DTLB RFO MSHR MERGED:     291429
DTLB PREFETCH MSHR MERGED:          0
DTLB WRITEBACK MSHR MERGED:          0
DTLB TOTAL ACCESSES:  155626210 HITS:  150261081 MISSES:    5365129
DTLB LOAD ACCESSES:  117884174 HITS:  113332166 MISSES:    4552008
DTLB RFO ACCESSES:   37742036 HITS:   36928915 MISSES:     813121
DTLB PREFETCH ACCESSES:          0 HITS:          0 MISSES:          0
DTLB WRITEBACK ACCESSES:          0 HITS:          0 MISSES:          0
DTLB RQ ACCESS:  205976808
DTLB RQ TO_CACHE:  155626210
DTLB RQ MERGED:   50350598
DTLB RQ FORWARD:          0
DTLB WQ ACCESS:          0
DTLB WQ TO_CACHE:          0
DTLB WQ MERGED:          0
DTLB WQ FORWARD:          0
L1D TOTAL     ACCESS:  277178663  HIT:  242356217  MISS:   34822446
L1D LOAD      ACCESS:  125414594  HIT:  107774592  MISS:   17640002
L1D RFO       ACCESS:   41135739  HIT:   38823905  MISS:    2311834
L1D PREFETCH  ACCESS:  110628330  HIT:   95757720  MISS:   14870610
L1D WRITEBACK ACCESS:          0  HIT:          0  MISS:          0
L1D PREFETCH  REQUESTED:  126271176  ISSUED:  124751965  USEFUL:    2704676  USELESS:   12165960
L1D TOTAL MSHR MERGED:    8488600
L1D LOAD MSHR MERGED:    1548318
L1D RFO MSHR MERGED:    3768885
L1D PREFETCH MSHR MERGED:    3171397
L1D WRITEBACK MSHR MERGED:          0
L1D TOTAL ACCESSES:  285754548 HITS:  242443500 MISSES:   43311048
L1D LOAD ACCESSES:  126271210 HITS:  107774626 MISSES:   18496584
L1D RFO ACCESSES:   44904129 HITS:   38823905 MISSES:    6080224
L1D PREFETCH ACCESSES:  114579209 HITS:   95844969 MISSES:   18734240
L1D WRITEBACK ACCESSES:          0 HITS:          0 MISSES:          0
L1D RQ ACCESS:  158429927
L1D RQ TO_CACHE:  126271176
L1D RQ MERGED:   32158717
L1D RQ FORWARD:          0
L1D WQ ACCESS:   47546882
L1D WQ TO_CACHE:   44904129
L1D WQ MERGED:    2642753
L1D WQ FORWARD:      87283
L1I TOTAL     ACCESS:  132830021  HIT:  132830021  MISS:          0
L1I LOAD      ACCESS:  132830021  HIT:  132830021  MISS:          0
L1I RFO       ACCESS:          0  HIT:          0  MISS:          0
L1I PREFETCH  ACCESS:          0  HIT:          0  MISS:          0
L1I WRITEBACK ACCESS:          0  HIT:          0  MISS:          0
L1I PREFETCH  REQUESTED:          0  ISSUED:          0  USEFUL:          0  USELESS:          0
L1I TOTAL MSHR MERGED:          0
L1I LOAD MSHR MERGED:          0
L1I RFO MSHR MERGED:          0
L1I PREFETCH MSHR MERGED:          0
L1I WRITEBACK MSHR MERGED:          0
L1I TOTAL ACCESSES:  132830021 HITS:  132830021 MISSES:          0
L1I LOAD ACCESSES:  132830021 HITS:  132830021 MISSES:          0
L1I RFO ACCESSES:          0 HITS:          0 MISSES:          0
L1I PREFETCH ACCESSES:          0 HITS:          0 MISSES:          0
L1I WRITEBACK ACCESSES:          0 HITS:          0 MISSES:          0
L1I RQ ACCESS:  499999980
L1I RQ TO_CACHE:  132830021
L1I RQ MERGED:  367169959
L1I RQ FORWARD:          0
L1I WQ ACCESS:          0
L1I WQ TO_CACHE:          0
L1I WQ MERGED:          0
L1I WQ FORWARD:          0
L2C TOTAL     ACCESS:   39597714  HIT:   20628355  MISS:   18969359
L2C LOAD      ACCESS:   16948204  HIT:    8568106  MISS:    8380098
L2C RFO       ACCESS:    2311283  HIT:     630828  MISS:    1680455
L2C PREFETCH  ACCESS:   17115786  HIT:    8210731  MISS:    8905055
L2C WRITEBACK ACCESS:    3222441  HIT:    3218690  MISS:       3751
L2C PREFETCH  REQUESTED:    2882137  ISSUED:    2882137  USEFUL:    1307412  USELESS:    7597389
L2C TOTAL MSHR MERGED:     532907
L2C LOAD MSHR MERGED:      89771
L2C RFO MSHR MERGED:          0
L2C PREFETCH MSHR MERGED:     443136
L2C WRITEBACK MSHR MERGED:          0
L2C TOTAL ACCESSES:   40247144 HITS:   20628526 MISSES:   19618618
L2C LOAD ACCESSES:   16948266 HITS:    8568168 MISSES:    8380098
L2C RFO ACCESSES:    2311339 HITS:     630884 MISSES:    1680455
L2C PREFETCH ACCESSES:   17765098 HITS:    8210784 MISSES:    9554314
L2C WRITEBACK ACCESSES:    3222441 HITS:    3218690 MISSES:       3751
L2C RQ ACCESS:   19259605
L2C RQ TO_CACHE:   19259487
L2C RQ MERGED:          0
L2C RQ FORWARD:          0
L2C WQ ACCESS:    3222441
L2C WQ TO_CACHE:    3222441
L2C WQ MERGED:          0
L2C WQ FORWARD:        171
LLC TOTAL     ACCESS:   21199043  HIT:   14065043  MISS:    7134000
LLC LOAD      ACCESS:    8290300  HIT:    5782446  MISS:    2507854
LLC RFO       ACCESS:    1680372  HIT:    1668920  MISS:      11452
LLC PREFETCH  ACCESS:    9052703  HIT:    4439439  MISS:    4613264
LLC WRITEBACK ACCESS:    2175668  HIT:    2174238  MISS:       1430
LLC PREFETCH  REQUESTED:          0  ISSUED:          0  USEFUL:     202026  USELESS:    4413603
LLC TOTAL MSHR MERGED:      49321
LLC LOAD MSHR MERGED:      15509
LLC RFO MSHR MERGED:          0
LLC PREFETCH MSHR MERGED:      33812
LLC WRITEBACK MSHR MERGED:          0
LLC TOTAL ACCESSES:   21248505 HITS:   14065182 MISSES:    7183323
LLC LOAD ACCESSES:    8290327 HITS:    5782473 MISSES:    2507854
LLC RFO ACCESSES:    1680455 HITS:    1669003 MISSES:      11452
LLC PREFETCH ACCESSES:    9102055 HITS:    4439468 MISSES:    4662587
LLC WRITEBACK ACCESSES:    2175668 HITS:    2174238 MISSES:       1430
LLC 0 RQ ACCESS:    9970782
LLC 0 RQ TO_CACHE:    9970672
LLC 0 RQ MERGED:          0
LLC 0 RQ FORWARD:          0
LLC WQ ACCESS:    2175669
LLC WQ TO_CACHE:    2175669
LLC WQ MERGED:          0
LLC WQ FORWARD:        139
Major fault: 0 Minor fault: 56391
CPU 0 L1D next line prefetcher final stats
CPU 0 L2C PC-based stride prefetcher final stats
All Misses: 8376338
All Hits: 16199550
SD Algo Stats - Switches: 0 SRR-Repls: 2630569 BRR-Repls: 0

DRAM Statistics
 CHANNEL 0
 RQ ROW_BUFFER_HIT:    4572229  ROW_BUFFER_MISS:    2544920
 DBUS_CONGESTED:    3317115
 WQ ROW_BUFFER_HIT:        880  ROW_BUFFER_MISS:      27083  FULL:          0

 AVG_CONGESTED_CYCLE: 12
LOADS RETIRED: 173631671
INSTR RETIRED: 500000000
