
*** ChampSim Multicore Out-of-Order Simulator ***

Warmup Instructions: 100000000
Simulation Instructions: 500000000
Number of CPUs: 1
LLC sets: 2048
LLC ways: 16
Clean RRIP Policies: 1212131112121311 Dirty RRIP Policies: 2212131122121311 PSEL Width: 10 Track Set: 4294967295 PSEL Mask: 1 Demote Mask: 1313324313133243DS Algo: 0Window size: 0
Off-chip DRAM Size: 4096 MB Channels: 1 Width: 64-bit Data Rate: 1600 MT/s

CPU 0 runs /mnt/beegfs/iconst01/spec2017/Wrf.trace.gz
NOT SORTED
TRACE STRING: /mnt/beegfs/iconst01/spec2017/Wrf.trace.gz
SORTED
TRACE STRING: /mnt/beegfs/iconst01/spec2017/Wrf.trace.gz
INITIAL
TRACE STRING: /mnt/beegfs/iconst01/spec2017/Wrf.trace.gz

champsim_seed used: 303

CPU 0 L1D next line prefetcher
CPU 0 L2C IP-based stride prefetcher
Initialize DRRIP state
Assign rand_sets[0]: 454  LLC: 2048
rand_sets[0]: 454
Assign rand_sets[1]: 1662  LLC: 2048
rand_sets[1]: 1662
Assign rand_sets[2]: 1921  LLC: 2048
rand_sets[2]: 1921
Assign rand_sets[3]: 1131  LLC: 2048
rand_sets[3]: 1131
Assign rand_sets[4]: 331  LLC: 2048
rand_sets[4]: 331
Assign rand_sets[5]: 1531  LLC: 2048
rand_sets[5]: 1531
Assign rand_sets[6]: 482  LLC: 2048
rand_sets[6]: 482
Assign rand_sets[7]: 1275  LLC: 2048
rand_sets[7]: 1275
Assign rand_sets[8]: 1876  LLC: 2048
rand_sets[8]: 1876
Assign rand_sets[9]: 2038  LLC: 2048
rand_sets[9]: 2038
Assign rand_sets[10]: 701  LLC: 2048
rand_sets[10]: 701
Assign rand_sets[11]: 479  LLC: 2048
rand_sets[11]: 479
Assign rand_sets[12]: 892  LLC: 2048
rand_sets[12]: 892
Assign rand_sets[13]: 1820  LLC: 2048
rand_sets[13]: 1820
Assign rand_sets[14]: 1505  LLC: 2048
rand_sets[14]: 1505
Assign rand_sets[15]: 1159  LLC: 2048
rand_sets[15]: 1159
Assign rand_sets[16]: 513  LLC: 2048
rand_sets[16]: 513
Assign rand_sets[17]: 703  LLC: 2048
rand_sets[17]: 703
Assign rand_sets[18]: 561  LLC: 2048
rand_sets[18]: 561
Assign rand_sets[19]: 990  LLC: 2048
rand_sets[19]: 990
Assign rand_sets[20]: 342  LLC: 2048
rand_sets[20]: 342
Assign rand_sets[21]: 882  LLC: 2048
rand_sets[21]: 882
Assign rand_sets[22]: 15  LLC: 2048
rand_sets[22]: 15
Assign rand_sets[23]: 71  LLC: 2048
rand_sets[23]: 71
Assign rand_sets[24]: 1127  LLC: 2048
rand_sets[24]: 1127
Assign rand_sets[25]: 1382  LLC: 2048
rand_sets[25]: 1382
Assign rand_sets[26]: 647  LLC: 2048
rand_sets[26]: 647
Assign rand_sets[27]: 857  LLC: 2048
rand_sets[27]: 857
Assign rand_sets[28]: 1450  LLC: 2048
rand_sets[28]: 1450
Assign rand_sets[29]: 1160  LLC: 2048
rand_sets[29]: 1160
Assign rand_sets[30]: 1852  LLC: 2048
rand_sets[30]: 1852
Assign rand_sets[31]: 1881  LLC: 2048
rand_sets[31]: 1881
Assign rand_sets[32]: 1770  LLC: 2048
rand_sets[32]: 1770
Assign rand_sets[33]: 1622  LLC: 2048
rand_sets[33]: 1622
Assign rand_sets[34]: 275  LLC: 2048
rand_sets[34]: 275
Assign rand_sets[35]: 635  LLC: 2048
rand_sets[35]: 635
Assign rand_sets[36]: 466  LLC: 2048
rand_sets[36]: 466
Assign rand_sets[37]: 1413  LLC: 2048
rand_sets[37]: 1413
Assign rand_sets[38]: 417  LLC: 2048
rand_sets[38]: 417
Assign rand_sets[39]: 472  LLC: 2048
rand_sets[39]: 472
Assign rand_sets[40]: 1340  LLC: 2048
rand_sets[40]: 1340
Assign rand_sets[41]: 852  LLC: 2048
rand_sets[41]: 852
Assign rand_sets[42]: 1365  LLC: 2048
rand_sets[42]: 1365
Assign rand_sets[43]: 47  LLC: 2048
rand_sets[43]: 47
Assign rand_sets[44]: 823  LLC: 2048
rand_sets[44]: 823
Assign rand_sets[45]: 686  LLC: 2048
rand_sets[45]: 686
Assign rand_sets[46]: 1637  LLC: 2048
rand_sets[46]: 1637
Assign rand_sets[47]: 1115  LLC: 2048
rand_sets[47]: 1115
Assign rand_sets[48]: 986  LLC: 2048
rand_sets[48]: 986
Assign rand_sets[49]: 258  LLC: 2048
rand_sets[49]: 258
Assign rand_sets[50]: 633  LLC: 2048
rand_sets[50]: 633
Assign rand_sets[51]: 920  LLC: 2048
rand_sets[51]: 920
Assign rand_sets[52]: 204  LLC: 2048
rand_sets[52]: 204
Assign rand_sets[53]: 227  LLC: 2048
rand_sets[53]: 227
Assign rand_sets[54]: 1818  LLC: 2048
rand_sets[54]: 1818
Assign rand_sets[55]: 886  LLC: 2048
rand_sets[55]: 886
Assign rand_sets[56]: 1422  LLC: 2048
rand_sets[56]: 1422
Assign rand_sets[57]: 607  LLC: 2048
rand_sets[57]: 607
Assign rand_sets[58]: 217  LLC: 2048
rand_sets[58]: 217
Assign rand_sets[59]: 1945  LLC: 2048
rand_sets[59]: 1945
Assign rand_sets[60]: 143  LLC: 2048
rand_sets[60]: 143
Assign rand_sets[61]: 1311  LLC: 2048
rand_sets[61]: 1311
Assign rand_sets[62]: 319  LLC: 2048
rand_sets[62]: 319
Assign rand_sets[63]: 1846  LLC: 2048
rand_sets[63]: 1846
 CLEAN-RRIP-POLICY-1: 1-2-1-2-1-3-1-1- CLEAN-RRIP-POLICY-2: 1-2-1-2-1-3-1-1-
 DIRTY-RRIP-POLICY-1: 2-2-1-2-1-3-1-1- DIRTY-RRIP-POLICY-2: 2-2-1-2-1-3-1-1-
 PSEL width: 10
Heartbeat CPU 0 instructions: 10000002 cycles: 6559553 heartbeat IPC: 1.52449 cumulative IPC: 1.52449 (Simulation time: 0 hr 0 min 22 sec) 
Heartbeat CPU 0 instructions: 20000000 cycles: 12222094 heartbeat IPC: 1.76599 cumulative IPC: 1.63638 (Simulation time: 0 hr 0 min 42 sec) 
Heartbeat CPU 0 instructions: 30000003 cycles: 18203936 heartbeat IPC: 1.67173 cumulative IPC: 1.648 (Simulation time: 0 hr 1 min 3 sec) 
Heartbeat CPU 0 instructions: 40000000 cycles: 24059264 heartbeat IPC: 1.70785 cumulative IPC: 1.66256 (Simulation time: 0 hr 1 min 24 sec) 
Heartbeat CPU 0 instructions: 50000000 cycles: 29528099 heartbeat IPC: 1.82854 cumulative IPC: 1.6933 (Simulation time: 0 hr 1 min 44 sec) 
Heartbeat CPU 0 instructions: 60000000 cycles: 35640998 heartbeat IPC: 1.63589 cumulative IPC: 1.68345 (Simulation time: 0 hr 2 min 6 sec) 
Heartbeat CPU 0 instructions: 70000000 cycles: 41360705 heartbeat IPC: 1.74834 cumulative IPC: 1.69243 (Simulation time: 0 hr 2 min 26 sec) 
Heartbeat CPU 0 instructions: 80000000 cycles: 47231650 heartbeat IPC: 1.7033 cumulative IPC: 1.69378 (Simulation time: 0 hr 2 min 47 sec) 
Heartbeat CPU 0 instructions: 90000000 cycles: 52985241 heartbeat IPC: 1.73804 cumulative IPC: 1.69859 (Simulation time: 0 hr 3 min 8 sec) 
Heartbeat CPU 0 instructions: 100000000 cycles: 58538267 heartbeat IPC: 1.80082 cumulative IPC: 1.70828 (Simulation time: 0 hr 3 min 28 sec) 

Warmup complete CPU 0 instructions: 100000004 cycles: 58538269 (Simulation time: 0 hr 3 min 28 sec) 

Heartbeat CPU 0 instructions: 110000001 cycles: 73030252 heartbeat IPC: 0.690037 cumulative IPC: 0.690036 (Simulation time: 0 hr 3 min 54 sec) 
Heartbeat CPU 0 instructions: 120000000 cycles: 86683225 heartbeat IPC: 0.732441 cumulative IPC: 0.710607 (Simulation time: 0 hr 4 min 21 sec) 
Heartbeat CPU 0 instructions: 130000000 cycles: 97873592 heartbeat IPC: 0.893626 cumulative IPC: 0.762673 (Simulation time: 0 hr 4 min 44 sec) 
Heartbeat CPU 0 instructions: 140000000 cycles: 110410597 heartbeat IPC: 0.797639 cumulative IPC: 0.771124 (Simulation time: 0 hr 5 min 9 sec) 
Heartbeat CPU 0 instructions: 150000002 cycles: 123067597 heartbeat IPC: 0.790077 cumulative IPC: 0.774841 (Simulation time: 0 hr 5 min 34 sec) 
Heartbeat CPU 0 instructions: 160000000 cycles: 133020710 heartbeat IPC: 1.00471 cumulative IPC: 0.805559 (Simulation time: 0 hr 5 min 57 sec) 
Heartbeat CPU 0 instructions: 170000003 cycles: 145740013 heartbeat IPC: 0.786207 cumulative IPC: 0.802736 (Simulation time: 0 hr 6 min 21 sec) 
Heartbeat CPU 0 instructions: 180000000 cycles: 159260454 heartbeat IPC: 0.739621 cumulative IPC: 0.794264 (Simulation time: 0 hr 6 min 47 sec) 
Heartbeat CPU 0 instructions: 190000000 cycles: 174368983 heartbeat IPC: 0.661878 cumulative IPC: 0.776996 (Simulation time: 0 hr 7 min 11 sec) 
Heartbeat CPU 0 instructions: 200000000 cycles: 189489189 heartbeat IPC: 0.661367 cumulative IPC: 0.763645 (Simulation time: 0 hr 7 min 36 sec) 
Heartbeat CPU 0 instructions: 210000000 cycles: 204573586 heartbeat IPC: 0.662937 cumulative IPC: 0.753242 (Simulation time: 0 hr 8 min 0 sec) 
Heartbeat CPU 0 instructions: 220000000 cycles: 219558718 heartbeat IPC: 0.667328 cumulative IPC: 0.745247 (Simulation time: 0 hr 8 min 26 sec) 
Heartbeat CPU 0 instructions: 230000003 cycles: 238335719 heartbeat IPC: 0.532567 cumulative IPC: 0.723036 (Simulation time: 0 hr 8 min 55 sec) 
Heartbeat CPU 0 instructions: 240000000 cycles: 247949108 heartbeat IPC: 1.04022 cumulative IPC: 0.739134 (Simulation time: 0 hr 9 min 17 sec) 
Heartbeat CPU 0 instructions: 250000002 cycles: 257637353 heartbeat IPC: 1.03218 cumulative IPC: 0.753394 (Simulation time: 0 hr 9 min 40 sec) 
Heartbeat CPU 0 instructions: 260000000 cycles: 268045829 heartbeat IPC: 0.960755 cumulative IPC: 0.763696 (Simulation time: 0 hr 10 min 2 sec) 
Heartbeat CPU 0 instructions: 270000000 cycles: 278329083 heartbeat IPC: 0.972455 cumulative IPC: 0.773463 (Simulation time: 0 hr 10 min 26 sec) 
Heartbeat CPU 0 instructions: 280000000 cycles: 288076200 heartbeat IPC: 1.02594 cumulative IPC: 0.784184 (Simulation time: 0 hr 10 min 50 sec) 
Heartbeat CPU 0 instructions: 290000000 cycles: 298234906 heartbeat IPC: 0.984377 cumulative IPC: 0.792669 (Simulation time: 0 hr 11 min 15 sec) 
Heartbeat CPU 0 instructions: 300000000 cycles: 306985066 heartbeat IPC: 1.14284 cumulative IPC: 0.805001 (Simulation time: 0 hr 11 min 37 sec) 
Heartbeat CPU 0 instructions: 310000002 cycles: 321444629 heartbeat IPC: 0.691584 cumulative IPC: 0.798763 (Simulation time: 0 hr 12 min 4 sec) 
Heartbeat CPU 0 instructions: 320000000 cycles: 337362020 heartbeat IPC: 0.628244 cumulative IPC: 0.789029 (Simulation time: 0 hr 12 min 32 sec) 
Heartbeat CPU 0 instructions: 330000002 cycles: 347660069 heartbeat IPC: 0.971058 cumulative IPC: 0.795512 (Simulation time: 0 hr 12 min 56 sec) 
Heartbeat CPU 0 instructions: 340000000 cycles: 358322914 heartbeat IPC: 0.937836 cumulative IPC: 0.800575 (Simulation time: 0 hr 13 min 20 sec) 
Heartbeat CPU 0 instructions: 350000002 cycles: 372091325 heartbeat IPC: 0.7263 cumulative IPC: 0.797313 (Simulation time: 0 hr 13 min 47 sec) 
Heartbeat CPU 0 instructions: 360000000 cycles: 383534645 heartbeat IPC: 0.873872 cumulative IPC: 0.800009 (Simulation time: 0 hr 14 min 11 sec) 
Heartbeat CPU 0 instructions: 370000002 cycles: 394142611 heartbeat IPC: 0.942688 cumulative IPC: 0.804519 (Simulation time: 0 hr 14 min 35 sec) 
Heartbeat CPU 0 instructions: 380000000 cycles: 404861757 heartbeat IPC: 0.93291 cumulative IPC: 0.808493 (Simulation time: 0 hr 14 min 59 sec) 
Heartbeat CPU 0 instructions: 390000003 cycles: 422667628 heartbeat IPC: 0.561613 cumulative IPC: 0.79642 (Simulation time: 0 hr 15 min 29 sec) 
Heartbeat CPU 0 instructions: 400000000 cycles: 436273084 heartbeat IPC: 0.734999 cumulative IPC: 0.794208 (Simulation time: 0 hr 15 min 53 sec) 
Heartbeat CPU 0 instructions: 410000002 cycles: 448855989 heartbeat IPC: 0.794729 cumulative IPC: 0.794225 (Simulation time: 0 hr 16 min 17 sec) 
Heartbeat CPU 0 instructions: 420000000 cycles: 461398604 heartbeat IPC: 0.797282 cumulative IPC: 0.79432 (Simulation time: 0 hr 16 min 41 sec) 
Heartbeat CPU 0 instructions: 430000003 cycles: 473958655 heartbeat IPC: 0.796175 cumulative IPC: 0.794376 (Simulation time: 0 hr 17 min 5 sec) 
Heartbeat CPU 0 instructions: 440000000 cycles: 487412826 heartbeat IPC: 0.743264 cumulative IPC: 0.792773 (Simulation time: 0 hr 17 min 30 sec) 
Heartbeat CPU 0 instructions: 450000002 cycles: 502525120 heartbeat IPC: 0.661713 cumulative IPC: 0.788312 (Simulation time: 0 hr 17 min 54 sec) 
Heartbeat CPU 0 instructions: 460000000 cycles: 517638732 heartbeat IPC: 0.661655 cumulative IPC: 0.784142 (Simulation time: 0 hr 18 min 18 sec) 
Heartbeat CPU 0 instructions: 470000003 cycles: 532721342 heartbeat IPC: 0.663015 cumulative IPC: 0.780289 (Simulation time: 0 hr 18 min 42 sec) 
Heartbeat CPU 0 instructions: 480000000 cycles: 547766491 heartbeat IPC: 0.664666 cumulative IPC: 0.776734 (Simulation time: 0 hr 19 min 8 sec) 
Heartbeat CPU 0 instructions: 490000002 cycles: 566621416 heartbeat IPC: 0.530366 cumulative IPC: 0.767591 (Simulation time: 0 hr 19 min 37 sec) 
Heartbeat CPU 0 instructions: 500000000 cycles: 576167969 heartbeat IPC: 1.0475 cumulative IPC: 0.772753 (Simulation time: 0 hr 19 min 59 sec) 
Heartbeat CPU 0 instructions: 510000002 cycles: 585900599 heartbeat IPC: 1.02747 cumulative IPC: 0.777454 (Simulation time: 0 hr 20 min 21 sec) 
Heartbeat CPU 0 instructions: 520000000 cycles: 596293518 heartbeat IPC: 0.962193 cumulative IPC: 0.781024 (Simulation time: 0 hr 20 min 44 sec) 
Heartbeat CPU 0 instructions: 530000002 cycles: 606641508 heartbeat IPC: 0.966371 cumulative IPC: 0.784524 (Simulation time: 0 hr 21 min 7 sec) 
Heartbeat CPU 0 instructions: 540000000 cycles: 616325523 heartbeat IPC: 1.03263 cumulative IPC: 0.788831 (Simulation time: 0 hr 21 min 31 sec) 
Heartbeat CPU 0 instructions: 550000002 cycles: 626519401 heartbeat IPC: 0.980981 cumulative IPC: 0.79228 (Simulation time: 0 hr 21 min 55 sec) 
Heartbeat CPU 0 instructions: 560000000 cycles: 635276140 heartbeat IPC: 1.14198 cumulative IPC: 0.797589 (Simulation time: 0 hr 22 min 17 sec) 
Heartbeat CPU 0 instructions: 570000001 cycles: 649589506 heartbeat IPC: 0.698648 cumulative IPC: 0.795193 (Simulation time: 0 hr 22 min 44 sec) 
Heartbeat CPU 0 instructions: 580000000 cycles: 665648478 heartbeat IPC: 0.622705 cumulative IPC: 0.790631 (Simulation time: 0 hr 23 min 13 sec) 
Heartbeat CPU 0 instructions: 590000002 cycles: 675575280 heartbeat IPC: 1.00737 cumulative IPC: 0.794118 (Simulation time: 0 hr 23 min 36 sec) 
Heartbeat CPU 0 instructions: 600000000 cycles: 686621350 heartbeat IPC: 0.905299 cumulative IPC: 0.796073 (Simulation time: 0 hr 24 min 0 sec) 
Finished CPU 0 instructions: 500000000 cycles: 628083100 cumulative IPC: 0.796073 (Simulation time: 0 hr 24 min 0 sec) 

CPU 0 Branch Prediction Accuracy: 99.5219% MPKI: 0.251582
Number of Branches: 26312578 Number of Mispredictions: 125791
Number of LOAD Instructions: 235643083
Number of LOAD Instructions (ROI): 235643083
Number of STORE Instructions: 37593550
Number of STORE Instructions (ROI): 37593550
Total Destination Memory Operands: 40480968
Total Destination Memory Operands (ROI): 40480968
Total Source Memory Operands: 235643083
Total Source Memory Operands (ROI): 235643083
Number of DEPENDED LOADS: 6701854
Number of DEPENDED LOADS (ROI): 6701854
Number of SQ_ADDED: 40480950
Number of SQ_ADDED (ROI): 40480950
Number of LQ_ADDED: 395290488
Number of LQ_ADDED (ROI): 395290488
Number of Instructions read from trace: 600000259

ChampSim completed all CPUs

Region of Interest Statistics

CPU 0 cumulative IPC: 0.796073 instructions: 500000000 cycles: 628083100
ITLB TOTAL     ACCESS:  109475714  HIT:  109475201  MISS:        513
ITLB LOAD      ACCESS:  109475714  HIT:  109475201  MISS:        513
ITLB RFO       ACCESS:          0  HIT:          0  MISS:          0
ITLB PREFETCH  ACCESS:          0  HIT:          0  MISS:          0
ITLB WRITEBACK ACCESS:          0  HIT:          0  MISS:          0
ITLB PREFETCH  REQUESTED:          0  ISSUED:          0  USEFUL:          0  USELESS:          0
ITLB TOTAL MSHR MERGED:        972
ITLB LOAD MSHR MERGED:        972
ITLB RFO MSHR MERGED:          0
ITLB PREFETCH MSHR MERGED:          0
ITLB WRITEBACK MSHR MERGED:          0
ITLB TOTAL ACCESSES:  109476686 HITS:  109475201 MISSES:       1485
ITLB LOAD ACCESSES:  109476686 HITS:  109475201 MISSES:       1485
ITLB RFO ACCESSES:          0 HITS:          0 MISSES:          0
ITLB PREFETCH ACCESSES:          0 HITS:          0 MISSES:          0
ITLB WRITEBACK ACCESSES:          0 HITS:          0 MISSES:          0
ITLB RQ ACCESS:  500000003
ITLB RQ TO_CACHE:  109476686
ITLB RQ MERGED:  390523317
ITLB RQ FORWARD:          0
ITLB WQ ACCESS:          0
ITLB WQ TO_CACHE:          0
ITLB WQ MERGED:          0
ITLB WQ FORWARD:          0
DTLB TOTAL     ACCESS:  130409085  HIT:  130151424  MISS:     257661
DTLB LOAD      ACCESS:  109101909  HIT:  108881062  MISS:     220847
DTLB RFO       ACCESS:   21307176  HIT:   21270362  MISS:      36814
DTLB PREFETCH  ACCESS:          0  HIT:          0  MISS:          0
DTLB WRITEBACK ACCESS:          0  HIT:          0  MISS:          0
DTLB PREFETCH  REQUESTED:          0  ISSUED:          0  USEFUL:          0  USELESS:          0
DTLB TOTAL MSHR MERGED:     121127
DTLB LOAD MSHR MERGED:      83804
DTLB RFO MSHR MERGED:      37323
DTLB PREFETCH MSHR MERGED:          0
DTLB WRITEBACK MSHR MERGED:          0
DTLB TOTAL ACCESSES:  130530212 HITS:  130151424 MISSES:     378788
DTLB LOAD ACCESSES:  109185713 HITS:  108881062 MISSES:     304651
DTLB RFO ACCESSES:   21344499 HITS:   21270362 MISSES:      74137
DTLB PREFETCH ACCESSES:          0 HITS:          0 MISSES:          0
DTLB WRITEBACK ACCESSES:          0 HITS:          0 MISSES:          0
DTLB RQ ACCESS:  218632585
DTLB RQ TO_CACHE:  130530213
DTLB RQ MERGED:   88102372
DTLB RQ FORWARD:          0
DTLB WQ ACCESS:          0
DTLB WQ TO_CACHE:          0
DTLB WQ MERGED:          0
DTLB WQ FORWARD:          0
L1D TOTAL     ACCESS:  204499768  HIT:  193446941  MISS:   11052827
L1D LOAD      ACCESS:  106150622  HIT:  102891579  MISS:    3259043
L1D RFO       ACCESS:   26924800  HIT:   25170544  MISS:    1754256
L1D PREFETCH  ACCESS:   71424346  HIT:   65384818  MISS:    6039528
L1D WRITEBACK ACCESS:          0  HIT:          0  MISS:          0
L1D PREFETCH  REQUESTED:  109007443  ISSUED:  107312537  USEFUL:    5607461  USELESS:     432061
L1D TOTAL MSHR MERGED:   18683361
L1D LOAD MSHR MERGED:    4962802
L1D RFO MSHR MERGED:    6502375
L1D PREFETCH MSHR MERGED:    7218184
L1D WRITEBACK MSHR MERGED:          0
L1D TOTAL ACCESSES:  223250422 HITS:  193514234 MISSES:   29736188
L1D LOAD ACCESSES:  109036715 HITS:  102920851 MISSES:    6115864
L1D RFO ACCESSES:   33424769 HITS:   25170544 MISSES:    8254225
L1D PREFETCH ACCESSES:   80788938 HITS:   65422839 MISSES:   15366099
L1D WRITEBACK ACCESSES:          0 HITS:          0 MISSES:          0
L1D RQ ACCESS:  184989147
L1D RQ TO_CACHE:  109007443
L1D RQ MERGED:   75952432
L1D RQ FORWARD:          0
L1D WQ ACCESS:   33643426
L1D WQ TO_CACHE:   33424768
L1D WQ MERGED:     218658
L1D WQ FORWARD:      67293
L1I TOTAL     ACCESS:  134147645  HIT:  134123068  MISS:      24577
L1I LOAD      ACCESS:  134147645  HIT:  134123068  MISS:      24577
L1I RFO       ACCESS:          0  HIT:          0  MISS:          0
L1I PREFETCH  ACCESS:          0  HIT:          0  MISS:          0
L1I WRITEBACK ACCESS:          0  HIT:          0  MISS:          0
L1I PREFETCH  REQUESTED:          0  ISSUED:          0  USEFUL:          0  USELESS:          0
L1I TOTAL MSHR MERGED:      30386
L1I LOAD MSHR MERGED:      30386
L1I RFO MSHR MERGED:          0
L1I PREFETCH MSHR MERGED:          0
L1I WRITEBACK MSHR MERGED:          0
L1I TOTAL ACCESSES:  134178031 HITS:  134123068 MISSES:      54963
L1I LOAD ACCESSES:  134178031 HITS:  134123068 MISSES:      54963
L1I RFO ACCESSES:          0 HITS:          0 MISSES:          0
L1I PREFETCH ACCESSES:          0 HITS:          0 MISSES:          0
L1I WRITEBACK ACCESSES:          0 HITS:          0 MISSES:          0
L1I RQ ACCESS:  500000005
L1I RQ TO_CACHE:  134178031
L1I RQ MERGED:  365821974
L1I RQ FORWARD:          0
L1I WQ ACCESS:          0
L1I WQ TO_CACHE:          0
L1I WQ MERGED:          0
L1I WQ FORWARD:          0
L2C TOTAL     ACCESS:   14909540  HIT:    6937723  MISS:    7971817
L2C LOAD      ACCESS:    1177441  HIT:     295610  MISS:     881831
L2C RFO       ACCESS:    1751636  HIT:     369065  MISS:    1382571
L2C PREFETCH  ACCESS:    8298931  HIT:    2600177  MISS:    5698754
L2C WRITEBACK ACCESS:    3681532  HIT:    3672871  MISS:       8661
L2C PREFETCH  REQUESTED:     384495  ISSUED:     384495  USEFUL:     112237  USELESS:    5587348
L2C TOTAL MSHR MERGED:      39296
L2C LOAD MSHR MERGED:       1762
L2C RFO MSHR MERGED:       1068
L2C PREFETCH MSHR MERGED:      36466
L2C WRITEBACK MSHR MERGED:          0
L2C TOTAL ACCESSES:   15082857 HITS:    6938361 MISSES:    8144496
L2C LOAD ACCESSES:    1177639 HITS:     295808 MISSES:     881831
L2C RFO ACCESSES:    1751850 HITS:     369279 MISSES:    1382571
L2C PREFETCH ACCESSES:    8471836 HITS:    2600403 MISSES:    5871433
L2C WRITEBACK ACCESSES:    3681532 HITS:    3672871 MISSES:       8661
L2C RQ ACCESS:    2929489
L2C RQ TO_CACHE:    2929077
L2C RQ MERGED:          0
L2C RQ FORWARD:          0
L2C WQ ACCESS:    3681532
L2C WQ TO_CACHE:    3681532
L2C WQ MERGED:          0
L2C WQ FORWARD:        638
LLC TOTAL     ACCESS:   11165843  HIT:    1697161  MISS:    9468682
LLC LOAD      ACCESS:     880065  HIT:     134005  MISS:     746060
LLC RFO       ACCESS:    1381501  HIT:     114336  MISS:    1267165
LLC PREFETCH  ACCESS:    5799971  HIT:     777686  MISS:    5022285
LLC WRITEBACK ACCESS:    3104306  HIT:     671134  MISS:    2433172
LLC PREFETCH  REQUESTED:          0  ISSUED:          0  USEFUL:      49933  USELESS:    4983437
LLC TOTAL MSHR MERGED:      27370
LLC LOAD MSHR MERGED:       8504
LLC RFO MSHR MERGED:        609
LLC PREFETCH MSHR MERGED:      18257
LLC WRITEBACK MSHR MERGED:          0
LLC TOTAL ACCESSES:   11193225 HITS:    1697173 MISSES:    9496052
LLC LOAD ACCESSES:     880069 HITS:     134009 MISSES:     746060
LLC RFO ACCESSES:    1381503 HITS:     114338 MISSES:    1267165
LLC PREFETCH ACCESSES:    5827347 HITS:     777692 MISSES:    5049655
LLC WRITEBACK ACCESSES:    3104306 HITS:     671134 MISSES:    2433172
LLC 0 RQ ACCESS:    2261572
LLC 0 RQ TO_CACHE:    2261566
LLC 0 RQ MERGED:          0
LLC 0 RQ FORWARD:          0
LLC WQ ACCESS:    3104306
LLC WQ TO_CACHE:    3104306
LLC WQ MERGED:          0
LLC WQ FORWARD:         12
Major fault: 0 Minor fault: 11519
CPU 0 L1D next line prefetcher final stats
CPU 0 L2C PC-based stride prefetcher final stats
All Misses: 11671235
All Hits: 2105862
SD Algo Stats - Switches: 0 SRR-Repls: 847207 BRR-Repls: 0

DRAM Statistics
 CHANNEL 0
 RQ ROW_BUFFER_HIT:    4190423  ROW_BUFFER_MISS:    2843994
 DBUS_CONGESTED:    5355865
 WQ ROW_BUFFER_HIT:    1090403  ROW_BUFFER_MISS:    1699478  FULL:        218

 AVG_CONGESTED_CYCLE: 13
LOADS RETIRED: 190375692
INSTR RETIRED: 500000000
