
*** ChampSim Multicore Out-of-Order Simulator ***

Warmup Instructions: 100000000
Simulation Instructions: 500000000
Number of CPUs: 1
LLC sets: 2048
LLC ways: 16
Clean RRIP Policies: 1212131112121311 Dirty RRIP Policies: 2212131122121311 PSEL Width: 10 Track Set: 4294967295 PSEL Mask: 1 Demote Mask: 1313324313133243DS Algo: 0Window size: 0
Off-chip DRAM Size: 4096 MB Channels: 1 Width: 64-bit Data Rate: 1600 MT/s

CPU 0 runs /mnt/beegfs/iconst01/spec2017/Xz.trace.gz
NOT SORTED
TRACE STRING: /mnt/beegfs/iconst01/spec2017/Xz.trace.gz
SORTED
TRACE STRING: /mnt/beegfs/iconst01/spec2017/Xz.trace.gz
INITIAL
TRACE STRING: /mnt/beegfs/iconst01/spec2017/Xz.trace.gz

champsim_seed used: 210

CPU 0 L1D next line prefetcher
CPU 0 L2C IP-based stride prefetcher
Initialize DRRIP state
Assign rand_sets[0]: 454  LLC: 2048
rand_sets[0]: 454
Assign rand_sets[1]: 1662  LLC: 2048
rand_sets[1]: 1662
Assign rand_sets[2]: 1921  LLC: 2048
rand_sets[2]: 1921
Assign rand_sets[3]: 1131  LLC: 2048
rand_sets[3]: 1131
Assign rand_sets[4]: 331  LLC: 2048
rand_sets[4]: 331
Assign rand_sets[5]: 1531  LLC: 2048
rand_sets[5]: 1531
Assign rand_sets[6]: 482  LLC: 2048
rand_sets[6]: 482
Assign rand_sets[7]: 1275  LLC: 2048
rand_sets[7]: 1275
Assign rand_sets[8]: 1876  LLC: 2048
rand_sets[8]: 1876
Assign rand_sets[9]: 2038  LLC: 2048
rand_sets[9]: 2038
Assign rand_sets[10]: 701  LLC: 2048
rand_sets[10]: 701
Assign rand_sets[11]: 479  LLC: 2048
rand_sets[11]: 479
Assign rand_sets[12]: 892  LLC: 2048
rand_sets[12]: 892
Assign rand_sets[13]: 1820  LLC: 2048
rand_sets[13]: 1820
Assign rand_sets[14]: 1505  LLC: 2048
rand_sets[14]: 1505
Assign rand_sets[15]: 1159  LLC: 2048
rand_sets[15]: 1159
Assign rand_sets[16]: 513  LLC: 2048
rand_sets[16]: 513
Assign rand_sets[17]: 703  LLC: 2048
rand_sets[17]: 703
Assign rand_sets[18]: 561  LLC: 2048
rand_sets[18]: 561
Assign rand_sets[19]: 990  LLC: 2048
rand_sets[19]: 990
Assign rand_sets[20]: 342  LLC: 2048
rand_sets[20]: 342
Assign rand_sets[21]: 882  LLC: 2048
rand_sets[21]: 882
Assign rand_sets[22]: 15  LLC: 2048
rand_sets[22]: 15
Assign rand_sets[23]: 71  LLC: 2048
rand_sets[23]: 71
Assign rand_sets[24]: 1127  LLC: 2048
rand_sets[24]: 1127
Assign rand_sets[25]: 1382  LLC: 2048
rand_sets[25]: 1382
Assign rand_sets[26]: 647  LLC: 2048
rand_sets[26]: 647
Assign rand_sets[27]: 857  LLC: 2048
rand_sets[27]: 857
Assign rand_sets[28]: 1450  LLC: 2048
rand_sets[28]: 1450
Assign rand_sets[29]: 1160  LLC: 2048
rand_sets[29]: 1160
Assign rand_sets[30]: 1852  LLC: 2048
rand_sets[30]: 1852
Assign rand_sets[31]: 1881  LLC: 2048
rand_sets[31]: 1881
Assign rand_sets[32]: 1770  LLC: 2048
rand_sets[32]: 1770
Assign rand_sets[33]: 1622  LLC: 2048
rand_sets[33]: 1622
Assign rand_sets[34]: 275  LLC: 2048
rand_sets[34]: 275
Assign rand_sets[35]: 635  LLC: 2048
rand_sets[35]: 635
Assign rand_sets[36]: 466  LLC: 2048
rand_sets[36]: 466
Assign rand_sets[37]: 1413  LLC: 2048
rand_sets[37]: 1413
Assign rand_sets[38]: 417  LLC: 2048
rand_sets[38]: 417
Assign rand_sets[39]: 472  LLC: 2048
rand_sets[39]: 472
Assign rand_sets[40]: 1340  LLC: 2048
rand_sets[40]: 1340
Assign rand_sets[41]: 852  LLC: 2048
rand_sets[41]: 852
Assign rand_sets[42]: 1365  LLC: 2048
rand_sets[42]: 1365
Assign rand_sets[43]: 47  LLC: 2048
rand_sets[43]: 47
Assign rand_sets[44]: 823  LLC: 2048
rand_sets[44]: 823
Assign rand_sets[45]: 686  LLC: 2048
rand_sets[45]: 686
Assign rand_sets[46]: 1637  LLC: 2048
rand_sets[46]: 1637
Assign rand_sets[47]: 1115  LLC: 2048
rand_sets[47]: 1115
Assign rand_sets[48]: 986  LLC: 2048
rand_sets[48]: 986
Assign rand_sets[49]: 258  LLC: 2048
rand_sets[49]: 258
Assign rand_sets[50]: 633  LLC: 2048
rand_sets[50]: 633
Assign rand_sets[51]: 920  LLC: 2048
rand_sets[51]: 920
Assign rand_sets[52]: 204  LLC: 2048
rand_sets[52]: 204
Assign rand_sets[53]: 227  LLC: 2048
rand_sets[53]: 227
Assign rand_sets[54]: 1818  LLC: 2048
rand_sets[54]: 1818
Assign rand_sets[55]: 886  LLC: 2048
rand_sets[55]: 886
Assign rand_sets[56]: 1422  LLC: 2048
rand_sets[56]: 1422
Assign rand_sets[57]: 607  LLC: 2048
rand_sets[57]: 607
Assign rand_sets[58]: 217  LLC: 2048
rand_sets[58]: 217
Assign rand_sets[59]: 1945  LLC: 2048
rand_sets[59]: 1945
Assign rand_sets[60]: 143  LLC: 2048
rand_sets[60]: 143
Assign rand_sets[61]: 1311  LLC: 2048
rand_sets[61]: 1311
Assign rand_sets[62]: 319  LLC: 2048
rand_sets[62]: 319
Assign rand_sets[63]: 1846  LLC: 2048
rand_sets[63]: 1846
 CLEAN-RRIP-POLICY-1: 1-2-1-2-1-3-1-1- CLEAN-RRIP-POLICY-2: 1-2-1-2-1-3-1-1-
 DIRTY-RRIP-POLICY-1: 2-2-1-2-1-3-1-1- DIRTY-RRIP-POLICY-2: 2-2-1-2-1-3-1-1-
 PSEL width: 10
Heartbeat CPU 0 instructions: 10000000 cycles: 4305123 heartbeat IPC: 2.32281 cumulative IPC: 2.32281 (Simulation time: 0 hr 0 min 12 sec) 
Heartbeat CPU 0 instructions: 20000000 cycles: 8616736 heartbeat IPC: 2.31932 cumulative IPC: 2.32106 (Simulation time: 0 hr 0 min 24 sec) 
Heartbeat CPU 0 instructions: 30000003 cycles: 13160522 heartbeat IPC: 2.20081 cumulative IPC: 2.27955 (Simulation time: 0 hr 0 min 36 sec) 
Heartbeat CPU 0 instructions: 40000000 cycles: 17515066 heartbeat IPC: 2.29645 cumulative IPC: 2.28375 (Simulation time: 0 hr 0 min 48 sec) 
Heartbeat CPU 0 instructions: 50000001 cycles: 21877967 heartbeat IPC: 2.29205 cumulative IPC: 2.2854 (Simulation time: 0 hr 1 min 0 sec) 
Heartbeat CPU 0 instructions: 60000000 cycles: 26178317 heartbeat IPC: 2.32539 cumulative IPC: 2.29197 (Simulation time: 0 hr 1 min 12 sec) 
Heartbeat CPU 0 instructions: 70000001 cycles: 30244386 heartbeat IPC: 2.45938 cumulative IPC: 2.31448 (Simulation time: 0 hr 1 min 23 sec) 
Heartbeat CPU 0 instructions: 80000000 cycles: 34523559 heartbeat IPC: 2.3369 cumulative IPC: 2.31726 (Simulation time: 0 hr 1 min 34 sec) 
Heartbeat CPU 0 instructions: 90000001 cycles: 38740458 heartbeat IPC: 2.37141 cumulative IPC: 2.32315 (Simulation time: 0 hr 1 min 45 sec) 
Heartbeat CPU 0 instructions: 100000000 cycles: 42981262 heartbeat IPC: 2.35804 cumulative IPC: 2.3266 (Simulation time: 0 hr 1 min 57 sec) 

Warmup complete CPU 0 instructions: 100000001 cycles: 42981263 (Simulation time: 0 hr 1 min 57 sec) 

Heartbeat CPU 0 instructions: 110000000 cycles: 53383766 heartbeat IPC: 0.961307 cumulative IPC: 0.961307 (Simulation time: 0 hr 2 min 14 sec) 
Heartbeat CPU 0 instructions: 120000000 cycles: 64407200 heartbeat IPC: 0.907158 cumulative IPC: 0.933448 (Simulation time: 0 hr 2 min 32 sec) 
Heartbeat CPU 0 instructions: 130000001 cycles: 75397674 heartbeat IPC: 0.909879 cumulative IPC: 0.925457 (Simulation time: 0 hr 2 min 49 sec) 
Heartbeat CPU 0 instructions: 140000000 cycles: 85402634 heartbeat IPC: 0.999504 cumulative IPC: 0.942921 (Simulation time: 0 hr 3 min 6 sec) 
Heartbeat CPU 0 instructions: 150000001 cycles: 96128505 heartbeat IPC: 0.932325 cumulative IPC: 0.940783 (Simulation time: 0 hr 3 min 24 sec) 
Heartbeat CPU 0 instructions: 160000000 cycles: 106589177 heartbeat IPC: 0.955961 cumulative IPC: 0.943279 (Simulation time: 0 hr 3 min 41 sec) 
Heartbeat CPU 0 instructions: 170000000 cycles: 116639240 heartbeat IPC: 0.995019 cumulative IPC: 0.950338 (Simulation time: 0 hr 3 min 58 sec) 
Heartbeat CPU 0 instructions: 180000000 cycles: 127670521 heartbeat IPC: 0.906513 cumulative IPC: 0.94463 (Simulation time: 0 hr 4 min 15 sec) 
Heartbeat CPU 0 instructions: 190000001 cycles: 138371764 heartbeat IPC: 0.934471 cumulative IPC: 0.94349 (Simulation time: 0 hr 4 min 33 sec) 
Heartbeat CPU 0 instructions: 200000000 cycles: 149463581 heartbeat IPC: 0.901565 cumulative IPC: 0.939123 (Simulation time: 0 hr 4 min 50 sec) 
Heartbeat CPU 0 instructions: 210000002 cycles: 162702300 heartbeat IPC: 0.75536 cumulative IPC: 0.918803 (Simulation time: 0 hr 5 min 9 sec) 
Heartbeat CPU 0 instructions: 220000000 cycles: 176130118 heartbeat IPC: 0.744722 cumulative IPC: 0.901247 (Simulation time: 0 hr 5 min 28 sec) 
Heartbeat CPU 0 instructions: 230000000 cycles: 189153115 heartbeat IPC: 0.767872 cumulative IPC: 0.889364 (Simulation time: 0 hr 5 min 47 sec) 
Heartbeat CPU 0 instructions: 240000000 cycles: 202199547 heartbeat IPC: 0.766493 cumulative IPC: 0.879296 (Simulation time: 0 hr 6 min 6 sec) 
Heartbeat CPU 0 instructions: 250000000 cycles: 214983503 heartbeat IPC: 0.78223 cumulative IPC: 0.872082 (Simulation time: 0 hr 6 min 25 sec) 
Heartbeat CPU 0 instructions: 260000000 cycles: 227240611 heartbeat IPC: 0.815853 cumulative IPC: 0.868341 (Simulation time: 0 hr 6 min 43 sec) 
Heartbeat CPU 0 instructions: 270000003 cycles: 239987849 heartbeat IPC: 0.784484 cumulative IPC: 0.862915 (Simulation time: 0 hr 7 min 2 sec) 
Heartbeat CPU 0 instructions: 280000000 cycles: 252297997 heartbeat IPC: 0.812338 cumulative IPC: 0.859941 (Simulation time: 0 hr 7 min 20 sec) 
Heartbeat CPU 0 instructions: 290000002 cycles: 264743637 heartbeat IPC: 0.803494 cumulative IPC: 0.856773 (Simulation time: 0 hr 7 min 38 sec) 
Heartbeat CPU 0 instructions: 300000000 cycles: 278048439 heartbeat IPC: 0.751608 cumulative IPC: 0.850821 (Simulation time: 0 hr 7 min 57 sec) 
Heartbeat CPU 0 instructions: 310000000 cycles: 291209203 heartbeat IPC: 0.759834 cumulative IPC: 0.845997 (Simulation time: 0 hr 8 min 16 sec) 
Heartbeat CPU 0 instructions: 320000000 cycles: 304920101 heartbeat IPC: 0.729347 cumulative IPC: 0.839891 (Simulation time: 0 hr 8 min 35 sec) 
Heartbeat CPU 0 instructions: 330000003 cycles: 317848688 heartbeat IPC: 0.77348 cumulative IPC: 0.836767 (Simulation time: 0 hr 8 min 54 sec) 
Heartbeat CPU 0 instructions: 340000000 cycles: 331019001 heartbeat IPC: 0.759283 cumulative IPC: 0.833224 (Simulation time: 0 hr 9 min 13 sec) 
Heartbeat CPU 0 instructions: 350000001 cycles: 342659303 heartbeat IPC: 0.859084 cumulative IPC: 0.834229 (Simulation time: 0 hr 9 min 31 sec) 
Heartbeat CPU 0 instructions: 360000000 cycles: 355392556 heartbeat IPC: 0.785345 cumulative IPC: 0.832236 (Simulation time: 0 hr 9 min 49 sec) 
Heartbeat CPU 0 instructions: 370000001 cycles: 367326861 heartbeat IPC: 0.837921 cumulative IPC: 0.832445 (Simulation time: 0 hr 10 min 7 sec) 
Heartbeat CPU 0 instructions: 380000000 cycles: 378882707 heartbeat IPC: 0.865363 cumulative IPC: 0.833578 (Simulation time: 0 hr 10 min 26 sec) 
Heartbeat CPU 0 instructions: 390000003 cycles: 390152037 heartbeat IPC: 0.887364 cumulative IPC: 0.835324 (Simulation time: 0 hr 10 min 43 sec) 
Heartbeat CPU 0 instructions: 400000000 cycles: 400872672 heartbeat IPC: 0.93278 cumulative IPC: 0.838243 (Simulation time: 0 hr 11 min 1 sec) 
Heartbeat CPU 0 instructions: 410000000 cycles: 412026608 heartbeat IPC: 0.896545 cumulative IPC: 0.840005 (Simulation time: 0 hr 11 min 19 sec) 
Heartbeat CPU 0 instructions: 420000000 cycles: 421659221 heartbeat IPC: 1.03814 cumulative IPC: 0.845045 (Simulation time: 0 hr 11 min 36 sec) 
Heartbeat CPU 0 instructions: 430000002 cycles: 430880248 heartbeat IPC: 1.08448 cumulative IPC: 0.850737 (Simulation time: 0 hr 11 min 53 sec) 
Heartbeat CPU 0 instructions: 440000000 cycles: 441728678 heartbeat IPC: 0.921792 cumulative IPC: 0.85267 (Simulation time: 0 hr 12 min 11 sec) 
Heartbeat CPU 0 instructions: 450000002 cycles: 453551693 heartbeat IPC: 0.845808 cumulative IPC: 0.852472 (Simulation time: 0 hr 12 min 29 sec) 
Heartbeat CPU 0 instructions: 460000000 cycles: 465873718 heartbeat IPC: 0.811555 cumulative IPC: 0.85128 (Simulation time: 0 hr 12 min 47 sec) 
Heartbeat CPU 0 instructions: 470000003 cycles: 476481016 heartbeat IPC: 0.942747 cumulative IPC: 0.853518 (Simulation time: 0 hr 13 min 5 sec) 
Heartbeat CPU 0 instructions: 480000000 cycles: 487541951 heartbeat IPC: 0.904082 cumulative IPC: 0.854776 (Simulation time: 0 hr 13 min 22 sec) 
Heartbeat CPU 0 instructions: 490000000 cycles: 497843836 heartbeat IPC: 0.970696 cumulative IPC: 0.857402 (Simulation time: 0 hr 13 min 40 sec) 
Heartbeat CPU 0 instructions: 500000000 cycles: 510441470 heartbeat IPC: 0.7938 cumulative IPC: 0.855688 (Simulation time: 0 hr 13 min 58 sec) 
Heartbeat CPU 0 instructions: 510000002 cycles: 523664505 heartbeat IPC: 0.756256 cumulative IPC: 0.852953 (Simulation time: 0 hr 14 min 17 sec) 
Heartbeat CPU 0 instructions: 520000000 cycles: 536166492 heartbeat IPC: 0.799873 cumulative IPC: 0.851607 (Simulation time: 0 hr 14 min 35 sec) 
Heartbeat CPU 0 instructions: 530000001 cycles: 548701274 heartbeat IPC: 0.79778 cumulative IPC: 0.850273 (Simulation time: 0 hr 14 min 54 sec) 
Heartbeat CPU 0 instructions: 540000000 cycles: 560999658 heartbeat IPC: 0.813115 cumulative IPC: 0.849391 (Simulation time: 0 hr 15 min 12 sec) 
Heartbeat CPU 0 instructions: 550000001 cycles: 573087180 heartbeat IPC: 0.8273 cumulative IPC: 0.848887 (Simulation time: 0 hr 15 min 30 sec) 
Heartbeat CPU 0 instructions: 560000000 cycles: 585329801 heartbeat IPC: 0.816818 cumulative IPC: 0.848163 (Simulation time: 0 hr 15 min 49 sec) 
Heartbeat CPU 0 instructions: 570000000 cycles: 597380895 heartbeat IPC: 0.8298 cumulative IPC: 0.847764 (Simulation time: 0 hr 16 min 7 sec) 
Heartbeat CPU 0 instructions: 580000000 cycles: 608653705 heartbeat IPC: 0.88709 cumulative IPC: 0.848548 (Simulation time: 0 hr 16 min 25 sec) 
Heartbeat CPU 0 instructions: 590000003 cycles: 620771529 heartbeat IPC: 0.825231 cumulative IPC: 0.848059 (Simulation time: 0 hr 16 min 43 sec) 
Heartbeat CPU 0 instructions: 600000000 cycles: 631864213 heartbeat IPC: 0.901495 cumulative IPC: 0.849065 (Simulation time: 0 hr 17 min 0 sec) 
Finished CPU 0 instructions: 500000001 cycles: 588882958 cumulative IPC: 0.849065 (Simulation time: 0 hr 17 min 0 sec) 

CPU 0 Branch Prediction Accuracy: 93.0095% MPKI: 10.0046
Number of Branches: 71558147 Number of Mispredictions: 5002285
Number of LOAD Instructions: 145708893
Number of LOAD Instructions (ROI): 145708893
Number of STORE Instructions: 40463820
Number of STORE Instructions (ROI): 40463820
Total Destination Memory Operands: 45240498
Total Destination Memory Operands (ROI): 45240498
Total Source Memory Operands: 145708893
Total Source Memory Operands (ROI): 145708893
Number of DEPENDED LOADS: 10687586
Number of DEPENDED LOADS (ROI): 10687586
Number of SQ_ADDED: 45240498
Number of SQ_ADDED (ROI): 45240498
Number of LQ_ADDED: 193445392
Number of LQ_ADDED (ROI): 193445392
Number of Instructions read from trace: 600000002

ChampSim completed all CPUs

Region of Interest Statistics

CPU 0 cumulative IPC: 0.849065 instructions: 500000001 cycles: 588882958
ITLB TOTAL     ACCESS:   77980297  HIT:   77980296  MISS:          1
ITLB LOAD      ACCESS:   77980297  HIT:   77980296  MISS:          1
ITLB RFO       ACCESS:          0  HIT:          0  MISS:          0
ITLB PREFETCH  ACCESS:          0  HIT:          0  MISS:          0
ITLB WRITEBACK ACCESS:          0  HIT:          0  MISS:          0
ITLB PREFETCH  REQUESTED:          0  ISSUED:          0  USEFUL:          0  USELESS:          0
ITLB TOTAL MSHR MERGED:          0
ITLB LOAD MSHR MERGED:          0
ITLB RFO MSHR MERGED:          0
ITLB PREFETCH MSHR MERGED:          0
ITLB WRITEBACK MSHR MERGED:          0
ITLB TOTAL ACCESSES:   77980297 HITS:   77980296 MISSES:          1
ITLB LOAD ACCESSES:   77980297 HITS:   77980296 MISSES:          1
ITLB RFO ACCESSES:          0 HITS:          0 MISSES:          0
ITLB PREFETCH ACCESSES:          0 HITS:          0 MISSES:          0
ITLB WRITEBACK ACCESSES:          0 HITS:          0 MISSES:          0
ITLB RQ ACCESS:  499999995
ITLB RQ TO_CACHE:   77980297
ITLB RQ MERGED:  422019698
ITLB RQ FORWARD:          0
ITLB WQ ACCESS:          0
ITLB WQ TO_CACHE:          0
ITLB WQ MERGED:          0
ITLB WQ FORWARD:          0
DTLB TOTAL     ACCESS:   98682299  HIT:   97800962  MISS:     881337
DTLB LOAD      ACCESS:   70904179  HIT:   70042645  MISS:     861534
DTLB RFO       ACCESS:   27778120  HIT:   27758317  MISS:      19803
DTLB PREFETCH  ACCESS:          0  HIT:          0  MISS:          0
DTLB WRITEBACK ACCESS:          0  HIT:          0  MISS:          0
DTLB PREFETCH  REQUESTED:          0  ISSUED:          0  USEFUL:          0  USELESS:          0
DTLB TOTAL MSHR MERGED:      86956
DTLB LOAD MSHR MERGED:      65148
DTLB RFO MSHR MERGED:      21808
DTLB PREFETCH MSHR MERGED:          0
DTLB WRITEBACK MSHR MERGED:          0
DTLB TOTAL ACCESSES:   98769255 HITS:   97800962 MISSES:     968293
DTLB LOAD ACCESSES:   70969327 HITS:   70042645 MISSES:     926682
DTLB RFO ACCESSES:   27799928 HITS:   27758317 MISSES:      41611
DTLB PREFETCH ACCESSES:          0 HITS:          0 MISSES:          0
DTLB WRITEBACK ACCESSES:          0 HITS:          0 MISSES:          0
DTLB RQ ACCESS:  150257397
DTLB RQ TO_CACHE:   98769255
DTLB RQ MERGED:   51488142
DTLB RQ FORWARD:          0
DTLB WQ ACCESS:          0
DTLB WQ TO_CACHE:          0
DTLB WQ MERGED:          0
DTLB WQ FORWARD:          0
L1D TOTAL     ACCESS:  173268636  HIT:  169100172  MISS:    4168464
L1D LOAD      ACCESS:   75265122  HIT:   73383337  MISS:    1881785
L1D RFO       ACCESS:   36776433  HIT:   36569452  MISS:     206981
L1D PREFETCH  ACCESS:   61227081  HIT:   59147383  MISS:    2079698
L1D WRITEBACK ACCESS:          0  HIT:          0  MISS:          0
L1D PREFETCH  REQUESTED:   75376406  ISSUED:   74812143  USEFUL:     414234  USELESS:    1665453
L1D TOTAL MSHR MERGED:     415705
L1D LOAD MSHR MERGED:     120585
L1D RFO MSHR MERGED:     134351
L1D PREFETCH MSHR MERGED:     160769
L1D WRITEBACK MSHR MERGED:          0
L1D TOTAL ACCESSES:  173837162 HITS:  169252993 MISSES:    4584169
L1D LOAD ACCESSES:   75379759 HITS:   73386690 MISSES:    1993069
L1D RFO ACCESSES:   36909015 HITS:   36569452 MISSES:     339563
L1D PREFETCH ACCESSES:   61548388 HITS:   59296851 MISSES:    2251537
L1D WRITEBACK ACCESSES:          0 HITS:          0 MISSES:          0
L1D RQ ACCESS:  112594994
L1D RQ TO_CACHE:   75376406
L1D RQ MERGED:   37215235
L1D RQ FORWARD:          0
L1D WQ ACCESS:   37662403
L1D WQ TO_CACHE:   36909015
L1D WQ MERGED:     753388
L1D WQ FORWARD:     152821
L1I TOTAL     ACCESS:  100689228  HIT:  100689203  MISS:         25
L1I LOAD      ACCESS:  100689228  HIT:  100689203  MISS:         25
L1I RFO       ACCESS:          0  HIT:          0  MISS:          0
L1I PREFETCH  ACCESS:          0  HIT:          0  MISS:          0
L1I WRITEBACK ACCESS:          0  HIT:          0  MISS:          0
L1I PREFETCH  REQUESTED:          0  ISSUED:          0  USEFUL:          0  USELESS:          0
L1I TOTAL MSHR MERGED:         10
L1I LOAD MSHR MERGED:         10
L1I RFO MSHR MERGED:          0
L1I PREFETCH MSHR MERGED:          0
L1I WRITEBACK MSHR MERGED:          0
L1I TOTAL ACCESSES:  100689238 HITS:  100689203 MISSES:         35
L1I LOAD ACCESSES:  100689238 HITS:  100689203 MISSES:         35
L1I RFO ACCESSES:          0 HITS:          0 MISSES:          0
L1I PREFETCH ACCESSES:          0 HITS:          0 MISSES:          0
L1I WRITEBACK ACCESSES:          0 HITS:          0 MISSES:          0
L1I RQ ACCESS:  499999995
L1I RQ TO_CACHE:  100689238
L1I RQ MERGED:  399310757
L1I RQ FORWARD:          0
L1I WQ ACCESS:          0
L1I WQ TO_CACHE:          0
L1I WQ MERGED:          0
L1I WQ FORWARD:          0
L2C TOTAL     ACCESS:    5851957  HIT:    4008858  MISS:    1843099
L2C LOAD      ACCESS:    1872383  HIT:    1061331  MISS:     811052
L2C RFO       ACCESS:     205199  HIT:     100550  MISS:     104649
L2C PREFETCH  ACCESS:    2168761  HIT:    1245787  MISS:     922974
L2C WRITEBACK ACCESS:    1605614  HIT:    1601190  MISS:       4424
L2C PREFETCH  REQUESTED:      91682  ISSUED:      91682  USEFUL:      86317  USELESS:     836680
L2C TOTAL MSHR MERGED:       1398
L2C LOAD MSHR MERGED:        364
L2C RFO MSHR MERGED:          0
L2C PREFETCH MSHR MERGED:       1034
L2C WRITEBACK MSHR MERGED:          0
L2C TOTAL ACCESSES:    5853814 HITS:    4009036 MISSES:    1844778
L2C LOAD ACCESSES:    1872509 HITS:    1061457 MISSES:     811052
L2C RFO ACCESSES:     205212 HITS:     100563 MISSES:     104649
L2C PREFETCH ACCESSES:    2170479 HITS:    1245826 MISSES:     924653
L2C WRITEBACK ACCESSES:    1605614 HITS:    1601190 MISSES:       4424
L2C RQ ACCESS:    2077721
L2C RQ TO_CACHE:    2077582
L2C RQ MERGED:          0
L2C RQ FORWARD:          0
L2C WQ ACCESS:    1605614
L2C WQ TO_CACHE:    1605614
L2C WQ MERGED:          0
L2C WQ FORWARD:        178
LLC TOTAL     ACCESS:    2673548  HIT:    1509062  MISS:    1164486
LLC LOAD      ACCESS:     810680  HIT:     397396  MISS:     413284
LLC RFO       ACCESS:     104648  HIT:      44126  MISS:      60522
LLC PREFETCH  ACCESS:     923571  HIT:     434447  MISS:     489124
LLC WRITEBACK ACCESS:     834649  HIT:     633093  MISS:     201556
LLC PREFETCH  REQUESTED:          0  ISSUED:          0  USEFUL:      27726  USELESS:     463354
LLC TOTAL MSHR MERGED:         40
LLC LOAD MSHR MERGED:         10
LLC RFO MSHR MERGED:          0
LLC PREFETCH MSHR MERGED:         30
LLC WRITEBACK MSHR MERGED:          0
LLC TOTAL ACCESSES:    2673600 HITS:    1509074 MISSES:    1164526
LLC LOAD ACCESSES:     810688 HITS:     397404 MISSES:     413284
LLC RFO ACCESSES:     104649 HITS:      44127 MISSES:      60522
LLC PREFETCH ACCESSES:     923614 HITS:     434450 MISSES:     489164
LLC WRITEBACK ACCESSES:     834649 HITS:     633093 MISSES:     201556
LLC 0 RQ ACCESS:     915337
LLC 0 RQ TO_CACHE:     915328
LLC 0 RQ MERGED:          0
LLC 0 RQ FORWARD:          0
LLC WQ ACCESS:     834649
LLC WQ TO_CACHE:     834649
LLC WQ MERGED:          0
LLC WQ FORWARD:         12
Major fault: 0 Minor fault: 11278
CPU 0 L1D next line prefetcher final stats
CPU 0 L2C PC-based stride prefetcher final stats
All Misses: 1298181
All Hits: 1756386
SD Algo Stats - Switches: 0 SRR-Repls: 448413 BRR-Repls: 0

DRAM Statistics
 CHANNEL 0
 RQ ROW_BUFFER_HIT:      57385  ROW_BUFFER_MISS:     903251
 DBUS_CONGESTED:     818159
 WQ ROW_BUFFER_HIT:      50808  ROW_BUFFER_MISS:     432317  FULL:          0

 AVG_CONGESTED_CYCLE: 13
LOADS RETIRED: 121769268
INSTR RETIRED: 500000000
